# generated using pymatgen
data_Li17P5S21
_symmetry_space_group_name_H-M   'P 1'
_cell_length_a   10.24241400
_cell_length_b   14.48086959
_cell_length_c   46.32433700
_cell_angle_alpha   90.00000000
_cell_angle_beta   90.00000000
_cell_angle_gamma   74.68014200
_symmetry_Int_Tables_number   1
_chemical_formula_structural   Li17P5S21
_chemical_formula_sum   'Li68 P20 S84'
_cell_volume   6626.63516060
_cell_formula_units_Z   4
loop_
 _symmetry_equiv_pos_site_id
 _symmetry_equiv_pos_as_xyz
  1  'x, y, z'
loop_
 _atom_site_type_symbol
 _atom_site_label
 _atom_site_symmetry_multiplicity
 _atom_site_fract_x
 _atom_site_fract_y
 _atom_site_fract_z
 _atom_site_occupancy
  Li  Li0  1  0.73196476  0.75693015  0.06822295  1
  Li  Li1  1  0.72813560  0.06990712  0.09172501  1
  Li  Li2  1  0.90669031  0.63424714  0.02783167  1
  Li  Li3  1  0.54504055  0.34356553  0.05656878  1
  Li  Li4  1  0.24545997  0.38409090  0.01116066  1
  Li  Li5  1  0.26182099  0.58592379  0.04092964  1
  Li  Li6  1  0.38546825  0.13242772  0.03677805  1
  Li  Li7  1  0.38212163  0.75880127  0.04819011  1
  Li  Li8  1  0.83299790  0.96435804  0.04055885  1
  Li  Li9  1  0.89723369  0.44090072  0.04129219  1
  Li  Li10  1  0.18251103  0.41559763  0.06886670  1
  Li  Li11  1  0.24438997  0.89550246  0.09566313  1
  Li  Li12  1  0.41320935  0.61625147  0.16841851  1
  Li  Li13  1  0.41789180  0.92572985  0.18820151  1
  Li  Li14  1  0.65991080  0.52948480  0.10548582  1
  Li  Li15  1  0.45496662  0.14132529  0.15192736  1
  Li  Li16  1  0.23473030  0.22661695  0.08492188  1
  Li  Li17  1  0.96674956  0.47979902  0.14832156  1
  Li  Li18  1  0.01598313  0.00981797  0.13382501  1
  Li  Li19  1  0.11867015  0.66820084  0.12551080  1
  Li  Li20  1  0.62821582  0.83115710  0.12959225  1
  Li  Li21  1  0.58845964  0.31724144  0.13737974  1
  Li  Li22  1  0.96579899  0.28477115  0.17458236  1
  Li  Li23  1  0.92274946  0.76570243  0.19084335  1
  Li  Li24  1  0.08156975  0.49441065  0.27120557  1
  Li  Li25  1  0.09285893  0.79968914  0.28776581  1
  Li  Li26  1  0.33659079  0.39732934  0.20984327  1
  Li  Li27  1  0.14895973  0.01412122  0.25007223  1
  Li  Li28  1  0.86400266  0.08105022  0.20345109  1
  Li  Li29  1  0.64003195  0.35083187  0.24979225  1
  Li  Li30  1  0.70464029  0.87937277  0.23335095  1
  Li  Li31  1  0.79463582  0.53835462  0.22525311  1
  Li  Li32  1  0.28134444  0.70392332  0.22699571  1
  Li  Li33  1  0.26506976  0.19003278  0.24042611  1
  Li  Li34  1  0.63862067  0.15646469  0.27914020  1
  Li  Li35  1  0.58211925  0.65184497  0.26949758  1
  Li  Li36  1  0.75704141  0.37268595  0.37201623  1
  Li  Li37  1  0.76041157  0.67836718  0.39109295  1
  Li  Li38  1  0.01173781  0.27201265  0.31015457  1
  Li  Li39  1  0.83707482  0.88627012  0.34797937  1
  Li  Li40  1  0.53833669  0.95594933  0.30574301  1
  Li  Li41  1  0.31560659  0.21833948  0.35363684  1
  Li  Li42  1  0.39507464  0.75299600  0.32999910  1
  Li  Li43  1  0.47760755  0.41589047  0.32450368  1
  Li  Li44  1  0.87261601  0.58967853  0.33129855  1
  Li  Li45  1  0.93966893  0.06423869  0.33892691  1
  Li  Li46  1  0.23214537  0.01284331  0.38272785  1
  Li  Li47  1  0.25393130  0.53262968  0.36657314  1
  Li  Li48  1  0.44517641  0.22935644  0.46846707  1
  Li  Li49  1  0.44273050  0.54321291  0.49064031  1
  Li  Li50  1  0.70747092  0.15844087  0.40880363  1
  Li  Li51  1  0.51324923  0.76932999  0.45314273  1
  Li  Li52  1  0.21193877  0.81864406  0.40770686  1
  Li  Li53  1  0.93896208  0.07432057  0.47303236  1
  Li  Li54  1  0.05629483  0.62879419  0.43243288  1
  Li  Li55  1  0.16314927  0.28860070  0.42434669  1
  Li  Li56  1  0.54485967  0.46781982  0.42933545  1
  Li  Li57  1  0.58541870  0.98080589  0.42025647  1
  Li  Li58  1  0.99526134  0.88426363  0.48867384  1
  Li  Li59  1  0.93193623  0.40281841  0.46320280  1
  Li  Li60  1  0.62982175  0.95632992  0.50087712  1
  Li  Li61  1  0.26787645  0.66706532  0.53059976  1
  Li  Li62  1  0.91509495  0.71447397  0.51633232  1
  Li  Li63  1  0.92984463  0.91576408  0.54684366  1
  Li  Li64  1  0.79288893  0.54335881  0.50958826  1
  Li  Li65  1  0.78745316  0.16622042  0.52215630  1
  Li  Li66  1  0.33920569  0.33634403  0.51914267  1
  Li  Li67  1  0.27935414  0.85938176  0.51680002  1
  P  P68  1  0.98811167  0.81365221  0.07766300  1
  P  P69  1  0.49014465  0.98153566  0.08038625  1
  P  P70  1  0.57813609  0.54260396  0.04032182  1
  P  P71  1  0.66407833  0.68277303  0.17999264  1
  P  P72  1  0.15882408  0.86377210  0.17863667  1
  P  P73  1  0.26824118  0.40165075  0.14658127  1
  P  P74  1  0.88431632  0.27624962  0.10690582  1
  P  P75  1  0.34061957  0.55659450  0.27903947  1
  P  P76  1  0.83588352  0.73652592  0.27809148  1
  P  P77  1  0.94137239  0.27517839  0.24619998  1
  P  P78  1  0.56042986  0.14208769  0.21176834  1
  P  P79  1  0.01745359  0.43261024  0.37967384  1
  P  P80  1  0.51201897  0.61512950  0.37847815  1
  P  P81  1  0.62038538  0.15276546  0.34789947  1
  P  P82  1  0.23360372  0.01767195  0.31217235  1
  P  P83  1  0.68258253  0.31831452  0.47910469  1
  P  P84  1  0.18646475  0.48582775  0.48116274  1
  P  P85  1  0.29116312  0.02283809  0.45083288  1
  P  P86  1  0.90554119  0.89694531  0.41110524  1
  P  P87  1  0.59829473  0.75814973  0.51795157  1
  S  S88  1  0.19069829  0.74202846  0.08054120  1
  S  S89  1  0.29009474  0.04663749  0.07443126  1
  S  S90  1  0.45109015  0.63878562  0.01359947  1
  S  S91  1  0.35183515  0.28662111  0.04614277  1
  S  S92  1  0.71497662  0.23653139  0.09292928  1
  S  S93  1  0.73338178  0.59405566  0.05927516  1
  S  S94  1  0.90910103  0.79980328  0.03719913  1
  S  S95  1  0.50547403  0.83584928  0.08063724  1
  S  S96  1  0.97149754  0.95970776  0.08265464  1
  S  S97  1  0.08874942  0.51117189  0.02820867  1
  S  S98  1  0.67297938  0.41991222  0.02006673  1
  S  S99  1  0.59768858  0.02501685  0.04773304  1
  S  S100  1  0.46480031  0.51785241  0.07504504  1
  S  S101  1  0.99744068  0.30304172  0.07310445  1
  S  S102  1  0.86581162  0.61213971  0.18310881  1
  S  S103  1  0.95521266  0.92772336  0.17658581  1
  S  S104  1  0.15147947  0.49778426  0.11772730  1
  S  S105  1  0.00726482  0.17670680  0.13337052  1
  S  S106  1  0.39675211  0.09426451  0.19949500  1
  S  S107  1  0.42460471  0.44747181  0.16479053  1
  S  S108  1  0.57132810  0.00666241  0.11930298  1
  S  S109  1  0.58155932  0.67093927  0.14032226  1
  S  S110  1  0.17784227  0.71730990  0.17439298  1
  S  S111  1  0.65436832  0.82781674  0.18438719  1
  S  S112  1  0.80137214  0.39424342  0.13359225  1
  S  S113  1  0.36180510  0.28125047  0.12388411  1
  S  S114  1  0.88931581  0.75675638  0.10820871  1
  S  S115  1  0.25585164  0.92397803  0.14808458  1
  S  S116  1  0.14508359  0.38221370  0.17996324  1
  S  S117  1  0.66236671  0.16900209  0.17622702  1
  S  S118  1  0.54423920  0.49020056  0.28113002  1
  S  S119  1  0.63349960  0.80804004  0.27616925  1
  S  S120  1  0.82179384  0.36812657  0.21740740  1
  S  S121  1  0.69710297  0.04779219  0.23760142  1
  S  S122  1  0.07255600  0.97112458  0.29733116  1
  S  S123  1  0.09668564  0.32196270  0.26419560  1
  S  S124  1  0.24781238  0.87699905  0.21772691  1
  S  S125  1  0.25064971  0.54278799  0.24027589  1
  S  S126  1  0.84340679  0.59177357  0.27405171  1
  S  S127  1  0.32845484  0.70280471  0.28211014  1
  S  S128  1  0.47636094  0.25976441  0.23804613  1
  S  S129  1  0.03567809  0.15657110  0.22147744  1
  S  S130  1  0.55915336  0.62916475  0.21091950  1
  S  S131  1  0.93828739  0.79054039  0.24713311  1
  S  S132  1  0.82453765  0.25096783  0.27987430  1
  S  S133  1  0.34087204  0.04600557  0.27753014  1
  S  S134  1  0.22167302  0.36962239  0.38119763  1
  S  S135  1  0.31134140  0.68640335  0.37344364  1
  S  S136  1  0.49245964  0.24503401  0.32029661  1
  S  S137  1  0.36442456  0.92436892  0.33902291  1
  S  S138  1  0.75058685  0.84798857  0.39370262  1
  S  S139  1  0.78015174  0.20166202  0.36245953  1
  S  S140  1  0.92562783  0.74550453  0.31722770  1
  S  S141  1  0.92644674  0.41696560  0.34104269  1
  S  S142  1  0.52069740  0.46986885  0.37436541  1
  S  S143  1  0.99666992  0.57898747  0.38372935  1
  S  S144  1  0.14595490  0.13468016  0.33850344  1
  S  S145  1  0.71046530  0.03417290  0.32240270  1
  S  S146  1  0.24216886  0.50277130  0.31071321  1
  S  S147  1  0.62077796  0.66633135  0.34824302  1
  S  S148  1  0.50965407  0.12701337  0.38227935  1
  S  S149  1  0.02582921  0.91899503  0.37698794  1
  S  S150  1  0.88276650  0.25266196  0.48459114  1
  S  S151  1  0.98409472  0.55766675  0.47775418  1
  S  S152  1  0.16980945  0.12161381  0.42406008  1
  S  S153  1  0.02878325  0.80102022  0.43897422  1
  S  S154  1  0.44280794  0.70573004  0.49949246  1
  S  S155  1  0.46046057  0.06251565  0.46487947  1
  S  S156  1  0.58777147  0.62737575  0.41892814  1
  S  S157  1  0.59855886  0.29359104  0.44047740  1
  S  S158  1  0.20251624  0.33964662  0.47659992  1
  S  S159  1  0.66877521  0.46357851  0.47837635  1
  S  S160  1  0.81206921  0.01529771  0.43452586  1
  S  S161  1  0.37515489  0.90427678  0.42427957  1
  S  S162  1  0.92375998  0.37228979  0.41091570  1
  S  S163  1  0.28578597  0.54189649  0.45056277  1
  S  S164  1  0.17748010  0.99619442  0.48454136  1
  S  S165  1  0.71025212  0.78176666  0.48283144  1
  S  S166  1  0.82344836  0.01266110  0.51156074  1
  S  S167  1  0.72634130  0.66278293  0.54464242  1
  S  S168  1  0.26421976  0.50116247  0.52163680  1
  S  S169  1  0.50323017  0.88148678  0.53784896  1
  S  S170  1  0.08683781  0.78982376  0.52960009  1
  S  S171  1  0.57576685  0.27566000  0.51211485  1
