# generated using pymatgen
data_Li14P4S17
_symmetry_space_group_name_H-M   'P 1'
_cell_length_a   8.10679100
_cell_length_b   14.48087000
_cell_length_c   45.15849200
_cell_angle_alpha   90.00000000
_cell_angle_beta   90.00000000
_cell_angle_gamma   90.00000000
_symmetry_Int_Tables_number   1
_chemical_formula_structural   Li14P4S17
_chemical_formula_sum   'Li56 P16 S68'
_cell_volume   5301.30830909
_cell_formula_units_Z   4
loop_
 _symmetry_equiv_pos_site_id
 _symmetry_equiv_pos_as_xyz
  1  'x, y, z'
loop_
 _atom_site_type_symbol
 _atom_site_label
 _atom_site_symmetry_multiplicity
 _atom_site_fract_x
 _atom_site_fract_y
 _atom_site_fract_z
 _atom_site_occupancy
  Li  Li0  1  0.99981702  0.67008109  0.08614536  1
  Li  Li1  1  0.01478230  0.01756437  0.10558197  1
  Li  Li2  1  0.96183650  0.61883930  0.02830419  1
  Li  Li3  1  0.03853252  0.17676807  0.05500096  1
  Li  Li4  1  0.55771979  0.19129670  0.06542823  1
  Li  Li5  1  0.39619945  0.61730408  0.04554760  1
  Li  Li6  1  0.43909280  0.99893234  0.10887948  1
  Li  Li7  1  0.51959789  0.73629718  0.09323438  1
  Li  Li8  1  0.92803070  0.94997965  0.04565337  1
  Li  Li9  1  0.93611381  0.42822422  0.04955375  1
  Li  Li10  1  0.37321184  0.44194090  0.06584628  1
  Li  Li11  1  0.50191146  0.95389633  0.04193373  1
  Li  Li12  1  0.95044523  0.51992670  0.20690197  1
  Li  Li13  1  0.03049344  0.82345653  0.22617566  1
  Li  Li14  1  0.08146203  0.47774970  0.10909299  1
  Li  Li15  1  0.97018020  0.05874302  0.18685955  1
  Li  Li16  1  0.54163614  0.05009734  0.18986321  1
  Li  Li17  1  0.53700959  0.46171943  0.13209356  1
  Li  Li18  1  0.45645483  0.82140314  0.23083108  1
  Li  Li19  1  0.51964226  0.51167170  0.22004983  1
  Li  Li20  1  0.04019345  0.76678588  0.15071040  1
  Li  Li21  1  0.00148495  0.27304846  0.15670250  1
  Li  Li22  1  0.45609288  0.24222345  0.16640213  1
  Li  Li23  1  0.55351343  0.75388063  0.16801978  1
  Li  Li24  1  0.95922987  0.32755925  0.33669762  1
  Li  Li25  1  0.02038217  0.63819257  0.34795451  1
  Li  Li26  1  0.03964811  0.29309589  0.25370830  1
  Li  Li27  1  0.97354179  0.86908238  0.31138347  1
  Li  Li28  1  0.53983696  0.85474514  0.31469348  1
  Li  Li29  1  0.47002348  0.27896487  0.25683955  1
  Li  Li30  1  0.45208361  0.63017866  0.36041836  1
  Li  Li31  1  0.53120878  0.32691566  0.34071935  1
  Li  Li32  1  0.04875613  0.57978571  0.27300637  1
  Li  Li33  1  0.94777656  0.09303210  0.27671126  1
  Li  Li34  1  0.44802551  0.05470004  0.29115727  1
  Li  Li35  1  0.55089696  0.56950606  0.29391375  1
  Li  Li36  1  0.93908674  0.15499051  0.45847608  1
  Li  Li37  1  0.02162307  0.41715812  0.47419860  1
  Li  Li38  1  0.04180868  0.10134755  0.37775199  1
  Li  Li39  1  0.03994403  0.69106189  0.43471539  1
  Li  Li40  1  0.58377956  0.67352748  0.45901043  1
  Li  Li41  1  0.46891431  0.09195558  0.38107372  1
  Li  Li42  1  0.50588974  0.48233308  0.48180692  1
  Li  Li43  1  0.51797214  0.13396195  0.46279018  1
  Li  Li44  1  0.05577017  0.39798486  0.39942623  1
  Li  Li45  1  0.95214808  0.91006618  0.40126012  1
  Li  Li46  1  0.50052382  0.87759753  0.41197747  1
  Li  Li47  1  0.54109489  0.38544567  0.41687665  1
  Li  Li48  1  0.06026785  0.96355844  0.50204124  1
  Li  Li49  1  0.89836776  0.53576768  0.52188450  1
  Li  Li50  1  0.46175565  0.53524907  0.53928590  1
  Li  Li51  1  0.54431091  0.97398766  0.51291592  1
  Li  Li52  1  0.01205305  0.19819238  0.52460482  1
  Li  Li53  1  0.87940702  0.71003610  0.50185720  1
  Li  Li54  1  0.43742681  0.72550261  0.51793528  1
  Li  Li55  1  0.43412554  0.20133034  0.52315758  1
  P  P56  1  0.22002241  0.82245035  0.06569815  1
  P  P57  1  0.74718855  0.55187670  0.07988438  1
  P  P58  1  0.26426308  0.24606675  0.10462258  1
  P  P59  1  0.25540375  0.61971754  0.18866615  1
  P  P60  1  0.75059030  0.89950791  0.13008839  1
  P  P61  1  0.75155102  0.27257637  0.21222047  1
  P  P62  1  0.24820416  0.06740785  0.23070801  1
  P  P63  1  0.25015390  0.43954929  0.31508924  1
  P  P64  1  0.75045253  0.71158721  0.25240062  1
  P  P65  1  0.74768340  0.08160392  0.33714990  1
  P  P66  1  0.25269285  0.87695320  0.35605379  1
  P  P67  1  0.25287121  0.25246287  0.43772860  1
  P  P68  1  0.75549959  0.53047734  0.37861081  1
  P  P69  1  0.76663697  0.90604474  0.46324733  1
  P  P70  1  0.24927104  0.60117695  0.48759382  1
  P  P71  1  0.72415205  0.32993690  0.50210289  1
  S  S72  1  0.42949622  0.78680038  0.04238730  1
  S  S73  1  0.62495361  0.09332895  0.02752891  1
  S  S74  1  0.50221715  0.57092261  0.09373195  1
  S  S75  1  0.46118922  0.16599952  0.11671626  1
  S  S76  1  0.03602873  0.18554507  0.10999058  1
  S  S77  1  0.14400768  0.53647877  0.05784581  1
  S  S78  1  0.88475248  0.08991874  0.02240703  1
  S  S79  1  0.00529563  0.78716186  0.04413987  1
  S  S80  1  0.75881128  0.75835358  0.12455147  1
  S  S81  1  0.22696427  0.96652545  0.06913011  1
  S  S82  1  0.70872332  0.52850369  0.03372974  1
  S  S83  1  0.23307451  0.76118254  0.10625516  1
  S  S84  1  0.72828171  0.97313467  0.09106093  1
  S  S85  1  0.28934660  0.27786643  0.06040667  1
  S  S86  1  0.48435597  0.58807705  0.17226596  1
  S  S87  1  0.54049241  0.92488960  0.15440305  1
  S  S88  1  0.53510299  0.34490852  0.20700329  1
  S  S89  1  0.45717335  0.99166381  0.23888703  1
  S  S90  1  0.03315360  0.99341373  0.23533973  1
  S  S91  1  0.96026469  0.34964298  0.20434997  1
  S  S92  1  0.96713877  0.93518010  0.15112698  1
  S  S93  1  0.06110784  0.59034202  0.16094201  1
  S  S94  1  0.75934996  0.56867865  0.24762657  1
  S  S95  1  0.25436385  0.76325733  0.19389344  1
  S  S96  1  0.26730149  0.35856540  0.13304467  1
  S  S97  1  0.74906262  0.17256836  0.17915314  1
  S  S98  1  0.22822757  0.54700455  0.22748373  1
  S  S99  1  0.74325073  0.78571556  0.21384078  1
  S  S100  1  0.80068349  0.42006973  0.09916242  1
  S  S101  1  0.25673345  0.11749493  0.18811530  1
  S  S102  1  0.46563544  0.40531197  0.29338047  1
  S  S103  1  0.53863210  0.73638414  0.27604090  1
  S  S104  1  0.53311277  0.15577621  0.33215329  1
  S  S105  1  0.46122350  0.80020515  0.36431253  1
  S  S106  1  0.03605681  0.80471331  0.36139364  1
  S  S107  1  0.95699781  0.15700420  0.32871784  1
  S  S108  1  0.96705656  0.74519231  0.27380643  1
  S  S109  1  0.03807314  0.41424464  0.29158851  1
  S  S110  1  0.75475180  0.38699642  0.37336609  1
  S  S111  1  0.25941771  0.58230963  0.31977048  1
  S  S112  1  0.24199046  0.16787192  0.26361758  1
  S  S113  1  0.74242926  0.97975722  0.30471708  1
  S  S114  1  0.24434751  0.36513124  0.35362791  1
  S  S115  1  0.72929070  0.60303530  0.33973978  1
  S  S116  1  0.75794508  0.22383388  0.25475987  1
  S  S117  1  0.25972483  0.92409895  0.31330640  1
  S  S118  1  0.46968862  0.21567015  0.41700492  1
  S  S119  1  0.56136377  0.56047085  0.40629327  1
  S  S120  1  0.53738981  0.96579407  0.45833154  1
  S  S121  1  0.64636457  0.61663573  0.50998662  1
  S  S122  1  0.00482279  0.58211708  0.47343695  1
  S  S123  1  0.96130306  0.98733097  0.45084356  1
  S  S124  1  0.98371265  0.56218252  0.39535687  1
  S  S125  1  0.04337153  0.22733199  0.41312551  1
  S  S126  1  0.73148271  0.18582291  0.49886121  1
  S  S127  1  0.26120800  0.39366792  0.44302707  1
  S  S128  1  0.24883293  0.97809007  0.38871601  1
  S  S129  1  0.76924558  0.79362075  0.43478145  1
  S  S130  1  0.22947213  0.17926969  0.47688024  1
  S  S131  1  0.73546542  0.39057003  0.46137343  1
  S  S132  1  0.75619957  0.03395008  0.38002665  1
  S  S133  1  0.30351118  0.73282660  0.46828726  1
  S  S134  1  0.39049642  0.06020300  0.54564357  1
  S  S135  1  0.50968079  0.36508264  0.52375954  1
  S  S136  1  0.93443331  0.36619840  0.52502849  1
  S  S137  1  0.13064924  0.05900374  0.54052095  1
  S  S138  1  0.20881965  0.62533211  0.53368085  1
  S  S139  1  0.79512455  0.87408755  0.50738875  1
