# generated using pymatgen
data_Li31P9S38
_symmetry_space_group_name_H-M   'P 1'
_cell_length_a   10.24241400
_cell_length_b   14.48086959
_cell_length_c   46.32433700
_cell_angle_alpha   90.00000000
_cell_angle_beta   90.00000000
_cell_angle_gamma   74.68014200
_symmetry_Int_Tables_number   1
_chemical_formula_structural   Li31P9S38
_chemical_formula_sum   'Li62 P18 S76'
_cell_volume   6626.63516060
_cell_formula_units_Z   2
loop_
 _symmetry_equiv_pos_site_id
 _symmetry_equiv_pos_as_xyz
  1  'x, y, z'
loop_
 _atom_site_type_symbol
 _atom_site_label
 _atom_site_symmetry_multiplicity
 _atom_site_fract_x
 _atom_site_fract_y
 _atom_site_fract_z
 _atom_site_occupancy
  Li  Li0  1  0.88314520  0.73602769  0.03756030  1
  Li  Li1  1  0.83543148  0.10460818  0.06289535  1
  Li  Li2  1  0.73203524  0.57031064  0.07723268  1
  Li  Li3  1  0.77954977  0.44085053  0.03344910  1
  Li  Li4  1  0.27579437  0.23079905  0.08190782  1
  Li  Li5  1  0.62156677  0.62665527  0.02545347  1
  Li  Li6  1  0.45430604  0.16629685  0.01454767  1
  Li  Li7  1  0.21657773  0.71208323  0.09680796  1
  Li  Li8  1  0.90573366  0.98023636  0.01320492  1
  Li  Li9  1  0.02156187  0.50073600  0.06330654  1
  Li  Li10  1  0.37312988  0.46641789  0.05960804  1
  Li  Li11  1  0.37052763  0.91333649  0.06313773  1
  Li  Li12  1  0.50621900  0.65293968  0.13866647  1
  Li  Li13  1  0.51301247  0.96396916  0.15658086  1
  Li  Li14  1  0.44051288  0.43969789  0.18264907  1
  Li  Li15  1  0.57762745  0.18567814  0.12059131  1
  Li  Li16  1  0.95523686  0.10302608  0.17754230  1
  Li  Li17  1  0.04862205  0.49935710  0.13176317  1
  Li  Li18  1  0.11245629  0.02846031  0.10239151  1
  Li  Li19  1  0.86837090  0.58446394  0.20015822  1
  Li  Li20  1  0.74523595  0.86083738  0.09629373  1
  Li  Li21  1  0.64400460  0.39692403  0.08843801  1
  Li  Li22  1  0.95611082  0.29830126  0.14991386  1
  Li  Li23  1  0.01598786  0.80008870  0.16123914  1
  Li  Li24  1  0.17512888  0.52929257  0.24253997  1
  Li  Li25  1  0.18445939  0.83651593  0.25956416  1
  Li  Li26  1  0.10596070  0.30845467  0.28162546  1
  Li  Li27  1  0.24512201  0.05627230  0.22169540  1
  Li  Li28  1  0.62694587  0.99035729  0.27697686  1
  Li  Li29  1  0.72770331  0.38791705  0.22399250  1
  Li  Li30  1  0.78977384  0.90944767  0.20553055  1
  Li  Li31  1  0.56058556  0.45552252  0.29808756  1
  Li  Li32  1  0.39255131  0.74315931  0.19825580  1
  Li  Li33  1  0.33338273  0.25703716  0.19571003  1
  Li  Li34  1  0.72142069  0.19216856  0.25085511  1
  Li  Li35  1  0.68454809  0.68038711  0.25957559  1
  Li  Li36  1  0.84512727  0.40303531  0.34580464  1
  Li  Li37  1  0.85275506  0.71484678  0.36246495  1
  Li  Li38  1  0.77773295  0.18151803  0.38215148  1
  Li  Li39  1  0.92097233  0.92519822  0.32029307  1
  Li  Li40  1  0.31195695  0.86727341  0.37136215  1
  Li  Li41  1  0.40358134  0.26449347  0.32342021  1
  Li  Li42  1  0.47904068  0.78900155  0.30376107  1
  Li  Li43  1  0.24650223  0.33730190  0.39990967  1
  Li  Li44  1  0.97914829  0.62274969  0.30374908  1
  Li  Li45  1  0.02806853  0.10562515  0.30975691  1
  Li  Li46  1  0.39955324  0.07069224  0.35192765  1
  Li  Li47  1  0.33887057  0.56720400  0.34097280  1
  Li  Li48  1  0.51999555  0.26274844  0.44032712  1
  Li  Li49  1  0.47842322  0.62913873  0.46391723  1
  Li  Li50  1  0.57801238  0.92548207  0.46914667  1
  Li  Li51  1  0.63075684  0.79667769  0.42557797  1
  Li  Li52  1  0.73738597  0.74105166  0.47778281  1
  Li  Li53  1  0.08503225  0.13594053  0.42062055  1
  Li  Li54  1  0.13987848  0.65778273  0.40532019  1
  Li  Li55  1  0.89461219  0.19753668  0.48705090  1
  Li  Li56  1  0.61306808  0.50678340  0.40575272  1
  Li  Li57  1  0.71653494  0.97185159  0.41489515  1
  Li  Li58  1  0.98711920  0.90045466  0.44375215  1
  Li  Li59  1  0.99300480  0.45152543  0.43936491  1
  Li  Li60  1  0.44863463  0.38983703  0.48901477  1
  Li  Li61  1  0.33889415  0.86481816  0.43896095  1
  P  P62  1  0.08901050  0.84365502  0.04866471  1
  P  P63  1  0.59320658  0.02012472  0.05328843  1
  P  P64  1  0.97898526  0.30592654  0.07938024  1
  P  P65  1  0.75142335  0.72030084  0.15160089  1
  P  P66  1  0.25506397  0.89895086  0.15021457  1
  P  P67  1  0.35355141  0.43553504  0.12131743  1
  P  P68  1  0.65468592  0.17967836  0.18330980  1
  P  P69  1  0.42994313  0.59466877  0.25207238  1
  P  P70  1  0.92849052  0.77298125  0.25147245  1
  P  P71  1  0.02804665  0.31301838  0.21812378  1
  P  P72  1  0.32626826  0.05511669  0.28413257  1
  P  P73  1  0.10265797  0.46692959  0.35226759  1
  P  P74  1  0.60539079  0.64645924  0.35049081  1
  P  P75  1  0.70618537  0.18763425  0.31946655  1
  P  P76  1  0.00545830  0.93164525  0.38172930  1
  P  P77  1  0.76255382  0.34791874  0.44905972  1
  P  P78  1  0.26759144  0.52524975  0.45322974  1
  P  P79  1  0.38133682  0.06017542  0.42303640  1
  S  S80  1  0.28978346  0.77583671  0.05294535  1
  S  S81  1  0.38662713  0.08560157  0.05175072  1
  S  S82  1  0.21500947  0.53778420  0.09693486  1
  S  S83  1  0.81995544  0.27362564  0.05880621  1
  S  S84  1  0.85135115  0.58587624  0.03338825  1
  S  S85  1  0.68084274  0.04179096  0.09170317  1
  S  S86  1  0.01549703  0.81961207  0.00906396  1
  S  S87  1  0.61844778  0.87783787  0.04750388  1
  S  S88  1  0.06146870  0.99278830  0.05215234  1
  S  S89  1  0.43738442  0.32174749  0.09333661  1
  S  S90  1  0.98919563  0.78945543  0.08065634  1
  S  S91  1  0.67999878  0.08546234  0.02062994  1
  S  S92  1  0.56202283  0.51156737  0.05126967  1
  S  S93  1  0.11044743  0.33302104  0.04942273  1
  S  S94  1  0.95228075  0.64848418  0.15708444  1
  S  S95  1  0.05053497  0.96162354  0.14810178  1
  S  S96  1  0.90288160  0.41094004  0.19107661  1
  S  S97  1  0.08142007  0.20382980  0.10814082  1
  S  S98  1  0.49527865  0.13602310  0.16640367  1
  S  S99  1  0.51509285  0.48113311  0.13541565  1
  S  S100  1  0.34454290  0.91793026  0.18877477  1
  S  S101  1  0.67415806  0.71005633  0.11130232  1
  S  S102  1  0.27306713  0.75252232  0.14711718  1
  S  S103  1  0.74776775  0.86397987  0.15581160  1
  S  S104  1  0.89193823  0.42680822  0.10465208  1
  S  S105  1  0.11506144  0.19551332  0.19210494  1
  S  S106  1  0.64323412  0.66734772  0.18177486  1
  S  S107  1  0.34895596  0.95546710  0.11822796  1
  S  S108  1  0.25057519  0.40116592  0.15554671  1
  S  S109  1  0.76778473  0.20736913  0.14942987  1
  S  S110  1  0.63279518  0.52488953  0.25517946  1
  S  S111  1  0.72491278  0.84019332  0.24974495  1
  S  S112  1  0.58580077  0.28406247  0.29170686  1
  S  S113  1  0.77914602  0.08072168  0.20998533  1
  S  S114  1  0.16493849  0.00909607  0.26922959  1
  S  S115  1  0.18836294  0.35653758  0.23460562  1
  S  S116  1  0.01897320  0.78427170  0.29040650  1
  S  S117  1  0.34433647  0.58212570  0.21275151  1
  S  S118  1  0.93883475  0.62708640  0.24812123  1
  S  S119  1  0.42184389  0.73971105  0.25546889  1
  S  S120  1  0.56739215  0.29613200  0.20964448  1
  S  S121  1  0.79740299  0.07067058  0.29359997  1
  S  S122  1  0.32719391  0.54164375  0.28316433  1
  S  S123  1  0.02693836  0.82659737  0.21990561  1
  S  S124  1  0.91605039  0.28583653  0.25217820  1
  S  S125  1  0.43216744  0.08604782  0.25012072  1
  S  S126  1  0.30724415  0.40424969  0.35406135  1
  S  S127  1  0.40407781  0.71817233  0.34595578  1
  S  S128  1  0.27839175  0.16238536  0.39433373  1
  S  S129  1  0.45700718  0.95917199  0.31095539  1
  S  S130  1  0.84351973  0.88653762  0.36770312  1
  S  S131  1  0.86427533  0.23137445  0.33710095  1
  S  S132  1  0.68675911  0.65823650  0.39021578  1
  S  S133  1  0.01197726  0.44961256  0.31373831  1
  S  S134  1  0.60957252  0.50281875  0.34690987  1
  S  S135  1  0.08520529  0.61358783  0.35538640  1
  S  S136  1  0.23996487  0.17192182  0.31083938  1
  S  S137  1  0.46950174  0.93946630  0.39793210  1
  S  S138  1  0.00927732  0.41042755  0.38429272  1
  S  S139  1  0.71152100  0.69969316  0.31957799  1
  S  S140  1  0.58943797  0.16093011  0.35276848  1
  S  S141  1  0.11002041  0.96475304  0.34753930  1
  S  S142  1  0.96828012  0.27980404  0.45100751  1
  S  S143  1  0.06697833  0.59281951  0.44887762  1
  S  S144  1  0.14391830  0.82942077  0.40606563  1
  S  S145  1  0.50878235  0.77957317  0.46877549  1
  S  S146  1  0.53893643  0.09347258  0.44390402  1
  S  S147  1  0.34126003  0.55027398  0.49270214  1
  S  S148  1  0.67360345  0.32562851  0.41090371  1
  S  S149  1  0.29319834  0.37599039  0.45015651  1
  S  S150  1  0.74117392  0.48998024  0.45434004  1
  S  S151  1  0.92205861  0.04576385  0.40952624  1
  S  S152  1  0.67304671  0.28538169  0.48204668  1
  S  S153  1  0.36811141  0.57794192  0.42107964  1
  S  S154  1  0.24977276  0.03277494  0.45292365  1
  S  S155  1  0.79728834  0.85703732  0.45225658  1
