# generated using pymatgen
data_Li20P6S25
_symmetry_space_group_name_H-M   'P 1'
_cell_length_a   10.24241400
_cell_length_b   18.09023381
_cell_length_c   43.41558100
_cell_angle_alpha   90.00000000
_cell_angle_beta   90.00000000
_cell_angle_gamma   64.97678698
_symmetry_Int_Tables_number   1
_chemical_formula_structural   Li20P6S25
_chemical_formula_sum   'Li80 P24 S100'
_cell_volume   7289.29864782
_cell_formula_units_Z   4
loop_
 _symmetry_equiv_pos_site_id
 _symmetry_equiv_pos_as_xyz
  1  'x, y, z'
loop_
 _atom_site_type_symbol
 _atom_site_label
 _atom_site_symmetry_multiplicity
 _atom_site_fract_x
 _atom_site_fract_y
 _atom_site_fract_z
 _atom_site_occupancy
  Li  Li0  1  0.00279775  0.64746252  0.03312132  1
  Li  Li1  1  0.10068102  0.15227350  0.06742461  1
  Li  Li2  1  0.86552865  0.50489252  0.01217876  1
  Li  Li3  1  0.80842239  0.30581094  0.08256759  1
  Li  Li4  1  0.32603736  0.34174682  0.04860557  1
  Li  Li5  1  0.61301207  0.63229129  0.02028895  1
  Li  Li6  1  0.40078261  0.09015666  0.05296449  1
  Li  Li7  1  0.74976372  0.77247771  0.02253061  1
  Li  Li8  1  0.88089666  0.91811198  0.03900016  1
  Li  Li9  1  0.74459402  0.48600638  0.07957993  1
  Li  Li10  1  0.50749974  0.44503117  0.04041944  1
  Li  Li11  1  0.33166082  0.81780368  0.08463996  1
  Li  Li12  1  0.59292642  0.55314639  0.14011685  1
  Li  Li13  1  0.78225818  0.96801729  0.10200066  1
  Li  Li14  1  0.60465863  0.33949835  0.16434039  1
  Li  Li15  1  0.53986152  0.99963048  0.16688322  1
  Li  Li16  1  0.20120270  0.07341033  0.13373587  1
  Li  Li17  1  0.07601256  0.48101874  0.10264639  1
  Li  Li18  1  0.09700666  0.88619641  0.13852785  1
  Li  Li19  1  0.26168654  0.61805238  0.10129021  1
  Li  Li20  1  0.74201539  0.75017627  0.10843644  1
  Li  Li21  1  0.55301751  0.18595057  0.15744228  1
  Li  Li22  1  0.20427666  0.27710713  0.12123074  1
  Li  Li23  1  0.08255012  0.64924668  0.17492818  1
  Li  Li24  1  0.36174009  0.36489882  0.23158093  1
  Li  Li25  1  0.53962596  0.78874199  0.18409885  1
  Li  Li26  1  0.37660504  0.15923615  0.25425951  1
  Li  Li27  1  0.30123287  0.81441556  0.25796716  1
  Li  Li28  1  0.96691272  0.88084081  0.22146324  1
  Li  Li29  1  0.94192704  0.25068985  0.20257970  1
  Li  Li30  1  0.85657507  0.70481343  0.22814531  1
  Li  Li31  1  0.01697173  0.44191606  0.19558201  1
  Li  Li32  1  0.50164230  0.57293508  0.20897164  1
  Li  Li33  1  0.30973851  0.00596401  0.24761845  1
  Li  Li34  1  0.90714978  0.06362368  0.21039943  1
  Li  Li35  1  0.85068840  0.46763382  0.26814869  1
  Li  Li36  1  0.12251977  0.18348315  0.32534311  1
  Li  Li37  1  0.30373000  0.60645859  0.27779311  1
  Li  Li38  1  0.14177880  0.97818453  0.34423043  1
  Li  Li39  1  0.05360465  0.63203025  0.35076892  1
  Li  Li40  1  0.72944621  0.70470536  0.30989787  1
  Li  Li41  1  0.70555413  0.06648880  0.29580861  1
  Li  Li42  1  0.63001396  0.52710768  0.32154857  1
  Li  Li43  1  0.79400144  0.25586448  0.28319561  1
  Li  Li44  1  0.24560534  0.39202793  0.30028747  1
  Li  Li45  1  0.07891116  0.81977997  0.34191903  1
  Li  Li46  1  0.66807181  0.88497525  0.30105787  1
  Li  Li47  1  0.58443058  0.31250438  0.33874796  1
  Li  Li48  1  0.88853211  0.99558917  0.41828377  1
  Li  Li49  1  0.06796742  0.42133143  0.37081292  1
  Li  Li50  1  0.89903499  0.78393859  0.43425523  1
  Li  Li51  1  0.81913111  0.44320482  0.44098460  1
  Li  Li52  1  0.48571348  0.53327273  0.40210895  1
  Li  Li53  1  0.46247903  0.90128944  0.38372245  1
  Li  Li54  1  0.41304595  0.34162443  0.40934339  1
  Li  Li55  1  0.56753218  0.08007548  0.37492074  1
  Li  Li56  1  0.92769286  0.21175127  0.39527545  1
  Li  Li57  1  0.88313934  0.59532042  0.44804121  1
  Li  Li58  1  0.52120122  0.71854349  0.39400240  1
  Li  Li59  1  0.34530995  0.13619061  0.42914611  1
  Li  Li60  1  0.65354330  0.81389045  0.50093005  1
  Li  Li61  1  0.83516368  0.23678178  0.46356788  1
  Li  Li62  1  0.65130273  0.42946742  0.54358856  1
  Li  Li63  1  0.53326099  0.29641787  0.59231812  1
  Li  Li64  1  0.26851846  0.34975407  0.49315441  1
  Li  Li65  1  0.22878311  0.71510781  0.47081735  1
  Li  Li66  1  0.16310508  0.16106671  0.50049482  1
  Li  Li67  1  0.33272971  0.89908675  0.46510911  1
  Li  Li68  1  0.68359787  0.03268728  0.49197814  1
  Li  Li69  1  0.64458469  0.28481842  0.52592220  1
  Li  Li70  1  0.27120755  0.53254535  0.48311430  1
  Li  Li71  1  0.10137745  0.95649609  0.51968949  1
  Li  Li72  1  0.35137572  0.63404127  0.53848447  1
  Li  Li73  1  0.41585159  0.14768830  0.56337237  1
  Li  Li74  1  0.79550048  0.17157908  0.58200043  1
  Li  Li75  1  0.06143054  0.47995415  0.55818778  1
  Li  Li76  1  0.66639406  0.02461234  0.57878494  1
  Li  Li77  1  0.04520617  0.70867470  0.55447642  1
  Li  Li78  1  0.55849000  0.86931700  0.56400162  1
  Li  Li79  1  0.93748640  0.32974411  0.56422047  1
  P  P80  1  0.08483784  0.76712595  0.06418852  1
  P  P81  1  0.53577597  0.92669298  0.08068760  1
  P  P82  1  0.07196841  0.31461296  0.04888631  1
  P  P83  1  0.83673937  0.59117579  0.15649567  1
  P  P84  1  0.29511586  0.73784429  0.17192836  1
  P  P85  1  0.47228524  0.38425173  0.10047774  1
  P  P86  1  0.88062975  0.12486156  0.14043151  1
  P  P87  1  0.60322089  0.41064713  0.24963061  1
  P  P88  1  0.05979925  0.55773020  0.26382321  1
  P  P89  1  0.25921228  0.20668652  0.19080481  1
  P  P90  1  0.64744884  0.94200167  0.23095907  1
  P  P91  1  0.37015560  0.22760161  0.33970952  1
  P  P92  1  0.82253100  0.37558561  0.35488813  1
  P  P93  1  0.01889430  0.02215451  0.28096086  1
  P  P94  1  0.41293342  0.76394919  0.32265696  1
  P  P95  1  0.13350775  0.04622609  0.43110170  1
  P  P96  1  0.59624458  0.19239606  0.44708770  1
  P  P97  1  0.77756099  0.84345981  0.37127118  1
  P  P98  1  0.17299860  0.57782579  0.41332819  1
  P  P99  1  0.89261545  0.86269930  0.52190147  1
  P  P100  1  0.34649936  0.01511548  0.53814218  1
  P  P101  1  0.54786876  0.65934395  0.46356279  1
  P  P102  1  0.94482725  0.39560332  0.50436948  1
  P  P103  1  0.33544194  0.47985303  0.55665512  1
  S  S104  1  0.30273542  0.70352006  0.06213467  1
  S  S105  1  0.31750228  0.00243534  0.08272726  1
  S  S106  1  0.30099875  0.48057397  0.07959061  1
  S  S107  1  0.26963241  0.22735540  0.06648584  1
  S  S108  1  0.95135877  0.25794559  0.03370942  1
  S  S109  1  0.81864814  0.64329780  0.00704308  1
  S  S110  1  0.99493535  0.78599027  0.02077975  1
  S  S111  1  0.56412836  0.81606390  0.06294996  1
  S  S112  1  0.03636846  0.88362232  0.08309456  1
  S  S113  1  0.98593252  0.37844981  0.08980590  1
  S  S114  1  0.57094019  0.30762910  0.06438996  1
  S  S115  1  0.63003461  0.98537399  0.05303673  1
  S  S116  1  0.65361995  0.50317445  0.03176057  1
  S  S117  1  0.11385407  0.38361153  0.01723177  1
  S  S118  1  0.05753303  0.52698776  0.15545762  1
  S  S119  1  0.07496484  0.79236068  0.17632126  1
  S  S120  1  0.08853736  0.30640581  0.17354106  1
  S  S121  1  0.04261914  0.02168923  0.15894082  1
  S  S122  1  0.72746148  0.10599725  0.11660737  1
  S  S123  1  0.62693746  0.41687712  0.11933746  1
  S  S124  1  0.63574783  0.90360102  0.12290425  1
  S  S125  1  0.74899208  0.60609416  0.11287164  1
  S  S126  1  0.34307874  0.62072631  0.15601849  1
  S  S127  1  0.79684331  0.70722251  0.17224031  1
  S  S128  1  0.77860036  0.19726659  0.17848397  1
  S  S129  1  0.35592909  0.13501242  0.15222902  1
  S  S130  1  0.00550703  0.69772934  0.08874607  1
  S  S131  1  0.36012577  0.80729262  0.14365347  1
  S  S132  1  0.39704342  0.33720763  0.13536760  1
  S  S133  1  0.97669757  0.18488725  0.11557972  1
  S  S134  1  0.82375727  0.34880631  0.24620399  1
  S  S135  1  0.83906486  0.61077121  0.26709168  1
  S  S136  1  0.84475080  0.12008662  0.26321594  1
  S  S137  1  0.80374418  0.83959048  0.25066590  1
  S  S138  1  0.48768019  0.92276929  0.20836284  1
  S  S139  1  0.42097604  0.22977009  0.21020208  1
  S  S140  1  0.40612572  0.72316844  0.21267268  1
  S  S141  1  0.49841810  0.43308800  0.20803952  1
  S  S142  1  0.10945510  0.43965269  0.24813855  1
  S  S143  1  0.56390605  0.52558156  0.26675208  1
  S  S144  1  0.54507669  0.01752640  0.26799620  1
  S  S145  1  0.11394507  0.94873450  0.24276991  1
  S  S146  1  0.75842145  0.52588335  0.18345800  1
  S  S147  1  0.12401194  0.62730118  0.23586884  1
  S  S148  1  0.17898774  0.15326484  0.22267766  1
  S  S149  1  0.74180895  0.98873021  0.19952599  1
  S  S150  1  0.59075973  0.17174199  0.33590196  1
  S  S151  1  0.60178657  0.43508157  0.35881030  1
  S  S152  1  0.61440171  0.94612492  0.35289569  1
  S  S153  1  0.57696546  0.66275900  0.34152811  1
  S  S154  1  0.25453323  0.74086120  0.30133939  1
  S  S155  1  0.17751506  0.05030496  0.29916604  1
  S  S156  1  0.16674294  0.54237931  0.30509848  1
  S  S157  1  0.26140976  0.24775548  0.29853461  1
  S  S158  1  0.86361661  0.26005789  0.33757609  1
  S  S159  1  0.32529278  0.34457931  0.35611753  1
  S  S160  1  0.31324362  0.83921764  0.35979321  1
  S  S161  1  0.87486942  0.76896008  0.33361975  1
  S  S162  1  0.52942805  0.34214264  0.27637408  1
  S  S163  1  0.89375324  0.44421500  0.32793644  1
  S  S164  1  0.94375200  0.96966614  0.31410997  1
  S  S165  1  0.49983307  0.81237992  0.29014370  1
  S  S166  1  0.35401915  0.99301393  0.42718454  1
  S  S167  1  0.37570402  0.25598997  0.44935318  1
  S  S168  1  0.38919356  0.76341750  0.44452483  1
  S  S169  1  0.34089693  0.47688654  0.43126295  1
  S  S170  1  0.01008548  0.55556878  0.39405781  1
  S  S171  1  0.93956031  0.86413597  0.39179809  1
  S  S172  1  0.93008405  0.35336799  0.39605616  1
  S  S173  1  0.02397491  0.06083780  0.39013158  1
  S  S174  1  0.63121432  0.07765867  0.43032656  1
  S  S175  1  0.08444511  0.16391185  0.44667692  1
  S  S176  1  0.07586173  0.65067658  0.45191198  1
  S  S177  1  0.65073854  0.58559917  0.42596614  1
  S  S178  1  0.30209229  0.15923838  0.36727757  1
  S  S179  1  0.67074236  0.25901882  0.41985526  1
  S  S180  1  0.69110549  0.79436992  0.40349304  1
  S  S181  1  0.25202803  0.63228757  0.38228906  1
  S  S182  1  0.11451863  0.79485641  0.52091998  1
  S  S183  1  0.12802053  0.07428533  0.54037743  1
  S  S184  1  0.15210218  0.57367507  0.53701985  1
  S  S185  1  0.11711171  0.29511776  0.52238709  1
  S  S186  1  0.78451524  0.37033675  0.48537104  1
  S  S187  1  0.70194335  0.67651499  0.48775420  1
  S  S188  1  0.69789466  0.17038254  0.48914736  1
  S  S189  1  0.79739424  0.87961639  0.47926669  1
  S  S190  1  0.39986836  0.89713644  0.52055327  1
  S  S191  1  0.85337252  0.97523127  0.53905167  1
  S  S192  1  0.85205045  0.47136658  0.54138595  1
  S  S193  1  0.42575549  0.41177666  0.51687417  1
  S  S194  1  0.06950343  0.97622608  0.45912057  1
  S  S195  1  0.41943758  0.08431479  0.51179182  1
  S  S196  1  0.45032682  0.60216972  0.48942987  1
  S  S197  1  0.02779756  0.44448001  0.47122214  1
  S  S198  1  0.59165187  0.15680575  0.59148725  1
  S  S199  1  0.46052679  0.53028859  0.57527491  1
  S  S200  1  0.43631538  0.00217234  0.58141127  1
  S  S201  1  0.80679669  0.79917084  0.54929249  1
  S  S202  1  0.27722836  0.41530115  0.58745662  1
  S  S203  1  0.74443574  0.30329350  0.57135345  1
