# generated using pymatgen
data_Li20P6S25
_symmetry_space_group_name_H-M   'P 1'
_cell_length_a   10.24241400
_cell_length_b   18.09023381
_cell_length_c   43.41558100
_cell_angle_alpha   90.00000000
_cell_angle_beta   90.00000000
_cell_angle_gamma   64.97678698
_symmetry_Int_Tables_number   1
_chemical_formula_structural   Li20P6S25
_chemical_formula_sum   'Li80 P24 S100'
_cell_volume   7289.29864782
_cell_formula_units_Z   4
loop_
 _symmetry_equiv_pos_site_id
 _symmetry_equiv_pos_as_xyz
  1  'x, y, z'
loop_
 _atom_site_type_symbol
 _atom_site_label
 _atom_site_symmetry_multiplicity
 _atom_site_fract_x
 _atom_site_fract_y
 _atom_site_fract_z
 _atom_site_occupancy
  Li  Li0  1  0.02285004  0.65352399  0.03402897  1
  Li  Li1  1  0.09284678  0.16376888  0.05889063  1
  Li  Li2  1  0.90774216  0.50539966  0.00670678  1
  Li  Li3  1  0.78996092  0.36834985  0.05049474  1
  Li  Li4  1  0.38238166  0.31639568  0.03881293  1
  Li  Li5  1  0.64715891  0.63015661  0.01530487  1
  Li  Li6  1  0.39782864  0.08876406  0.04236456  1
  Li  Li7  1  0.77476875  0.77617968  0.01794046  1
  Li  Li8  1  0.88385932  0.93032243  0.03453015  1
  Li  Li9  1  0.78074942  0.50838124  0.07461231  1
  Li  Li10  1  0.49863670  0.47361260  0.03302971  1
  Li  Li11  1  0.34086814  0.84384709  0.07829627  1
  Li  Li12  1  0.60426607  0.56416650  0.13477291  1
  Li  Li13  1  0.78866638  0.98361685  0.09797622  1
  Li  Li14  1  0.62285206  0.35594543  0.15606489  1
  Li  Li15  1  0.54338125  0.01466673  0.16367258  1
  Li  Li16  1  0.21556902  0.08245002  0.12650219  1
  Li  Li17  1  0.16974158  0.45050950  0.10361211  1
  Li  Li18  1  0.10941649  0.90025825  0.13287224  1
  Li  Li19  1  0.27974501  0.63922424  0.09747342  1
  Li  Li20  1  0.75767983  0.76494990  0.10583895  1
  Li  Li21  1  0.55979648  0.20379040  0.14855937  1
  Li  Li22  1  0.17134610  0.26528826  0.11413975  1
  Li  Li23  1  0.09813275  0.66296182  0.16831535  1
  Li  Li24  1  0.37586079  0.37687901  0.22638405  1
  Li  Li25  1  0.55434183  0.80243222  0.17969059  1
  Li  Li26  1  0.39107827  0.16547385  0.24623004  1
  Li  Li27  1  0.30247515  0.81958698  0.25378495  1
  Li  Li28  1  0.98018301  0.89725934  0.21449023  1
  Li  Li29  1  0.95835091  0.26521806  0.19471664  1
  Li  Li30  1  0.87692261  0.71685713  0.22224421  1
  Li  Li31  1  0.03316425  0.45705048  0.18802330  1
  Li  Li32  1  0.51450523  0.58636645  0.20268665  1
  Li  Li33  1  0.36631951  0.97657846  0.25633283  1
  Li  Li34  1  0.92038913  0.08064761  0.20341790  1
  Li  Li35  1  0.85853683  0.48608998  0.25814778  1
  Li  Li36  1  0.14177761  0.19113906  0.31942512  1
  Li  Li37  1  0.32144464  0.61360978  0.27226666  1
  Li  Li38  1  0.14195395  0.98150635  0.33964013  1
  Li  Li39  1  0.06512188  0.63620073  0.34394372  1
  Li  Li40  1  0.73938370  0.72910550  0.30237216  1
  Li  Li41  1  0.71508724  0.09371051  0.28701951  1
  Li  Li42  1  0.65077626  0.54096108  0.31410206  1
  Li  Li43  1  0.81705645  0.27119949  0.27598503  1
  Li  Li44  1  0.19726222  0.40567705  0.29750234  1
  Li  Li45  1  0.13443271  0.78997254  0.35020575  1
  Li  Li46  1  0.77768534  0.91161555  0.29655658  1
  Li  Li47  1  0.59165193  0.32957852  0.32927112  1
  Li  Li48  1  0.90082849  0.00818812  0.41372867  1
  Li  Li49  1  0.08239619  0.43162767  0.36648264  1
  Li  Li50  1  0.90377329  0.79687036  0.43058662  1
  Li  Li51  1  0.83157317  0.45501987  0.43468675  1
  Li  Li52  1  0.50145656  0.54577833  0.39429532  1
  Li  Li53  1  0.47751790  0.91498638  0.37609731  1
  Li  Li54  1  0.42540475  0.35326423  0.40229889  1
  Li  Li55  1  0.58560118  0.09176102  0.36898117  1
  Li  Li56  1  0.93970725  0.22337363  0.38813511  1
  Li  Li57  1  0.89717533  0.60608214  0.44307653  1
  Li  Li58  1  0.54052142  0.73164129  0.38744587  1
  Li  Li59  1  0.35883124  0.14922197  0.42216201  1
  Li  Li60  1  0.66717846  0.82739290  0.49599663  1
  Li  Li61  1  0.85046002  0.24653033  0.45612303  1
  Li  Li62  1  0.66219995  0.44610579  0.54057573  1
  Li  Li63  1  0.54653943  0.30767865  0.58396321  1
  Li  Li64  1  0.28290741  0.36214579  0.48693477  1
  Li  Li65  1  0.24162295  0.72975868  0.46560194  1
  Li  Li66  1  0.17714956  0.17382665  0.49415726  1
  Li  Li67  1  0.34856782  0.91145391  0.45906743  1
  Li  Li68  1  0.69789360  0.04755204  0.48840793  1
  Li  Li69  1  0.67604699  0.30531226  0.51597710  1
  Li  Li70  1  0.29373484  0.54522420  0.47623597  1
  Li  Li71  1  0.11613484  0.97089832  0.51359083  1
  Li  Li72  1  0.35563676  0.64988793  0.53202431  1
  Li  Li73  1  0.43288475  0.15883611  0.55876763  1
  Li  Li74  1  0.80977439  0.18423059  0.57597211  1
  Li  Li75  1  0.07324537  0.49200732  0.55182897  1
  Li  Li76  1  0.68334945  0.03574643  0.57471040  1
  Li  Li77  1  0.05556422  0.71884888  0.54986647  1
  Li  Li78  1  0.56822249  0.88338176  0.55923141  1
  Li  Li79  1  0.95284385  0.34145543  0.55801901  1
  P  P80  1  0.09608358  0.78406523  0.05992377  1
  P  P81  1  0.55019768  0.93561042  0.07583135  1
  P  P82  1  0.10757853  0.31813193  0.04068696  1
  P  P83  1  0.84691863  0.60576776  0.15045720  1
  P  P84  1  0.30866598  0.75304453  0.16701664  1
  P  P85  1  0.49540806  0.40570737  0.09263381  1
  P  P86  1  0.89523376  0.13930152  0.13382449  1
  P  P87  1  0.62283264  0.42143492  0.24232865  1
  P  P88  1  0.07382788  0.56984505  0.25794197  1
  P  P89  1  0.27111250  0.22070835  0.18379529  1
  P  P90  1  0.66524511  0.95406527  0.22643236  1
  P  P91  1  0.38447284  0.23936253  0.33332182  1
  P  P92  1  0.84057022  0.38679383  0.34811624  1
  P  P93  1  0.03142130  0.03372891  0.27491064  1
  P  P94  1  0.42499489  0.77433010  0.31696612  1
  P  P95  1  0.14683699  0.05815370  0.42498828  1
  P  P96  1  0.60842257  0.20534766  0.44093823  1
  P  P97  1  0.79622501  0.85435042  0.36666661  1
  P  P98  1  0.18511243  0.59088573  0.40727005  1
  P  P99  1  0.90673868  0.87502583  0.51771921  1
  P  P100  1  0.35927852  0.02943943  0.53268905  1
  P  P101  1  0.56005748  0.67270890  0.45729552  1
  P  P102  1  0.95770831  0.40683873  0.49813081  1
  P  P103  1  0.34441746  0.49361993  0.55000826  1
  S  S104  1  0.31465879  0.72561643  0.05771428  1
  S  S105  1  0.32793445  0.00304071  0.07635817  1
  S  S106  1  0.32239660  0.50651828  0.07524863  1
  S  S107  1  0.29099704  0.22390584  0.06023910  1
  S  S108  1  0.98550036  0.26639102  0.02136985  1
  S  S109  1  0.85043530  0.64470917  0.00436893  1
  S  S110  1  0.00657191  0.79766376  0.01661409  1
  S  S111  1  0.59075888  0.82309402  0.05849145  1
  S  S112  1  0.04182204  0.90190355  0.07780228  1
  S  S113  1  0.01496311  0.38539361  0.08035432  1
  S  S114  1  0.58743997  0.33052764  0.05541146  1
  S  S115  1  0.02323732  0.71445079  0.08602390  1
  S  S116  1  0.63605116  0.99988815  0.04896295  1
  S  S117  1  0.69423841  0.49855682  0.02629207  1
  S  S118  1  0.16527595  0.38373558  0.01027864  1
  S  S119  1  0.06774376  0.54291452  0.14801995  1
  S  S120  1  0.08834803  0.80632614  0.17094449  1
  S  S121  1  0.10324797  0.32188710  0.16592787  1
  S  S122  1  0.05330370  0.03557225  0.15317555  1
  S  S123  1  0.74205988  0.12165068  0.10943083  1
  S  S124  1  0.65553135  0.43122527  0.11193064  1
  S  S125  1  0.64302563  0.91828260  0.11871016  1
  S  S126  1  0.74564873  0.62697421  0.10836510  1
  S  S127  1  0.35673025  0.63547715  0.15138372  1
  S  S128  1  0.81135809  0.72071162  0.16710962  1
  S  S129  1  0.79158960  0.21337660  0.17125121  1
  S  S130  1  0.36799248  0.14763650  0.14522388  1
  S  S131  1  0.77334466  0.53904690  0.17783184  1
  S  S132  1  0.37286543  0.82290161  0.13902179  1
  S  S133  1  0.41451347  0.35520611  0.12553928  1
  S  S134  1  0.99301299  0.19618678  0.10790107  1
  S  S135  1  0.84345446  0.36255690  0.23830962  1
  S  S136  1  0.85319617  0.62585652  0.26164935  1
  S  S137  1  0.86900166  0.13554009  0.25591989  1
  S  S138  1  0.82797944  0.85099640  0.24472865  1
  S  S139  1  0.50254251  0.93409619  0.20590485  1
  S  S140  1  0.43429049  0.24271517  0.20299467  1
  S  S141  1  0.41923620  0.73733822  0.20788465  1
  S  S142  1  0.51421197  0.44452249  0.20123334  1
  S  S143  1  0.11878421  0.45302502  0.24140855  1
  S  S144  1  0.58086016  0.53693734  0.25985794  1
  S  S145  1  0.56887203  0.02886577  0.26401052  1
  S  S146  1  0.13105795  0.95806958  0.23791903  1
  S  S147  1  0.55231663  0.35234622  0.26914035  1
  S  S148  1  0.14225490  0.63802998  0.23038239  1
  S  S149  1  0.19218988  0.16610297  0.21478747  1
  S  S150  1  0.75242047  0.00290568  0.19422301  1
  S  S151  1  0.60507488  0.18634785  0.33018202  1
  S  S152  1  0.61979734  0.44829709  0.35103305  1
  S  S153  1  0.63974295  0.95638921  0.34678280  1
  S  S154  1  0.59887070  0.67593451  0.33462578  1
  S  S155  1  0.26621575  0.74660027  0.29866385  1
  S  S156  1  0.18987214  0.05610866  0.29652317  1
  S  S157  1  0.18203199  0.54975954  0.29919792  1
  S  S158  1  0.27792832  0.25521405  0.29196449  1
  S  S159  1  0.88102045  0.27178386  0.33084703  1
  S  S160  1  0.33415644  0.35739536  0.34927411  1
  S  S161  1  0.33012653  0.84761996  0.35511759  1
  S  S162  1  0.89950241  0.77837718  0.32977238  1
  S  S163  1  0.31988327  0.16974427  0.36117101  1
  S  S164  1  0.91513861  0.45504732  0.32140899  1
  S  S165  1  0.94258577  0.98600760  0.30728101  1
  S  S166  1  0.50135162  0.82654022  0.28391625  1
  S  S167  1  0.36703287  0.00474787  0.42051868  1
  S  S168  1  0.38765932  0.26915609  0.44291183  1
  S  S169  1  0.40114610  0.77621368  0.43824402  1
  S  S170  1  0.35689557  0.49029556  0.42403543  1
  S  S171  1  0.02233009  0.56716891  0.38894356  1
  S  S172  1  0.95556146  0.87397902  0.38921932  1
  S  S173  1  0.94326689  0.36472463  0.38992402  1
  S  S174  1  0.03419563  0.07267593  0.38451255  1
  S  S175  1  0.64364775  0.09024088  0.42475077  1
  S  S176  1  0.09913418  0.17578196  0.44030880  1
  S  S177  1  0.09188815  0.66361811  0.44580821  1
  S  S178  1  0.66308422  0.59820340  0.41991689  1
  S  S179  1  0.08442719  0.98860068  0.45370742  1
  S  S180  1  0.68312990  0.27130354  0.41337091  1
  S  S181  1  0.70240745  0.80754636  0.39818835  1
  S  S182  1  0.26411209  0.64316538  0.37475721  1
  S  S183  1  0.12818283  0.80522014  0.51641921  1
  S  S184  1  0.14070021  0.08874707  0.53454853  1
  S  S185  1  0.16075230  0.58591949  0.53004744  1
  S  S186  1  0.13095647  0.30752271  0.51625576  1
  S  S187  1  0.79920626  0.38001929  0.47881769  1
  S  S188  1  0.71450985  0.69100165  0.48107136  1
  S  S189  1  0.70856940  0.18525184  0.48318363  1
  S  S190  1  0.81083477  0.89395041  0.47514622  1
  S  S191  1  0.41283648  0.91132273  0.51508929  1
  S  S192  1  0.87071675  0.98693388  0.53503737  1
  S  S193  1  0.86427907  0.48349882  0.53488672  1
  S  S194  1  0.43919665  0.42579688  0.51053279  1
  S  S195  1  0.81829327  0.81269984  0.54503635  1
  S  S196  1  0.43308216  0.09857526  0.50658499  1
  S  S197  1  0.46488934  0.61564547  0.48395247  1
  S  S198  1  0.03919483  0.45610307  0.46485258  1
  S  S199  1  0.60828808  0.16782161  0.58732548  1
  S  S200  1  0.46417695  0.54695096  0.56928292  1
  S  S201  1  0.44762176  0.01653831  0.57612380  1
  S  S202  1  0.28911162  0.42741978  0.58066614  1
  S  S203  1  0.75855661  0.31599946  0.56466740  1
