# generated using pymatgen
data_Li20P6S25
_symmetry_space_group_name_H-M   'P 1'
_cell_length_a   10.24241400
_cell_length_b   18.09023381
_cell_length_c   43.41558100
_cell_angle_alpha   90.00000000
_cell_angle_beta   90.00000000
_cell_angle_gamma   64.97678698
_symmetry_Int_Tables_number   1
_chemical_formula_structural   Li20P6S25
_chemical_formula_sum   'Li80 P24 S100'
_cell_volume   7289.29864782
_cell_formula_units_Z   4
loop_
 _symmetry_equiv_pos_site_id
 _symmetry_equiv_pos_as_xyz
  1  'x, y, z'
loop_
 _atom_site_type_symbol
 _atom_site_label
 _atom_site_symmetry_multiplicity
 _atom_site_fract_x
 _atom_site_fract_y
 _atom_site_fract_z
 _atom_site_occupancy
  Li  Li0  1  0.98415738  0.62968323  0.04364198  1
  Li  Li1  1  0.08268681  0.13782290  0.07058698  1
  Li  Li2  1  0.87251162  0.48325371  0.01832310  1
  Li  Li3  1  0.76460822  0.34116671  0.06372120  1
  Li  Li4  1  0.32811987  0.32245488  0.05607801  1
  Li  Li5  1  0.60825046  0.60396829  0.02735130  1
  Li  Li6  1  0.38469444  0.07679836  0.05597211  1
  Li  Li7  1  0.73461480  0.75492232  0.02804470  1
  Li  Li8  1  0.86604069  0.90220457  0.04387235  1
  Li  Li9  1  0.75011602  0.48465053  0.08669881  1
  Li  Li10  1  0.47577304  0.44270601  0.04513919  1
  Li  Li11  1  0.31660357  0.80665801  0.09031145  1
  Li  Li12  1  0.57306191  0.54298250  0.14632298  1
  Li  Li13  1  0.76602198  0.95807116  0.10657027  1
  Li  Li14  1  0.59941957  0.33242933  0.16928009  1
  Li  Li15  1  0.52351458  0.99098094  0.17216503  1
  Li  Li16  1  0.18690777  0.05948701  0.13772413  1
  Li  Li17  1  0.14180827  0.42336733  0.11834335  1
  Li  Li18  1  0.08160628  0.87671868  0.14389958  1
  Li  Li19  1  0.24548976  0.60868030  0.10837277  1
  Li  Li20  1  0.72541671  0.74211439  0.11439735  1
  Li  Li21  1  0.53316218  0.18090496  0.16021690  1
  Li  Li22  1  0.13162360  0.24316504  0.12666530  1
  Li  Li23  1  0.06541220  0.64039291  0.18114362  1
  Li  Li24  1  0.34598672  0.35531553  0.23628403  1
  Li  Li25  1  0.52478731  0.77944506  0.18994937  1
  Li  Li26  1  0.36420328  0.15009915  0.25920412  1
  Li  Li27  1  0.28486797  0.80702609  0.26365458  1
  Li  Li28  1  0.94970649  0.87369211  0.22675039  1
  Li  Li29  1  0.92611307  0.24148744  0.20835517  1
  Li  Li30  1  0.84231049  0.69561844  0.23431776  1
  Li  Li31  1  0.99901715  0.43562699  0.20109483  1
  Li  Li32  1  0.48405846  0.56425722  0.21451722  1
  Li  Li33  1  0.29267699  0.99838368  0.25281743  1
  Li  Li34  1  0.88989122  0.05613493  0.21563161  1
  Li  Li35  1  0.83557738  0.45757123  0.27410008  1
  Li  Li36  1  0.10731977  0.17353855  0.33024317  1
  Li  Li37  1  0.28699145  0.59671902  0.28390484  1
  Li  Li38  1  0.12722887  0.96756085  0.34953421  1
  Li  Li39  1  0.03800806  0.62163753  0.35629174  1
  Li  Li40  1  0.71375197  0.69468675  0.31540544  1
  Li  Li41  1  0.68939357  0.05720399  0.30022217  1
  Li  Li42  1  0.61173184  0.51705216  0.32726731  1
  Li  Li43  1  0.77671245  0.24647013  0.28853267  1
  Li  Li44  1  0.23226417  0.38144980  0.30530639  1
  Li  Li45  1  0.06421096  0.80984137  0.34726488  1
  Li  Li46  1  0.65269962  0.87545084  0.30649209  1
  Li  Li47  1  0.56723223  0.30209002  0.34400511  1
  Li  Li48  1  0.87363413  0.98481887  0.42398526  1
  Li  Li49  1  0.05172421  0.41062355  0.37611492  1
  Li  Li50  1  0.88347898  0.77314985  0.43996072  1
  Li  Li51  1  0.80418398  0.43104144  0.44639253  1
  Li  Li52  1  0.46827624  0.52269522  0.40780810  1
  Li  Li53  1  0.44845361  0.89036669  0.38918392  1
  Li  Li54  1  0.39658731  0.33031441  0.41472200  1
  Li  Li55  1  0.55276917  0.07028566  0.38056987  1
  Li  Li56  1  0.91536847  0.20067086  0.40003306  1
  Li  Li57  1  0.86666930  0.58368861  0.45387945  1
  Li  Li58  1  0.50572898  0.70772455  0.39979867  1
  Li  Li59  1  0.33251527  0.12486248  0.43460932  1
  Li  Li60  1  0.63808262  0.80404042  0.50600294  1
  Li  Li61  1  0.82316755  0.22334388  0.46809087  1
  Li  Li62  1  0.63801332  0.42065177  0.55386581  1
  Li  Li63  1  0.52141382  0.28007497  0.59590508  1
  Li  Li64  1  0.25603009  0.33759696  0.49957631  1
  Li  Li65  1  0.21277738  0.70493432  0.47671023  1
  Li  Li66  1  0.14934139  0.14902153  0.50567768  1
  Li  Li67  1  0.31801215  0.88763068  0.47069145  1
  Li  Li68  1  0.67093283  0.02289577  0.49799179  1
  Li  Li69  1  0.65002338  0.28203366  0.52784229  1
  Li  Li70  1  0.25822524  0.52116766  0.48857565  1
  Li  Li71  1  0.08685722  0.94459239  0.52523580  1
  Li  Li72  1  0.33385298  0.62355179  0.54406731  1
  Li  Li73  1  0.40551252  0.13367831  0.56995266  1
  Li  Li74  1  0.78269065  0.15675777  0.58636702  1
  Li  Li75  1  0.04509774  0.47040138  0.56402489  1
  Li  Li76  1  0.65345925  0.00979773  0.58542850  1
  Li  Li77  1  0.02891985  0.69756541  0.56027899  1
  Li  Li78  1  0.54189131  0.85828617  0.56956015  1
  Li  Li79  1  0.92917668  0.31494995  0.57042464  1
  P  P80  1  0.06947668  0.75444579  0.07020904  1
  P  P81  1  0.52043773  0.91504056  0.08530334  1
  P  P82  1  0.07760894  0.29880849  0.05320491  1
  P  P83  1  0.81681909  0.58333126  0.16233618  1
  P  P84  1  0.27815753  0.72929470  0.17797792  1
  P  P85  1  0.47246426  0.37690320  0.10562205  1
  P  P86  1  0.86958296  0.11425990  0.14548055  1
  P  P87  1  0.58697952  0.40114724  0.25499641  1
  P  P88  1  0.04432508  0.54814209  0.26960831  1
  P  P89  1  0.24353174  0.19695597  0.19588025  1
  P  P90  1  0.63107245  0.93305949  0.23621142  1
  P  P91  1  0.35523091  0.21710937  0.34487475  1
  P  P92  1  0.80590710  0.36505187  0.36032705  1
  P  P93  1  0.00293439  0.01302178  0.28622199  1
  P  P94  1  0.39813517  0.75377296  0.32826922  1
  P  P95  1  0.12005288  0.03500695  0.43642661  1
  P  P96  1  0.58118699  0.18211593  0.45271408  1
  P  P97  1  0.76268227  0.83297483  0.37674198  1
  P  P98  1  0.15648856  0.56707496  0.41893601  1
  P  P99  1  0.87703115  0.85188225  0.52771293  1
  P  P100  1  0.33065971  0.00427788  0.54374949  1
  P  P101  1  0.53162420  0.64864058  0.46917037  1
  P  P102  1  0.93028299  0.38253870  0.51029220  1
  P  P103  1  0.31949549  0.46876186  0.56228844  1
  S  S104  1  0.28805835  0.69176743  0.06835439  1
  S  S105  1  0.30187094  0.99025362  0.08688319  1
  S  S106  1  0.29437911  0.47244254  0.08627324  1
  S  S107  1  0.26491854  0.21079079  0.07343139  1
  S  S108  1  0.96307010  0.24207538  0.03428491  1
  S  S109  1  0.80594965  0.62345777  0.01529079  1
  S  S110  1  0.98022694  0.76854987  0.02688562  1
  S  S111  1  0.54933109  0.80372962  0.06827405  1
  S  S112  1  0.02182131  0.87206850  0.08774722  1
  S  S113  1  0.56553041  0.29992620  0.06914062  1
  S  S114  1  0.61531377  0.97282464  0.05740509  1
  S  S115  1  0.66540174  0.47145743  0.03872617  1
  S  S116  1  0.12624177  0.36739724  0.02235504  1
  S  S117  1  0.03791145  0.51989498  0.16076238  1
  S  S118  1  0.05810861  0.78429843  0.18220120  1
  S  S119  1  0.07179961  0.29781567  0.17913713  1
  S  S120  1  0.02931350  0.01138575  0.16471005  1
  S  S121  1  0.71546449  0.09465231  0.12216666  1
  S  S122  1  0.62545782  0.40864154  0.12458442  1
  S  S123  1  0.61833885  0.89444741  0.12773022  1
  S  S124  1  0.71765160  0.60383288  0.11995031  1
  S  S125  1  0.32487264  0.61179005  0.16263252  1
  S  S126  1  0.78148104  0.69811889  0.17883372  1
  S  S127  1  0.98218063  0.36508947  0.09306565  1
  S  S128  1  0.33639537  0.12489517  0.15720842  1
  S  S129  1  0.99114409  0.68745030  0.09630906  1
  S  S130  1  0.34397765  0.79766699  0.14932886  1
  S  S131  1  0.39102359  0.32965870  0.13962189  1
  S  S132  1  0.96264547  0.17166608  0.11839888  1
  S  S133  1  0.80761320  0.33924827  0.25183051  1
  S  S134  1  0.82364475  0.60075937  0.27276880  1
  S  S135  1  0.82913332  0.11126694  0.26845289  1
  S  S136  1  0.78823190  0.83103257  0.25600513  1
  S  S137  1  0.47119511  0.91392922  0.21365002  1
  S  S138  1  0.40679635  0.21982095  0.21443974  1
  S  S139  1  0.38948231  0.71486442  0.21862181  1
  S  S140  1  0.48366890  0.42332521  0.21324236  1
  S  S141  1  0.09434181  0.43030462  0.25355457  1
  S  S142  1  0.54713233  0.51588595  0.27233286  1
  S  S143  1  0.76655668  0.18865635  0.18298615  1
  S  S144  1  0.09767061  0.94008762  0.24795874  1
  S  S145  1  0.74139868  0.51683218  0.18937740  1
  S  S146  1  0.10892914  0.61811701  0.24196144  1
  S  S147  1  0.16354256  0.14480753  0.22828686  1
  S  S148  1  0.72443393  0.98052050  0.20486126  1
  S  S149  1  0.57563412  0.16119375  0.34097324  1
  S  S150  1  0.58528823  0.42423490  0.36446726  1
  S  S151  1  0.59953719  0.93591756  0.35849106  1
  S  S152  1  0.56149105  0.65239858  0.34720210  1
  S  S153  1  0.23945077  0.73130226  0.30680235  1
  S  S154  1  0.16199971  0.04059626  0.30445276  1
  S  S155  1  0.15096917  0.53192584  0.31098079  1
  S  S156  1  0.24674420  0.23738776  0.30362943  1
  S  S157  1  0.84769835  0.24967174  0.34282961  1
  S  S158  1  0.30958650  0.33400017  0.36141817  1
  S  S159  1  0.52826717  0.00840786  0.27329658  1
  S  S160  1  0.85990262  0.75871400  0.33904229  1
  S  S161  1  0.51273332  0.33232417  0.28151188  1
  S  S162  1  0.87622402  0.43431030  0.33351362  1
  S  S163  1  0.92735069  0.96052640  0.31924822  1
  S  S164  1  0.48547702  0.80211067  0.29581844  1
  S  S165  1  0.34050097  0.98152658  0.43272343  1
  S  S166  1  0.36045299  0.24535076  0.45504787  1
  S  S167  1  0.37294549  0.75250540  0.45004313  1
  S  S168  1  0.32452047  0.46575422  0.43665002  1
  S  S169  1  0.99373594  0.54483694  0.39961328  1
  S  S170  1  0.92455826  0.85345365  0.39741101  1
  S  S171  1  0.91485141  0.34234166  0.40137551  1
  S  S172  1  0.01003847  0.04956402  0.39554403  1
  S  S173  1  0.61652260  0.06714025  0.43609796  1
  S  S174  1  0.07163814  0.15275894  0.45178109  1
  S  S175  1  0.29813183  0.82922403  0.36531304  1
  S  S176  1  0.63457401  0.57454191  0.43166541  1
  S  S177  1  0.28705234  0.14880267  0.37243853  1
  S  S178  1  0.65548426  0.24819602  0.42514104  1
  S  S179  1  0.67648876  0.78349566  0.40889842  1
  S  S180  1  0.23529075  0.62200592  0.38801314  1
  S  S181  1  0.09911697  0.78381217  0.52691442  1
  S  S182  1  0.11207815  0.06322571  0.54558149  1
  S  S183  1  0.13591601  0.56261471  0.54262643  1
  S  S184  1  0.10332532  0.28218898  0.52800512  1
  S  S185  1  0.77093761  0.35661200  0.49090009  1
  S  S186  1  0.68549868  0.66639537  0.49322539  1
  S  S187  1  0.68172316  0.16141471  0.49488557  1
  S  S188  1  0.78303929  0.86941651  0.48494089  1
  S  S189  1  0.38451122  0.88633387  0.52597897  1
  S  S190  1  0.83790280  0.96421287  0.54504623  1
  S  S191  1  0.06004250  0.63952301  0.45762801  1
  S  S192  1  0.41284877  0.40206714  0.52260104  1
  S  S193  1  0.05507415  0.96562227  0.46457247  1
  S  S194  1  0.40498504  0.07347916  0.51781497  1
  S  S195  1  0.43466526  0.59149473  0.49519758  1
  S  S196  1  0.01159265  0.43242045  0.47724187  1
  S  S197  1  0.58168655  0.14094905  0.59883118  1
  S  S198  1  0.43948632  0.52148674  0.58191791  1
  S  S199  1  0.41897666  0.99081192  0.58718881  1
  S  S200  1  0.83842015  0.45816973  0.54744308  1
  S  S201  1  0.79042039  0.78844278  0.55488064  1
  S  S202  1  0.26246146  0.40244911  0.59250549  1
  S  S203  1  0.73391270  0.28927556  0.57674351  1
