# generated using pymatgen
data_Li3PS4
_symmetry_space_group_name_H-M   'P 1'
_cell_length_a   6.25995100
_cell_length_b   20.81799400
_cell_length_c   50.84910000
_cell_angle_alpha   90.00000000
_cell_angle_beta   90.00000000
_cell_angle_gamma   90.00000000
_symmetry_Int_Tables_number   1
_chemical_formula_structural   Li3PS4
_chemical_formula_sum   'Li60 P20 S80'
_cell_volume   6626.63550926
_cell_formula_units_Z   20
loop_
 _symmetry_equiv_pos_site_id
 _symmetry_equiv_pos_as_xyz
  1  'x, y, z'
loop_
 _atom_site_type_symbol
 _atom_site_label
 _atom_site_symmetry_multiplicity
 _atom_site_fract_x
 _atom_site_fract_y
 _atom_site_fract_z
 _atom_site_occupancy
  Li  Li0  1  0.87610341  0.70920587  0.11102635  1
  Li  Li1  1  0.07646403  0.29192113  0.13622876  1
  Li  Li2  1  0.06137119  0.60397844  0.04167104  1
  Li  Li3  1  0.41347078  0.11249348  0.04573069  1
  Li  Li4  1  0.37417213  0.79013054  0.14073652  1
  Li  Li5  1  0.56839729  0.21009342  0.11087855  1
  Li  Li6  1  0.61162267  0.37499735  0.05921332  1
  Li  Li7  1  0.62462012  0.07344118  0.15548812  1
  Li  Li8  1  0.41500369  0.61602429  0.19638544  1
  Li  Li9  1  0.41815404  0.92204172  0.09680601  1
  Li  Li10  1  0.13448100  0.42218025  0.09304021  1
  Li  Li11  1  0.12299657  0.12263451  0.19569003  1
  Li  Li12  1  0.92230529  0.57839738  0.15617147  1
  Li  Li13  1  0.95943911  0.89365255  0.06268133  1
  Li  Li14  1  0.43128915  0.32838121  0.17835301  1
  Li  Li15  1  0.43809462  0.62527722  0.08191607  1
  Li  Li16  1  0.93451852  0.17248177  0.06684952  1
  Li  Li17  1  0.93381172  0.86560233  0.17240823  1
  Li  Li18  1  0.06932931  0.02122104  0.11872374  1
  Li  Li19  1  0.57070286  0.48423677  0.13305247  1
  Li  Li20  1  0.56407421  0.76944625  0.03890803  1
  Li  Li21  1  0.88209020  0.10160309  0.31323210  1
  Li  Li22  1  0.87764483  0.40284145  0.21142734  1
  Li  Li23  1  0.12601464  0.68431410  0.34120036  1
  Li  Li24  1  0.09744047  0.98819246  0.23876833  1
  Li  Li25  1  0.40491191  0.48809742  0.23868433  1
  Li  Li26  1  0.40861880  0.18513735  0.33902385  1
  Li  Li27  1  0.58412455  0.90172126  0.21389733  1
  Li  Li28  1  0.62265834  0.60156584  0.31239782  1
  Li  Li29  1  0.61972077  0.76943131  0.25617775  1
  Li  Li30  1  0.58016884  0.47299085  0.35637497  1
  Li  Li31  1  0.37402749  0.01483060  0.39730223  1
  Li  Li32  1  0.37190013  0.31956878  0.29655059  1
  Li  Li33  1  0.10152217  0.81403442  0.29598024  1
  Li  Li34  1  0.08227369  0.50997436  0.39716283  1
  Li  Li35  1  0.87694290  0.96501168  0.35754490  1
  Li  Li36  1  0.90433712  0.27497425  0.25645616  1
  Li  Li37  1  0.56872505  0.75857085  0.37442435  1
  Li  Li38  1  0.46636962  0.03620124  0.27775255  1
  Li  Li39  1  0.04618763  0.53193577  0.27852181  1
  Li  Li40  1  0.06476913  0.22207712  0.38103900  1
  Li  Li41  1  0.05163243  0.70355592  0.22137944  1
  Li  Li42  1  0.93344668  0.38175869  0.33260240  1
  Li  Li43  1  0.45520130  0.89894489  0.32261151  1
  Li  Li44  1  0.56060640  0.18602327  0.23177178  1
  Li  Li45  1  0.94003828  0.48586933  0.51142217  1
  Li  Li46  1  0.92006296  0.79591656  0.41659188  1
  Li  Li47  1  0.12488197  0.37901522  0.44258450  1
  Li  Li48  1  0.42926634  0.87811102  0.44203388  1
  Li  Li49  1  0.62519640  0.29728070  0.41229984  1
  Li  Li50  1  0.59323253  0.97573884  0.50670540  1
  Li  Li51  1  0.57941822  0.16581228  0.45632704  1
  Li  Li52  1  0.38379452  0.71296596  0.49310800  1
  Li  Li53  1  0.03679496  0.19441672  0.49037206  1
  Li  Li54  1  0.86482269  0.66568452  0.45973732  1
  Li  Li55  1  0.56606833  0.46243543  0.47112237  1
  Li  Li56  1  0.06744749  0.91485608  0.48602852  1
  Li  Li57  1  0.93036121  0.06741071  0.43400319  1
  Li  Li58  1  0.43504393  0.31963588  0.51459602  1
  Li  Li59  1  0.43380549  0.60419368  0.41951543  1
  P  P60  1  0.16242601  0.45765152  0.16828625  1
  P  P61  1  0.16851198  0.76299941  0.06637075  1
  P  P62  1  0.84170309  0.54051453  0.08280833  1
  P  P63  1  0.83770857  0.23563962  0.18252729  1
  P  P64  1  0.65844928  0.73580291  0.18294007  1
  P  P65  1  0.66183636  0.04121846  0.08346127  1
  P  P66  1  0.32202508  0.26399503  0.06420704  1
  P  P67  1  0.34194846  0.95804390  0.16881656  1
  P  P68  1  0.16155420  0.85152765  0.37018429  1
  P  P69  1  0.15608776  0.15592402  0.26897256  1
  P  P70  1  0.84033017  0.93297062  0.28398474  1
  P  P71  1  0.84100984  0.63003450  0.38446034  1
  P  P72  1  0.65495069  0.13022920  0.38410305  1
  P  P73  1  0.65421766  0.43319417  0.28361175  1
  P  P74  1  0.35206159  0.65481798  0.26910616  1
  P  P75  1  0.33834218  0.35205818  0.37007714  1
  P  P76  1  0.16127242  0.54774741  0.47000520  1
  P  P77  1  0.83062225  0.32534761  0.48671969  1
  P  P78  1  0.67704861  0.82372445  0.48857463  1
  P  P79  1  0.33671283  0.04630103  0.46944585  1
  S  S80  1  0.29737600  0.54545327  0.15996572  1
  S  S81  1  0.31884328  0.84957695  0.05850225  1
  S  S82  1  0.74638632  0.44898703  0.09251010  1
  S  S83  1  0.73646196  0.14425173  0.19178086  1
  S  S84  1  0.79149143  0.64805409  0.19137088  1
  S  S85  1  0.78825554  0.95402334  0.09553062  1
  S  S86  1  0.23646382  0.35707773  0.05581066  1
  S  S87  1  0.23861561  0.04961819  0.16028363  1
  S  S88  1  0.19189149  0.22770793  0.09878867  1
  S  S89  1  0.76019040  0.77648080  0.14802258  1
  S  S90  1  0.77520968  0.07146537  0.04809249  1
  S  S91  1  0.69936273  0.57672344  0.04979932  1
  S  S92  1  0.70156276  0.27439556  0.14939860  1
  S  S93  1  0.26588775  0.72191799  0.10109004  1
  S  S94  1  0.73917278  0.59836063  0.11389420  1
  S  S95  1  0.26988324  0.39686322  0.13863032  1
  S  S96  1  0.24958628  0.70426598  0.03536879  1
  S  S97  1  0.21780525  0.20553865  0.03461096  1
  S  S98  1  0.23115897  0.90028235  0.13824212  1
  S  S99  1  0.76188267  0.10520612  0.11217627  1
  S  S100  1  0.83727612  0.46781820  0.17117219  1
  S  S101  1  0.84637618  0.78179688  0.07029659  1
  S  S102  1  0.16714870  0.53650609  0.07713537  1
  S  S103  1  0.16241331  0.23217223  0.17785992  1
  S  S104  1  0.33332345  0.72653090  0.18091776  1
  S  S105  1  0.33492861  0.03131267  0.08006765  1
  S  S106  1  0.65136677  0.26401019  0.06920465  1
  S  S107  1  0.66652118  0.96244859  0.17336392  1
  S  S108  1  0.26292175  0.94297830  0.36107056  1
  S  S109  1  0.28239080  0.24422348  0.26020573  1
  S  S110  1  0.72355971  0.84338712  0.29268280  1
  S  S111  1  0.70675229  0.54214070  0.39279936  1
  S  S112  1  0.75932639  0.03866747  0.39256547  1
  S  S113  1  0.75784190  0.34148127  0.29231359  1
  S  S114  1  0.23540308  0.74536372  0.26052989  1
  S  S115  1  0.20397438  0.43948420  0.36150809  1
  S  S116  1  0.23554545  0.61609239  0.30357888  1
  S  S117  1  0.20811192  0.91870190  0.20206414  1
  S  S118  1  0.78645349  0.17027527  0.35095255  1
  S  S119  1  0.78405043  0.47124734  0.24996264  1
  S  S120  1  0.72104237  0.97174469  0.24980620  1
  S  S121  1  0.73872202  0.67018055  0.34971203  1
  S  S122  1  0.26547321  0.41765225  0.20309660  1
  S  S123  1  0.26453775  0.11645819  0.30368535  1
  S  S124  1  0.72277946  0.99218793  0.31384849  1
  S  S125  1  0.72722964  0.29303319  0.21336328  1
  S  S126  1  0.27378686  0.79443682  0.33934704  1
  S  S127  1  0.27232928  0.09512333  0.23958874  1
  S  S128  1  0.23464127  0.59582867  0.23914811  1
  S  S129  1  0.22607215  0.29076283  0.34085226  1
  S  S130  1  0.77106054  0.79702144  0.21219418  1
  S  S131  1  0.76971652  0.49050502  0.31412574  1
  S  S132  1  0.83636853  0.85496335  0.37467512  1
  S  S133  1  0.83023077  0.16259107  0.27155467  1
  S  S134  1  0.16749484  0.92829660  0.28099890  1
  S  S135  1  0.16623432  0.62015269  0.38175796  1
  S  S136  1  0.33005456  0.12543209  0.37989122  1
  S  S137  1  0.32855256  0.43022553  0.28018531  1
  S  S138  1  0.67583824  0.65936143  0.27112941  1
  S  S139  1  0.66347202  0.36199161  0.37226129  1
  S  S140  1  0.25397958  0.63921694  0.45988825  1
  S  S141  1  0.67817549  0.23926498  0.49474005  1
  S  S142  1  0.76023302  0.73044337  0.49689890  1
  S  S143  1  0.20918883  0.13369339  0.45776546  1
  S  S144  1  0.22794763  0.01534952  0.50489204  1
  S  S145  1  0.23831383  0.31160739  0.40514297  1
  S  S146  1  0.80710655  0.86018479  0.45401824  1
  S  S147  1  0.73556404  0.36586613  0.45179470  1
  S  S148  1  0.29595648  0.81275741  0.40339875  1
  S  S149  1  0.30319243  0.51243883  0.50319606  1
  S  S150  1  0.74929625  0.38510829  0.51737725  1
  S  S151  1  0.73104037  0.69077832  0.41403306  1
  S  S152  1  0.26549347  0.48934925  0.43920476  1
  S  S153  1  0.23564889  0.98286248  0.44058891  1
  S  S154  1  0.76698278  0.18748017  0.41481450  1
  S  S155  1  0.78251214  0.88188226  0.51819161  1
  S  S156  1  0.83537135  0.55148628  0.47551731  1
  S  S157  1  0.15275949  0.30607313  0.48316073  1
  S  S158  1  0.34754494  0.82402517  0.48357857  1
  S  S159  1  0.66407050  0.05669154  0.47241168  1
