# generated using pymatgen
data_Li3PS4
_symmetry_space_group_name_H-M   'P 1'
_cell_length_a   13.05789500
_cell_length_b   10.24241400
_cell_length_c   49.54702600
_cell_angle_alpha   90.00000000
_cell_angle_beta   90.00000000
_cell_angle_gamma   90.00000000
_symmetry_Int_Tables_number   1
_chemical_formula_structural   Li3PS4
_chemical_formula_sum   'Li60 P20 S80'
_cell_volume   6626.63560723
_cell_formula_units_Z   20
loop_
 _symmetry_equiv_pos_site_id
 _symmetry_equiv_pos_as_xyz
  1  'x, y, z'
loop_
 _atom_site_type_symbol
 _atom_site_label
 _atom_site_symmetry_multiplicity
 _atom_site_fract_x
 _atom_site_fract_y
 _atom_site_fract_z
 _atom_site_occupancy
  Li  Li0  1  0.16034377  0.69509186  0.08223862  1
  Li  Li1  1  0.66910367  0.74302159  0.07753803  1
  Li  Li2  1  0.30877411  0.18499046  0.08613383  1
  Li  Li3  1  0.84372399  0.22593819  0.07692360  1
  Li  Li4  1  0.48463814  0.66238402  0.10918387  1
  Li  Li5  1  0.48930207  0.22993100  0.05458378  1
  Li  Li6  1  0.02267283  0.14148415  0.10837463  1
  Li  Li7  1  0.16450896  0.33289453  0.18540721  1
  Li  Li8  1  0.84846742  0.58349963  0.09458446  1
  Li  Li9  1  0.32783006  0.45328271  0.13047648  1
  Li  Li10  1  0.66740462  0.44587021  0.15638192  1
  Li  Li11  1  0.66613288  0.08314778  0.10009388  1
  Li  Li12  1  0.33615938  0.83024287  0.18575865  1
  Li  Li13  1  0.83748487  0.93744598  0.15682754  1
  Li  Li14  1  0.16622923  0.94333926  0.13250607  1
  Li  Li15  1  0.99596961  0.50905703  0.14204371  1
  Li  Li16  1  0.49412541  0.27578464  0.20537179  1
  Li  Li17  1  0.50210428  0.00946728  0.14313951  1
  Li  Li18  1  0.00484953  0.77579123  0.20620088  1
  Li  Li19  1  0.16103203  0.96168952  0.28500124  1
  Li  Li20  1  0.82852114  0.21479684  0.19906234  1
  Li  Li21  1  0.32786789  0.09714978  0.23153511  1
  Li  Li22  1  0.66601509  0.05515274  0.25939569  1
  Li  Li23  1  0.67210235  0.71478218  0.19924376  1
  Li  Li24  1  0.33564324  0.45831181  0.28695000  1
  Li  Li25  1  0.83361906  0.55342721  0.25996862  1
  Li  Li26  1  0.17058971  0.59147934  0.23214572  1
  Li  Li27  1  0.98916443  0.14045786  0.24291091  1
  Li  Li28  1  0.49296489  0.89945084  0.30196929  1
  Li  Li29  1  0.51022699  0.63240067  0.24290750  1
  Li  Li30  1  0.00543791  0.40157016  0.30616784  1
  Li  Li31  1  0.16409673  0.58483310  0.38585059  1
  Li  Li32  1  0.83120401  0.83963925  0.29897977  1
  Li  Li33  1  0.32667306  0.73320137  0.33058171  1
  Li  Li34  1  0.67685580  0.69220584  0.35836393  1
  Li  Li35  1  0.66430817  0.33478254  0.30299338  1
  Li  Li36  1  0.32917747  0.07748904  0.38954373  1
  Li  Li37  1  0.83602851  0.17636185  0.36084579  1
  Li  Li38  1  0.17076712  0.21726698  0.33255184  1
  Li  Li39  1  0.99158631  0.76588561  0.34348879  1
  Li  Li40  1  0.50634772  0.51168909  0.38325987  1
  Li  Li41  1  0.49164787  0.17461511  0.34644023  1
  Li  Li42  1  0.01341156  0.03165749  0.40905953  1
  Li  Li43  1  0.15111133  0.21108107  0.48960623  1
  Li  Li44  1  0.83063684  0.46237357  0.40125809  1
  Li  Li45  1  0.32970455  0.35099437  0.43248499  1
  Li  Li46  1  0.67042593  0.34172628  0.45940511  1
  Li  Li47  1  0.66342119  0.96106298  0.40438795  1
  Li  Li48  1  0.33568881  0.70932370  0.49038032  1
  Li  Li49  1  0.82898007  0.83690899  0.45856815  1
  Li  Li50  1  0.17571765  0.83574445  0.43413379  1
  Li  Li51  1  0.98813820  0.36862535  0.44487395  1
  Li  Li52  1  0.51743376  0.13258651  0.48108957  1
  Li  Li53  1  0.49645970  0.78363942  0.44639285  1
  Li  Li54  1  0.97769158  0.65234649  0.48271664  1
  Li  Li55  1  0.84267311  0.10055736  0.50613624  1
  Li  Li56  1  0.33017232  0.05561285  0.51159981  1
  Li  Li57  1  0.69400930  0.60690340  0.50462714  1
  Li  Li58  1  0.15830359  0.56631466  0.51422048  1
  Li  Li59  1  0.51090548  0.56379755  0.53526906  1
  P  P60  1  0.08472823  0.42012277  0.08403562  1
  P  P61  1  0.40498288  0.92126765  0.08562379  1
  P  P62  1  0.08992483  0.05134354  0.18611692  1
  P  P63  1  0.91025414  0.85867286  0.09977632  1
  P  P64  1  0.41112857  0.54904649  0.18534109  1
  P  P65  1  0.58972608  0.35978829  0.10018369  1
  P  P66  1  0.08776569  0.68032052  0.28582754  1
  P  P67  1  0.90980405  0.48612703  0.20389246  1
  P  P68  1  0.40985846  0.17743732  0.28575867  1
  P  P69  1  0.58980583  0.98573548  0.20365514  1
  P  P70  1  0.08931583  0.30641958  0.38634444  1
  P  P71  1  0.90973231  0.11183460  0.30432688  1
  P  P72  1  0.41385460  0.80450882  0.38533769  1
  P  P73  1  0.58886489  0.61454285  0.30467727  1
  P  P74  1  0.09029355  0.93290374  0.48848975  1
  P  P75  1  0.91339289  0.74138082  0.40467984  1
  P  P76  1  0.41061800  0.43323640  0.48929444  1
  P  P77  1  0.58906479  0.24173188  0.40476143  1
  P  P78  1  0.91519440  0.37616336  0.50673368  1
  P  P79  1  0.59501063  0.86987088  0.50436026  1
  S  S80  1  0.13646588  0.23677892  0.07533201  1
  S  S81  1  0.66075960  0.27044242  0.06747243  1
  S  S82  1  0.35240013  0.73926496  0.07844768  1
  S  S83  1  0.84366849  0.78121705  0.06614241  1
  S  S84  1  0.06124214  0.90007836  0.09247311  1
  S  S85  1  0.93773948  0.38330767  0.10094103  1
  S  S86  1  0.43887303  0.38886170  0.08937109  1
  S  S87  1  0.55739846  0.89408017  0.09906790  1
  S  S88  1  0.08037093  0.54011391  0.05254578  1
  S  S89  1  0.38977539  0.03793785  0.05259042  1
  S  S90  1  0.15093223  0.86926158  0.17967809  1
  S  S91  1  0.84625044  0.04035590  0.11074485  1
  S  S92  1  0.33855102  0.01432285  0.11861898  1
  S  S93  1  0.65270429  0.90562166  0.16952379  1
  S  S94  1  0.65391967  0.54099213  0.10899805  1
  S  S95  1  0.35061798  0.36807644  0.17771820  1
  S  S96  1  0.84726669  0.40588790  0.16980282  1
  S  S97  1  0.15797516  0.51243412  0.11647178  1
  S  S98  1  0.06000554  0.53141543  0.19336729  1
  S  S99  1  0.93762647  0.01607257  0.19657094  1
  S  S100  1  0.43936249  0.03069932  0.19314875  1
  S  S101  1  0.56333931  0.51552630  0.19608500  1
  S  S102  1  0.11213900  0.16514000  0.15284930  1
  S  S103  1  0.88516603  0.73788656  0.13240182  1
  S  S104  1  0.38887214  0.66488387  0.15221501  1
  S  S105  1  0.60958971  0.24571873  0.13362771  1
  S  S106  1  0.15140135  0.50075463  0.27841069  1
  S  S107  1  0.84405350  0.66019150  0.21557421  1
  S  S108  1  0.34720670  0.64453674  0.21790856  1
  S  S109  1  0.64986834  0.52319394  0.27157050  1
  S  S110  1  0.65496187  0.16034185  0.21508939  1
  S  S111  1  0.34581728  0.99954615  0.27676733  1
  S  S112  1  0.84920887  0.03074289  0.26995934  1
  S  S113  1  0.15217597  0.15016151  0.21849915  1
  S  S114  1  0.05943895  0.15996981  0.29383262  1
  S  S115  1  0.93783627  0.64075527  0.29775314  1
  S  S116  1  0.43906121  0.65975625  0.29347676  1
  S  S117  1  0.55975510  0.13426735  0.29764795  1
  S  S118  1  0.10358385  0.79606543  0.25244746  1
  S  S119  1  0.89352830  0.35895696  0.23565595  1
  S  S120  1  0.39721622  0.29874191  0.25318995  1
  S  S121  1  0.60549110  0.85874620  0.23545957  1
  S  S122  1  0.15076206  0.12566982  0.37842179  1
  S  S123  1  0.84313466  0.28493245  0.31613227  1
  S  S124  1  0.34707823  0.26977494  0.31874302  1
  S  S125  1  0.65228832  0.14586688  0.37233239  1
  S  S126  1  0.65552903  0.79119021  0.31407843  1
  S  S127  1  0.34637867  0.63051301  0.37470361  1
  S  S128  1  0.85524800  0.65126632  0.37101913  1
  S  S129  1  0.15128244  0.78055747  0.31787008  1
  S  S130  1  0.06456871  0.78463737  0.39512768  1
  S  S131  1  0.93946170  0.26641244  0.39858910  1
  S  S132  1  0.43687353  0.27603061  0.39381684  1
  S  S133  1  0.56334454  0.75943932  0.39622594  1
  S  S134  1  0.10404010  0.42234352  0.35292098  1
  S  S135  1  0.89379654  0.98359872  0.33581817  1
  S  S136  1  0.39782639  0.93179087  0.35335559  1
  S  S137  1  0.60419107  0.49243121  0.33726953  1
  S  S138  1  0.15520430  0.74869708  0.48023522  1
  S  S139  1  0.84730201  0.91930950  0.41316030  1
  S  S140  1  0.35174171  0.88891022  0.41920770  1
  S  S141  1  0.65773850  0.77181659  0.47146843  1
  S  S142  1  0.64854289  0.42370896  0.41221560  1
  S  S143  1  0.34722384  0.25252580  0.47975870  1
  S  S144  1  0.84206978  0.29149944  0.47351761  1
  S  S145  1  0.15371626  0.40331146  0.41845427  1
  S  S146  1  0.06242728  0.41409578  0.48964022  1
  S  S147  1  0.93949524  0.89380070  0.49633859  1
  S  S148  1  0.44254303  0.90005506  0.49126474  1
  S  S149  1  0.56093098  0.40253200  0.50037642  1
  S  S150  1  0.11755772  0.04405517  0.45442858  1
  S  S151  1  0.89111532  0.61860313  0.43699845  1
  S  S152  1  0.39044648  0.54901915  0.45615620  1
  S  S153  1  0.61209536  0.12785250  0.43813394  1
  S  S154  1  0.86593967  0.55947469  0.51662775  1
  S  S155  1  0.34027161  0.52015044  0.52241486  1
  S  S156  1  0.65129921  0.05071827  0.51077871  1
  S  S157  1  0.15410660  0.02315798  0.52095782  1
  S  S158  1  0.91818678  0.25184175  0.53740166  1
  S  S159  1  0.61009695  0.75538490  0.53772792  1
