# generated using pymatgen
data_Li3PS4
_symmetry_space_group_name_H-M   'P 1'
_cell_length_a   6.25995100
_cell_length_b   27.34510000
_cell_length_c   46.45408000
_cell_angle_alpha   90.00000000
_cell_angle_beta   90.00000000
_cell_angle_gamma   90.00000000
_symmetry_Int_Tables_number   1
_chemical_formula_structural   Li3PS4
_chemical_formula_sum   'Li84 P28 S112'
_cell_volume   7951.96231415
_cell_formula_units_Z   28
loop_
 _symmetry_equiv_pos_site_id
 _symmetry_equiv_pos_as_xyz
  1  'x, y, z'
loop_
 _atom_site_type_symbol
 _atom_site_label
 _atom_site_symmetry_multiplicity
 _atom_site_fract_x
 _atom_site_fract_y
 _atom_site_fract_z
 _atom_site_occupancy
  Li  Li0  1  0.91350926  0.53441328  0.09444196  1
  Li  Li1  1  0.84955131  0.45085009  0.03389793  1
  Li  Li2  1  0.08634718  0.83689534  0.13921307  1
  Li  Li3  1  0.36026982  0.15609873  0.02564946  1
  Li  Li4  1  0.39446166  0.61859112  0.10134290  1
  Li  Li5  1  0.53758332  0.31933928  0.08576261  1
  Li  Li6  1  0.58187762  0.75690648  0.13934328  1
  Li  Li7  1  0.63602824  0.25724845  0.13141320  1
  Li  Li8  1  0.40926679  0.11011025  0.11358882  1
  Li  Li9  1  0.52456468  0.59732743  0.04044267  1
  Li  Li10  1  0.07820651  0.33774586  0.15087138  1
  Li  Li11  1  0.99438971  0.79311241  0.06805101  1
  Li  Li12  1  0.94883454  0.05524980  0.09094611  1
  Li  Li13  1  0.37549338  0.45274533  0.07350230  1
  Li  Li14  1  0.42608473  0.90602732  0.17017693  1
  Li  Li15  1  0.98637097  0.68994784  0.10207153  1
  Li  Li16  1  0.04752606  0.19378881  0.11312856  1
  Li  Li17  1  0.55774016  0.95218899  0.09725510  1
  Li  Li18  1  0.44445049  0.41731683  0.15159017  1
  Li  Li19  1  0.87678974  0.98855959  0.17950888  1
  Li  Li20  1  0.91605662  0.44369286  0.26465240  1
  Li  Li21  1  0.12275588  0.30045446  0.22639776  1
  Li  Li22  1  0.10842517  0.75117428  0.30930406  1
  Li  Li23  1  0.40173766  0.07122045  0.18348861  1
  Li  Li24  1  0.38759033  0.52531589  0.26804687  1
  Li  Li25  1  0.60556927  0.21574434  0.22414615  1
  Li  Li26  1  0.59280320  0.67149034  0.30818791  1
  Li  Li27  1  0.57405579  0.17885083  0.29518535  1
  Li  Li28  1  0.63271022  0.71876541  0.21255876  1
  Li  Li29  1  0.37029352  0.02154156  0.27858096  1
  Li  Li30  1  0.42021092  0.56305701  0.19427786  1
  Li  Li31  1  0.09553883  0.24825617  0.32118250  1
  Li  Li32  1  0.12329385  0.79246655  0.23536739  1
  Li  Li33  1  0.90457624  0.95160937  0.25332481  1
  Li  Li34  1  0.88890241  0.49419307  0.16887925  1
  Li  Li35  1  0.56200399  0.37793248  0.23739168  1
  Li  Li36  1  0.49783360  0.82616449  0.32956850  1
  Li  Li37  1  0.03445521  0.13803011  0.20925641  1
  Li  Li38  1  0.94285571  0.60532452  0.27827950  1
  Li  Li39  1  0.92525723  0.09729319  0.29676886  1
  Li  Li40  1  0.07272855  0.64492566  0.19337467  1
  Li  Li41  1  0.55656828  0.87020309  0.25226844  1
  Li  Li42  1  0.50233033  0.32612581  0.32947701  1
  Li  Li43  1  0.88908135  0.90127928  0.34834782  1
  Li  Li44  1  0.87589425  0.35266123  0.43125109  1
  Li  Li45  1  0.08849358  0.20885760  0.39392150  1
  Li  Li46  1  0.12529303  0.66501309  0.47915266  1
  Li  Li47  1  0.40683443  0.98095643  0.35034846  1
  Li  Li48  1  0.39135227  0.43716434  0.43441461  1
  Li  Li49  1  0.61481781  0.12770896  0.39044014  1
  Li  Li50  1  0.59868178  0.58197355  0.47441079  1
  Li  Li51  1  0.57705497  0.09015854  0.46425475  1
  Li  Li52  1  0.63266312  0.63161613  0.37964200  1
  Li  Li53  1  0.36727610  0.93392421  0.44586572  1
  Li  Li54  1  0.42264974  0.47277273  0.36282855  1
  Li  Li55  1  0.11084124  0.15874519  0.48905610  1
  Li  Li56  1  0.10049467  0.70159392  0.40498994  1
  Li  Li57  1  0.87494073  0.86000826  0.42291538  1
  Li  Li58  1  0.90407176  0.40381009  0.33626898  1
  Li  Li59  1  0.43837878  0.27513968  0.42088828  1
  Li  Li60  1  0.57693914  0.74692548  0.48855485  1
  Li  Li61  1  0.05294838  0.04692429  0.37966187  1
  Li  Li62  1  0.96213327  0.51549328  0.44886117  1
  Li  Li63  1  0.92456057  0.00794646  0.46475890  1
  Li  Li64  1  0.07352438  0.55464585  0.36163811  1
  Li  Li65  1  0.44325672  0.78231872  0.40557777  1
  Li  Li66  1  0.55730080  0.23551255  0.50719309  1
  Li  Li67  1  0.91352858  0.81608029  0.51826325  1
  Li  Li68  1  0.14678316  0.20282961  0.62402240  1
  Li  Li69  1  0.08179451  0.11849036  0.56400556  1
  Li  Li70  1  0.41856401  0.89583697  0.51876596  1
  Li  Li71  1  0.45958479  0.33373007  0.57222298  1
  Li  Li72  1  0.60330682  0.03434238  0.55716731  1
  Li  Li73  1  0.64155907  0.49685761  0.63273652  1
  Li  Li74  1  0.47209481  0.05649784  0.61820484  1
  Li  Li75  1  0.59226930  0.54346547  0.54445513  1
  Li  Li76  1  0.37043244  0.39613321  0.52705050  1
  Li  Li77  1  0.05066896  0.59865281  0.56808665  1
  Li  Li78  1  0.00357267  0.85742659  0.58776725  1
  Li  Li79  1  0.92270349  0.31545105  0.50701850  1
  Li  Li80  1  0.62349105  0.20073207  0.58487409  1
  Li  Li81  1  0.01321197  0.96269018  0.55582185  1
  Li  Li82  1  0.95834108  0.46114513  0.54432991  1
  Li  Li83  1  0.44196004  0.70115454  0.56105694  1
  P  P84  1  0.16480336  0.97738988  0.12580784  1
  P  P85  1  0.14690763  0.53260431  0.03645378  1
  P  P86  1  0.83559043  0.40096579  0.10719070  1
  P  P87  1  0.64693110  0.17481077  0.07091448  1
  P  P88  1  0.67426625  0.62610404  0.15424738  1
  P  P89  1  0.39552034  0.74879293  0.07775943  1
  P  P90  1  0.15786871  0.88865376  0.29403228  1
  P  P91  1  0.16343882  0.43389184  0.20920778  1
  P  P92  1  0.84468683  0.30796405  0.27888125  1
  P  P93  1  0.83914234  0.85215567  0.19493189  1
  P  P94  1  0.64998090  0.07951009  0.23811162  1
  P  P95  1  0.66856169  0.53491464  0.32144544  1
  P  P96  1  0.34618430  0.20585358  0.17066096  1
  P  P97  1  0.34973869  0.66100539  0.25279691  1
  P  P98  1  0.16118602  0.80045325  0.46316872  1
  P  P99  1  0.15469930  0.34440009  0.37865425  1
  P  P100  1  0.83728643  0.21953093  0.44900893  1
  P  P101  1  0.84319780  0.76389979  0.36406801  1
  P  P102  1  0.64804468  0.99173653  0.40557621  1
  P  P103  1  0.65613499  0.44736941  0.48773714  1
  P  P104  1  0.33125007  0.11698126  0.33710943  1
  P  P105  1  0.35078504  0.57358535  0.41994047  1
  P  P106  1  0.16545830  0.25190629  0.55077707  1
  P  P107  1  0.85024998  0.12086236  0.62205473  1
  P  P108  1  0.83505258  0.67588177  0.53239439  1
  P  P109  1  0.60642880  0.90363424  0.58037203  1
  P  P110  1  0.32326688  0.02672162  0.50409045  1
  P  P111  1  0.35606720  0.47881377  0.58737571  1
  S  S112  1  0.31067210  0.02439803  0.09662555  1
  S  S113  1  0.24249892  0.58228941  0.00814204  1
  S  S114  1  0.69545105  0.34928785  0.13432357  1
  S  S115  1  0.77747780  0.12909552  0.10208154  1
  S  S116  1  0.24349874  0.25631699  0.14023392  1
  S  S117  1  0.33197785  0.79921624  0.04749463  1
  S  S118  1  0.21789956  0.76169526  0.11588434  1
  S  S119  1  0.73008212  0.15715680  0.02997495  1
  S  S120  1  0.78239406  0.61423553  0.11293301  1
  S  S121  1  0.69988999  0.39120820  0.06706441  1
  S  S122  1  0.70482753  0.84222710  0.15503580  1
  S  S123  1  0.29342451  0.54119607  0.07738434  1
  S  S124  1  0.73387025  0.46752313  0.12265757  1
  S  S125  1  0.21688048  0.46090323  0.02572550  1
  S  S126  1  0.25106836  0.90826841  0.11345085  1
  S  S127  1  0.22311703  0.13854551  0.15733550  1
  S  S128  1  0.29916505  0.67959376  0.06584733  1
  S  S129  1  0.75591833  0.24347352  0.08237709  1
  S  S130  1  0.84023937  0.99191723  0.12462361  1
  S  S131  1  0.81755321  0.53457814  0.04446443  1
  S  S132  1  0.16049427  0.39050190  0.10785835  1
  S  S133  1  0.31650851  0.16695256  0.07410385  1
  S  S134  1  0.34747216  0.61894636  0.15352492  1
  S  S135  1  0.71166566  0.75329962  0.09089509  1
  S  S136  1  0.28124923  0.93585627  0.26395749  1
  S  S137  1  0.27129987  0.48329159  0.17899980  1
  S  S138  1  0.71699107  0.25983371  0.30848492  1
  S  S139  1  0.73736473  0.80386245  0.22597194  1
  S  S140  1  0.75528634  0.03034483  0.26865029  1
  S  S141  1  0.79873968  0.57816496  0.18400464  1
  S  S142  1  0.19881886  0.16351560  0.30739388  1
  S  S143  1  0.24660045  0.71025491  0.22227763  1
  S  S144  1  0.22305306  0.21715967  0.21109945  1
  S  S145  1  0.21630093  0.66968166  0.29294573  1
  S  S146  1  0.78011676  0.06973200  0.19780535  1
  S  S147  1  0.77256691  0.52417718  0.27978005  1
  S  S148  1  0.73652084  0.29755606  0.23737637  1
  S  S149  1  0.72920584  0.75279353  0.32303911  1
  S  S150  1  0.26278524  0.98915125  0.16747729  1
  S  S151  1  0.29325667  0.44279245  0.24948670  1
  S  S152  1  0.72991567  0.92051602  0.20865816  1
  S  S153  1  0.73111316  0.37674644  0.29096662  1
  S  S154  1  0.27184563  0.36602344  0.19487188  1
  S  S155  1  0.27468712  0.82000512  0.28216242  1
  S  S156  1  0.21963205  0.04794089  0.32543255  1
  S  S157  1  0.24023608  0.59332497  0.23872429  1
  S  S158  1  0.76314124  0.14710135  0.25194463  1
  S  S159  1  0.78332063  0.69449235  0.16667367  1
  S  S160  1  0.83130633  0.89546722  0.29500374  1
  S  S161  1  0.83799498  0.44020382  0.21174793  1
  S  S162  1  0.16853733  0.30160527  0.27928868  1
  S  S163  1  0.16459427  0.84448517  0.19178225  1
  S  S164  1  0.32479138  0.07369326  0.23548091  1
  S  S165  1  0.34297266  0.52696954  0.32123971  1
  S  S166  1  0.67057024  0.20770966  0.17266357  1
  S  S167  1  0.67471832  0.66833831  0.25611972  1
  S  S168  1  0.26159730  0.84886957  0.43212599  1
  S  S169  1  0.28163629  0.39236533  0.34892888  1
  S  S170  1  0.72849105  0.17005842  0.47912794  1
  S  S171  1  0.72210250  0.71685979  0.39437145  1
  S  S172  1  0.75198647  0.94255359  0.43610930  1
  S  S173  1  0.79997456  0.48810975  0.35107899  1
  S  S174  1  0.19910214  0.07460880  0.47425836  1
  S  S175  1  0.24616459  0.62254926  0.38930106  1
  S  S176  1  0.22793909  0.12779663  0.37877157  1
  S  S177  1  0.22066770  0.58353605  0.46026016  1
  S  S178  1  0.78218537  0.98268093  0.36546517  1
  S  S179  1  0.77687747  0.43609222  0.44717298  1
  S  S180  1  0.70938167  0.21053210  0.40862352  1
  S  S181  1  0.73894289  0.66380270  0.49069505  1
  S  S182  1  0.26943014  0.89977214  0.33521238  1
  S  S183  1  0.26242246  0.35544792  0.42015170  1
  S  S184  1  0.72607718  0.83252771  0.37596375  1
  S  S185  1  0.72811780  0.28739931  0.46316801  1
  S  S186  1  0.26908631  0.27560406  0.36683876  1
  S  S187  1  0.27250010  0.73224850  0.44959049  1
  S  S188  1  0.21475758  0.95830350  0.49165357  1
  S  S189  1  0.23708396  0.50589790  0.40630075  1
  S  S190  1  0.75799769  0.05938570  0.41965127  1
  S  S191  1  0.78031557  0.60406361  0.33300054  1
  S  S192  1  0.83531279  0.80759596  0.46618662  1
  S  S193  1  0.83060698  0.35064338  0.37833156  1
  S  S194  1  0.16296438  0.21326314  0.44674682  1
  S  S195  1  0.16995854  0.75722001  0.36285677  1
  S  S196  1  0.32320858  0.98436053  0.40230412  1
  S  S197  1  0.33160120  0.44535664  0.48593865  1
  S  S198  1  0.65674793  0.12509380  0.33712620  1
  S  S199  1  0.67627265  0.57930174  0.42263138  1
  S  S200  1  0.30531258  0.30373872  0.52368607  1
  S  S201  1  0.75544692  0.07109255  0.65036900  1
  S  S202  1  0.68838577  0.62913230  0.56163029  1
  S  S203  1  0.67198729  0.85298826  0.61038832  1
  S  S204  1  0.76150044  0.39728688  0.51818928  1
  S  S205  1  0.22535258  0.52523062  0.55652236  1
  S  S206  1  0.21441649  0.03866629  0.54535787  1
  S  S207  1  0.27187764  0.49570917  0.62838499  1
  S  S208  1  0.78352008  0.89077911  0.54206775  1
  S  S209  1  0.70157741  0.11214721  0.58125692  1
  S  S210  1  0.29446660  0.81066818  0.50312194  1
  S  S211  1  0.30070616  0.26171895  0.59094938  1
  S  S212  1  0.74779824  0.74512447  0.54446226  1
  S  S213  1  0.78069033  0.19262887  0.63279235  1
  S  S214  1  0.26600532  0.18521723  0.53545003  1
  S  S215  1  0.24549777  0.41039806  0.57556127  1
  S  S216  1  0.70191317  0.97284473  0.59228713  1
  S  S217  1  0.77868765  0.51488622  0.50084766  1
  S  S218  1  0.84062027  0.26251666  0.55020441  1
  S  S219  1  0.17919613  0.11892488  0.61380035  1
  S  S220  1  0.15950520  0.66140977  0.53391415  1
  S  S221  1  0.29028205  0.89940196  0.56722057  1
  S  S222  1  0.64995411  0.03410149  0.50489124  1
  S  S223  1  0.68623033  0.48661079  0.58417010  1
