# generated using pymatgen
data_Li3PS4
_symmetry_space_group_name_H-M   'P 1'
_cell_length_a   6.25995100
_cell_length_b   27.34510000
_cell_length_c   46.45408000
_cell_angle_alpha   90.00000000
_cell_angle_beta   90.00000000
_cell_angle_gamma   90.00000000
_symmetry_Int_Tables_number   1
_chemical_formula_structural   Li3PS4
_chemical_formula_sum   'Li84 P28 S112'
_cell_volume   7951.96231415
_cell_formula_units_Z   28
loop_
 _symmetry_equiv_pos_site_id
 _symmetry_equiv_pos_as_xyz
  1  'x, y, z'
loop_
 _atom_site_type_symbol
 _atom_site_label
 _atom_site_symmetry_multiplicity
 _atom_site_fract_x
 _atom_site_fract_y
 _atom_site_fract_z
 _atom_site_occupancy
  Li  Li0  1  0.91490193  0.53949166  0.08549325  1
  Li  Li1  1  0.85733844  0.45266161  0.02475064  1
  Li  Li2  1  0.09130262  0.84068205  0.12790971  1
  Li  Li3  1  0.37380366  0.16009107  0.01674159  1
  Li  Li4  1  0.37139765  0.62475336  0.09247044  1
  Li  Li5  1  0.53727038  0.32414779  0.07795669  1
  Li  Li6  1  0.61101029  0.76522936  0.12987680  1
  Li  Li7  1  0.63967239  0.26206640  0.12253233  1
  Li  Li8  1  0.42869129  0.11625552  0.10555837  1
  Li  Li9  1  0.52680900  0.59370639  0.03201822  1
  Li  Li10  1  0.08078771  0.34272564  0.14269322  1
  Li  Li11  1  0.97557225  0.74943449  0.04295182  1
  Li  Li12  1  0.97317771  0.06105721  0.08183836  1
  Li  Li13  1  0.89264723  0.49780074  0.15977153  1
  Li  Li14  1  0.38144124  0.45607067  0.06483874  1
  Li  Li15  1  0.42488093  0.91033853  0.15965349  1
  Li  Li16  1  0.96218839  0.69944727  0.10340765  1
  Li  Li17  1  0.05581921  0.19946769  0.10377162  1
  Li  Li18  1  0.58021866  0.95596858  0.08995411  1
  Li  Li19  1  0.44852211  0.42212395  0.14293270  1
  Li  Li20  1  0.87990061  0.99382168  0.17037097  1
  Li  Li21  1  0.91678958  0.45034197  0.25572050  1
  Li  Li22  1  0.12794498  0.30563504  0.21805970  1
  Li  Li23  1  0.11377581  0.75734493  0.30107322  1
  Li  Li24  1  0.40392758  0.07590233  0.17445379  1
  Li  Li25  1  0.38850455  0.53123557  0.25857546  1
  Li  Li26  1  0.61086960  0.22124734  0.21498990  1
  Li  Li27  1  0.59574045  0.67742711  0.29820876  1
  Li  Li28  1  0.57368283  0.18514233  0.28622657  1
  Li  Li29  1  0.63303831  0.72494738  0.20240836  1
  Li  Li30  1  0.36550993  0.02626609  0.26894753  1
  Li  Li31  1  0.42705413  0.56754313  0.18587234  1
  Li  Li32  1  0.08688908  0.25278447  0.31296492  1
  Li  Li33  1  0.12529019  0.79879579  0.22565490  1
  Li  Li34  1  0.89968574  0.95682326  0.24415780  1
  Li  Li35  1  0.89441748  0.40897747  0.32804702  1
  Li  Li36  1  0.57028331  0.38387305  0.22803048  1
  Li  Li37  1  0.52372824  0.83463021  0.31702067  1
  Li  Li38  1  0.04035098  0.14294258  0.20055436  1
  Li  Li39  1  0.94515160  0.61166635  0.26924544  1
  Li  Li40  1  0.92420417  0.10305384  0.28714530  1
  Li  Li41  1  0.07339245  0.64922792  0.18490247  1
  Li  Li42  1  0.55408680  0.87542186  0.24189965  1
  Li  Li43  1  0.45380297  0.33293045  0.31348583  1
  Li  Li44  1  0.89494883  0.90618362  0.33958021  1
  Li  Li45  1  0.88263820  0.35830626  0.42210086  1
  Li  Li46  1  0.08860069  0.21494766  0.38366253  1
  Li  Li47  1  0.12314051  0.66943257  0.46975463  1
  Li  Li48  1  0.40514754  0.98666095  0.34055445  1
  Li  Li49  1  0.39277872  0.44253445  0.42434680  1
  Li  Li50  1  0.61056160  0.13270648  0.38088391  1
  Li  Li51  1  0.59906441  0.58735034  0.46527669  1
  Li  Li52  1  0.57310102  0.09530253  0.45368994  1
  Li  Li53  1  0.62864669  0.63709065  0.37022405  1
  Li  Li54  1  0.36152058  0.93793530  0.43629217  1
  Li  Li55  1  0.42396716  0.47866410  0.35331345  1
  Li  Li56  1  0.10772671  0.16392843  0.47922525  1
  Li  Li57  1  0.09313676  0.70586645  0.39591926  1
  Li  Li58  1  0.87468255  0.86482417  0.41337036  1
  Li  Li59  1  0.91818175  0.32017149  0.49638307  1
  Li  Li60  1  0.44495310  0.28085631  0.40957210  1
  Li  Li61  1  0.57730448  0.75251423  0.47976673  1
  Li  Li62  1  0.05364622  0.05207556  0.37014259  1
  Li  Li63  1  0.95948797  0.52106608  0.43887724  1
  Li  Li64  1  0.91934513  0.01312146  0.45447076  1
  Li  Li65  1  0.07312001  0.56015070  0.35270825  1
  Li  Li66  1  0.43548683  0.78738550  0.39628763  1
  Li  Li67  1  0.55202860  0.24066176  0.49575438  1
  Li  Li68  1  0.91318333  0.82150027  0.51140428  1
  Li  Li69  1  0.13267951  0.20950655  0.61299175  1
  Li  Li70  1  0.07926039  0.12214687  0.55339351  1
  Li  Li71  1  0.38425954  0.89722183  0.50939764  1
  Li  Li72  1  0.47267247  0.33752391  0.56092727  1
  Li  Li73  1  0.62142567  0.03585658  0.54682999  1
  Li  Li74  1  0.64078333  0.50185607  0.62236035  1
  Li  Li75  1  0.47106832  0.06812482  0.60731493  1
  Li  Li76  1  0.58711326  0.54705325  0.53485308  1
  Li  Li77  1  0.36369351  0.40073347  0.51665476  1
  Li  Li78  1  0.04042239  0.60229852  0.55737041  1
  Li  Li79  1  0.01683687  0.91194390  0.59631898  1
  Li  Li80  1  0.61186145  0.20486030  0.57400205  1
  Li  Li81  1  0.02812714  0.96233000  0.53587657  1
  Li  Li82  1  0.95423755  0.46390694  0.53516490  1
  Li  Li83  1  0.42983740  0.70661073  0.55117998  1
  P  P84  1  0.18111022  0.98345034  0.11770764  1
  P  P85  1  0.14954099  0.53573459  0.02726637  1
  P  P86  1  0.83847024  0.40555888  0.09850728  1
  P  P87  1  0.65853644  0.18063251  0.06175424  1
  P  P88  1  0.66934116  0.62915291  0.14432362  1
  P  P89  1  0.34941822  0.21112291  0.16174975  1
  P  P90  1  0.36273853  0.75586164  0.07426673  1
  P  P91  1  0.15751068  0.89377783  0.28468605  1
  P  P92  1  0.16547909  0.43876505  0.20052870  1
  P  P93  1  0.84349351  0.31389191  0.27031866  1
  P  P94  1  0.84588719  0.85833618  0.18510510  1
  P  P95  1  0.64948127  0.08515497  0.22909755  1
  P  P96  1  0.66849412  0.54104953  0.31174907  1
  P  P97  1  0.32905015  0.12282265  0.32759108  1
  P  P98  1  0.35194097  0.66696449  0.24322054  1
  P  P99  1  0.15410405  0.80448661  0.45412271  1
  P  P100  1  0.15411530  0.34997390  0.36960342  1
  P  P101  1  0.83757528  0.22416015  0.43869806  1
  P  P102  1  0.84121978  0.76906160  0.35480976  1
  P  P103  1  0.64599395  0.99642929  0.39592605  1
  P  P104  1  0.65451282  0.45224197  0.47777244  1
  P  P105  1  0.32549324  0.03232347  0.49476369  1
  P  P106  1  0.35013610  0.57845270  0.41063202  1
  P  P107  1  0.15974845  0.25709201  0.54055278  1
  P  P108  1  0.84683789  0.12581878  0.61169771  1
  P  P109  1  0.82632828  0.67996923  0.52253706  1
  P  P110  1  0.62935546  0.90552201  0.56548187  1
  P  P111  1  0.35263043  0.48166291  0.57756119  1
  S  S112  1  0.33418886  0.03042046  0.08923869  1
  S  S113  1  0.24248275  0.58658434  0.99937008  1
  S  S114  1  0.69891546  0.35449004  0.12600929  1
  S  S115  1  0.79289360  0.13459995  0.09242003  1
  S  S116  1  0.24724173  0.26190957  0.13136249  1
  S  S117  1  0.25386021  0.80786760  0.04761233  1
  S  S118  1  0.24275136  0.76204721  0.11623421  1
  S  S119  1  0.74290557  0.16426047  0.02067243  1
  S  S120  1  0.76918105  0.61897226  0.10254400  1
  S  S121  1  0.70281725  0.39497537  0.05841267  1
  S  S122  1  0.71537118  0.84974184  0.14491532  1
  S  S123  1  0.27044423  0.99422684  0.15979495  1
  S  S124  1  0.29677418  0.54499851  0.06807901  1
  S  S125  1  0.73632936  0.47238721  0.11352472  1
  S  S126  1  0.22455849  0.46455223  0.01634059  1
  S  S127  1  0.26575640  0.91448760  0.10514651  1
  S  S128  1  0.22753014  0.14400532  0.14823862  1
  S  S129  1  0.24616526  0.68853955  0.05992558  1
  S  S130  1  0.76355843  0.24945286  0.07366094  1
  S  S131  1  0.78606192  0.69750995  0.15642365  1
  S  S132  1  0.85762190  0.99912937  0.11550125  1
  S  S133  1  0.82112857  0.53603427  0.03535281  1
  S  S134  1  0.16347960  0.39520565  0.09917754  1
  S  S135  1  0.32894829  0.17180132  0.06515112  1
  S  S136  1  0.34345548  0.62148049  0.14490222  1
  S  S137  1  0.67392216  0.21282316  0.16367465  1
  S  S138  1  0.69260465  0.75966268  0.07886191  1
  S  S139  1  0.27678662  0.94101993  0.25433605  1
  S  S140  1  0.27403883  0.48806564  0.17032300  1
  S  S141  1  0.70999317  0.26683758  0.29979951  1
  S  S142  1  0.73973557  0.80938889  0.21567085  1
  S  S143  1  0.75221889  0.03585206  0.25968240  1
  S  S144  1  0.80146378  0.58194416  0.17381395  1
  S  S145  1  0.19728850  0.16968766  0.29797980  1
  S  S146  1  0.24771135  0.71577499  0.21254682  1
  S  S147  1  0.22632985  0.22245157  0.20218368  1
  S  S148  1  0.21943891  0.67588575  0.28336847  1
  S  S149  1  0.78191038  0.07536091  0.18894558  1
  S  S150  1  0.77320341  0.53057236  0.27006384  1
  S  S151  1  0.74200616  0.30304557  0.22856643  1
  S  S152  1  0.73264745  0.75809622  0.31340806  1
  S  S153  1  0.27315316  0.90495255  0.32559500  1
  S  S154  1  0.29421766  0.44774053  0.24078821  1
  S  S155  1  0.73272277  0.92604944  0.19929676  1
  S  S156  1  0.73211115  0.38307943  0.28161689  1
  S  S157  1  0.27450835  0.37087320  0.18628607  1
  S  S158  1  0.27516932  0.82534946  0.27267678  1
  S  S159  1  0.21741049  0.05378227  0.31581663  1
  S  S160  1  0.24132016  0.59900889  0.22940908  1
  S  S161  1  0.76324992  0.15268400  0.24305281  1
  S  S162  1  0.77993955  0.61008377  0.32342613  1
  S  S163  1  0.83014515  0.90021082  0.28593162  1
  S  S164  1  0.83976544  0.44528650  0.20272278  1
  S  S165  1  0.16861574  0.30624974  0.27104438  1
  S  S166  1  0.17027344  0.85012026  0.18243132  1
  S  S167  1  0.32414389  0.07952508  0.22628432  1
  S  S168  1  0.34318382  0.53290729  0.31156013  1
  S  S169  1  0.65439626  0.13086649  0.32769473  1
  S  S170  1  0.67721283  0.67402098  0.24605279  1
  S  S171  1  0.25937366  0.85328408  0.42337814  1
  S  S172  1  0.27633830  0.39863767  0.33979127  1
  S  S173  1  0.72716536  0.17462033  0.46874615  1
  S  S174  1  0.71502427  0.72227069  0.38482642  1
  S  S175  1  0.74775299  0.94726196  0.42651264  1
  S  S176  1  0.80035471  0.49423842  0.34132522  1
  S  S177  1  0.19620721  0.07972938  0.46517761  1
  S  S178  1  0.24458520  0.62758023  0.38010569  1
  S  S179  1  0.22459505  0.13340173  0.36920476  1
  S  S180  1  0.22022786  0.58788505  0.45093453  1
  S  S181  1  0.78086940  0.98755652  0.35586342  1
  S  S182  1  0.77674292  0.44128923  0.43726227  1
  S  S183  1  0.71058226  0.21526453  0.39827228  1
  S  S184  1  0.73432324  0.66862382  0.48057542  1
  S  S185  1  0.28713000  0.81304584  0.49415466  1
  S  S186  1  0.26798092  0.36047107  0.41081217  1
  S  S187  1  0.72521802  0.83790528  0.36631730  1
  S  S188  1  0.72740664  0.29196500  0.45288667  1
  S  S189  1  0.26830786  0.28143726  0.35704544  1
  S  S190  1  0.26618167  0.73664213  0.44010278  1
  S  S191  1  0.20835329  0.96413740  0.48251813  1
  S  S192  1  0.23680135  0.51088999  0.39660795  1
  S  S193  1  0.75641365  0.06424911  0.40988169  1
  S  S194  1  0.77750906  0.51931185  0.49135053  1
  S  S195  1  0.83009929  0.81298249  0.45687530  1
  S  S196  1  0.83088623  0.35557341  0.36976971  1
  S  S197  1  0.16304929  0.21806504  0.43667103  1
  S  S198  1  0.16723877  0.76176939  0.35415756  1
  S  S199  1  0.32093337  0.98943570  0.39267446  1
  S  S200  1  0.33001542  0.45066794  0.47581360  1
  S  S201  1  0.65145583  0.04006202  0.49443275  1
  S  S202  1  0.67549284  0.58438182  0.41317505  1
  S  S203  1  0.29975079  0.30809974  0.51305081  1
  S  S204  1  0.75551607  0.07521973  0.63986856  1
  S  S205  1  0.67836877  0.63280052  0.55141998  1
  S  S206  1  0.73579643  0.85379935  0.59249877  1
  S  S207  1  0.75723686  0.40121896  0.50797136  1
  S  S208  1  0.21977463  0.52826220  0.54702566  1
  S  S209  1  0.22453597  0.04247328  0.53649040  1
  S  S210  1  0.27087911  0.49823755  0.61871225  1
  S  S211  1  0.75159017  0.89903598  0.52362377  1
  S  S212  1  0.69924564  0.11586510  0.57094749  1
  S  S213  1  0.29534635  0.26767375  0.58063395  1
  S  S214  1  0.73972873  0.74881562  0.53497872  1
  S  S215  1  0.76896631  0.19694692  0.62236444  1
  S  S216  1  0.26131611  0.19002450  0.52570607  1
  S  S217  1  0.24571509  0.41298206  0.56573047  1
  S  S218  1  0.74666874  0.97287394  0.57966732  1
  S  S219  1  0.83434667  0.26721575  0.53991700  1
  S  S220  1  0.17497929  0.12584376  0.60350383  1
  S  S221  1  0.15106945  0.66526246  0.52421851  1
  S  S222  1  0.29985890  0.90198449  0.56044814  1
  S  S223  1  0.68273747  0.48990664  0.57408425  1
