# generated using pymatgen
data_Li3PS4
_symmetry_space_group_name_H-M   'P 1'
_cell_length_a   6.25995100
_cell_length_b   8.10679100
_cell_length_c   52.23157800
_cell_angle_alpha   90.00000000
_cell_angle_beta   90.00000000
_cell_angle_gamma   90.00000000
_symmetry_Int_Tables_number   1
_chemical_formula_structural   Li3PS4
_chemical_formula_sum   'Li24 P8 S32'
_cell_volume   2650.65409706
_cell_formula_units_Z   8
loop_
 _symmetry_equiv_pos_site_id
 _symmetry_equiv_pos_as_xyz
  1  'x, y, z'
loop_
 _atom_site_type_symbol
 _atom_site_label
 _atom_site_symmetry_multiplicity
 _atom_site_fract_x
 _atom_site_fract_y
 _atom_site_fract_z
 _atom_site_occupancy
  Li  Li0  1  0.10696124  0.96794227  0.14528324  1
  Li  Li1  1  0.88615150  0.03197550  0.22906251  1
  Li  Li2  1  0.60805661  0.03802142  0.10359074  1
  Li  Li3  1  0.41327204  0.97508921  0.02610996  1
  Li  Li4  1  0.41329619  0.52494463  0.02606537  1
  Li  Li5  1  0.60806839  0.46198132  0.10358750  1
  Li  Li6  1  0.88615179  0.46802167  0.22906250  1
  Li  Li7  1  0.10695365  0.53206445  0.14528208  1
  Li  Li8  1  0.49942794  0.99932314  0.18721261  1
  Li  Li9  1  0.97933997  0.99253706  0.06215768  1
  Li  Li10  1  0.97938607  0.50745955  0.06215941  1
  Li  Li11  1  0.49945376  0.50068146  0.18721169  1
  Li  Li12  1  0.10807998  0.96198863  0.39641096  1
  Li  Li13  1  0.91315880  0.02485301  0.47386113  1
  Li  Li14  1  0.60695603  0.03204041  0.35471906  1
  Li  Li15  1  0.38614029  0.96801992  0.27093962  1
  Li  Li16  1  0.38614654  0.53198251  0.27094204  1
  Li  Li17  1  0.60690621  0.46792521  0.35471094  1
  Li  Li18  1  0.91325059  0.47508071  0.47389252  1
  Li  Li19  1  0.10807133  0.53801887  0.39641477  1
  Li  Li20  1  0.47934577  0.00745963  0.43784138  1
  Li  Li21  1  0.99944207  0.00068071  0.31278860  1
  Li  Li22  1  0.99946604  0.49931524  0.31279137  1
  Li  Li23  1  0.47935015  0.49254815  0.43784357  1
  P  P24  1  0.84312226  0.24997985  0.16465518  1
  P  P25  1  0.15164502  0.74999519  0.20966468  1
  P  P26  1  0.34537340  0.74998356  0.08452001  1
  P  P27  1  0.66629278  0.24999103  0.03906162  1
  P  P28  1  0.84537455  0.25003028  0.41548249  1
  P  P29  1  0.16626576  0.74998825  0.46094194  1
  P  P30  1  0.34309575  0.75001399  0.33534516  1
  P  P31  1  0.65157989  0.25000567  0.29034512  1
  S  S32  1  0.72578855  0.46337684  0.14859313  1
  S  S33  1  0.26840203  0.53639974  0.22571557  1
  S  S34  1  0.22694851  0.53652520  0.10013938  1
  S  S35  1  0.77960978  0.46089519  0.02250662  1
  S  S36  1  0.77952689  0.03904951  0.02250564  1
  S  S37  1  0.22689221  0.96345044  0.10013573  1
  S  S38  1  0.26839209  0.96359083  0.22571450  1
  S  S39  1  0.72581431  0.03657901  0.14859687  1
  S  S40  1  0.27133720  0.75000054  0.17224164  1
  S  S41  1  0.72360655  0.25001771  0.20208429  1
  S  S42  1  0.78111869  0.25000313  0.07707717  1
  S  S43  1  0.22709653  0.74998221  0.04679097  1
  S  S44  1  0.16826668  0.25000790  0.16185153  1
  S  S45  1  0.82606230  0.74995629  0.21244792  1
  S  S46  1  0.67091938  0.75002190  0.08739970  1
  S  S47  1  0.33771070  0.25004760  0.03754332  1
  S  S48  1  0.72691466  0.46350040  0.39986244  1
  S  S49  1  0.27948207  0.53906027  0.47750060  1
  S  S50  1  0.22577313  0.53663926  0.35140622  1
  S  S51  1  0.76837489  0.46360194  0.27428987  1
  S  S52  1  0.76836581  0.03640293  0.27429139  1
  S  S53  1  0.22579214  0.96344564  0.35140263  1
  S  S54  1  0.27945457  0.96093073  0.47749465  1
  S  S55  1  0.72695643  0.03655727  0.39986087  1
  S  S56  1  0.28116669  0.75000616  0.42292927  1
  S  S57  1  0.72699838  0.25001009  0.45321084  1
  S  S58  1  0.77126791  0.25002359  0.32776421  1
  S  S59  1  0.22357858  0.74999669  0.29792439  1
  S  S60  1  0.17092771  0.25001071  0.41260332  1
  S  S61  1  0.83767808  0.74996931  0.46244747  1
  S  S62  1  0.66820502  0.74999728  0.33815282  1
  S  S63  1  0.32598914  0.25000118  0.28755762  1
