# generated using pymatgen
data_Li3PS4
_symmetry_space_group_name_H-M   'P 1'
_cell_length_a   8.10679100
_cell_length_b   18.09023400
_cell_length_c   45.18558600
_cell_angle_alpha   90.00000000
_cell_angle_beta   90.00000000
_cell_angle_gamma   90.00000000
_symmetry_Int_Tables_number   1
_chemical_formula_structural   Li3PS4
_chemical_formula_sum   'Li66 P22 S88'
_cell_volume   6626.63546020
_cell_formula_units_Z   22
loop_
 _symmetry_equiv_pos_site_id
 _symmetry_equiv_pos_as_xyz
  1  'x, y, z'
loop_
 _atom_site_type_symbol
 _atom_site_label
 _atom_site_symmetry_multiplicity
 _atom_site_fract_x
 _atom_site_fract_y
 _atom_site_fract_z
 _atom_site_occupancy
  Li  Li0  1  0.97455472  0.65493660  0.06310135  1
  Li  Li1  1  0.96552657  0.33319135  0.01253572  1
  Li  Li2  1  0.03594686  0.46310359  0.08279531  1
  Li  Li3  1  0.00656911  0.14332907  0.09242346  1
  Li  Li4  1  0.49337397  0.14332503  0.09242089  1
  Li  Li5  1  0.46365188  0.46310465  0.08279875  1
  Li  Li6  1  0.53274128  0.33280172  0.01218315  1
  Li  Li7  1  0.52506496  0.65510950  0.06311495  1
  Li  Li8  1  0.97060785  0.86452710  0.05811053  1
  Li  Li9  1  0.95945639  0.30426218  0.09126995  1
  Li  Li10  1  0.54053779  0.30427822  0.09125717  1
  Li  Li11  1  0.52854871  0.86445861  0.05823272  1
  Li  Li12  1  0.96500365  0.43853862  0.16939650  1
  Li  Li13  1  0.04275687  0.90479676  0.11840130  1
  Li  Li14  1  0.04133568  0.22413907  0.18694341  1
  Li  Li15  1  0.96559339  0.85921337  0.19742743  1
  Li  Li16  1  0.53250792  0.85867597  0.19719775  1
  Li  Li17  1  0.45861670  0.22417922  0.18692106  1
  Li  Li18  1  0.45594000  0.90485412  0.11841124  1
  Li  Li19  1  0.53455387  0.43840247  0.16939836  1
  Li  Li20  1  0.03136658  0.66837087  0.13307761  1
  Li  Li21  1  0.96850660  0.05331009  0.18543021  1
  Li  Li22  1  0.53374281  0.05508145  0.18541447  1
  Li  Li23  1  0.46857467  0.66835079  0.13309138  1
  Li  Li24  1  0.96768922  0.18524030  0.26708110  1
  Li  Li25  1  0.03414300  0.65171059  0.21264523  1
  Li  Li26  1  0.03158597  0.98195459  0.28315962  1
  Li  Li27  1  0.96739132  0.62478463  0.29835235  1
  Li  Li28  1  0.53203414  0.62566713  0.29834069  1
  Li  Li29  1  0.46762251  0.98442874  0.28330609  1
  Li  Li30  1  0.46349290  0.65070470  0.21256251  1
  Li  Li31  1  0.53204753  0.18647962  0.26687237  1
  Li  Li32  1  0.97730982  0.41945524  0.24575377  1
  Li  Li33  1  0.00464769  0.80284659  0.29121562  1
  Li  Li34  1  0.50576982  0.80632378  0.29022016  1
  Li  Li35  1  0.52327057  0.41914393  0.24610438  1
  Li  Li36  1  0.96612336  0.95691746  0.36904206  1
  Li  Li37  1  0.03125808  0.42149491  0.31439361  1
  Li  Li38  1  0.03491253  0.74835756  0.38398240  1
  Li  Li39  1  0.95878318  0.38422716  0.39422066  1
  Li  Li40  1  0.54130293  0.38422644  0.39422354  1
  Li  Li41  1  0.46515415  0.74839332  0.38390586  1
  Li  Li42  1  0.46870903  0.42152123  0.31440027  1
  Li  Li43  1  0.53514129  0.95648036  0.36905843  1
  Li  Li44  1  0.02421507  0.18770894  0.33531637  1
  Li  Li45  1  0.03202467  0.55360234  0.39592471  1
  Li  Li46  1  0.46795507  0.55359970  0.39591402  1
  Li  Li47  1  0.47444763  0.18825335  0.33515132  1
  Li  Li48  1  0.95656093  0.70341331  0.46238412  1
  Li  Li49  1  0.03392552  0.17084883  0.41200783  1
  Li  Li50  1  0.99316165  0.46463632  0.48904115  1
  Li  Li51  1  0.96439416  0.14352410  0.49870406  1
  Li  Li52  1  0.53562720  0.14358262  0.49869135  1
  Li  Li53  1  0.50685306  0.46467092  0.48905436  1
  Li  Li54  1  0.46608125  0.17086589  0.41199912  1
  Li  Li55  1  0.54344684  0.70340987  0.46238047  1
  Li  Li56  1  0.96884824  0.93973335  0.44833788  1
  Li  Li57  1  0.04107082  0.30190846  0.49064208  1
  Li  Li58  1  0.45889774  0.30225252  0.49063146  1
  Li  Li59  1  0.53116725  0.93973513  0.44833294  1
  Li  Li60  1  0.03405701  0.27407959  0.56912347  1
  Li  Li61  1  0.02390109  0.95310472  0.51785881  1
  Li  Li62  1  0.47612011  0.95309340  0.51785083  1
  Li  Li63  1  0.46821639  0.27328385  0.56908625  1
  Li  Li64  1  0.02981971  0.74368995  0.52253292  1
  Li  Li65  1  0.47019150  0.74371030  0.52253274  1
  P  P66  1  0.24975891  0.76770048  0.05714724  1
  P  P67  1  0.74966025  0.47587663  0.04001678  1
  P  P68  1  0.24983336  0.29363959  0.04493891  1
  P  P69  1  0.24972144  0.53608636  0.15552683  1
  P  P70  1  0.74988864  0.79137390  0.12230439  1
  P  P71  1  0.74993365  0.25191034  0.14714005  1
  P  P72  1  0.25004358  0.09192288  0.13848980  1
  P  P73  1  0.24944955  0.29401353  0.25920248  1
  P  P74  1  0.74978582  0.55320402  0.22653966  1
  P  P75  1  0.74938710  0.00467248  0.24103803  1
  P  P76  1  0.24992174  0.83479352  0.23730430  1
  P  P77  1  0.25052343  0.05472000  0.35513721  1
  P  P78  1  0.74997177  0.31312544  0.32213474  1
  P  P79  1  0.75039281  0.77338406  0.34422334  1
  P  P80  1  0.24968486  0.60269754  0.34030780  1
  P  P81  1  0.25006511  0.81620697  0.45852532  1
  P  P82  1  0.75006007  0.07164878  0.42592434  1
  P  P83  1  0.74997584  0.51620916  0.44276045  1
  P  P84  1  0.25026355  0.35694211  0.43454367  1
  P  P85  1  0.75001674  0.83996085  0.52401558  1
  P  P86  1  0.75040230  0.31311783  0.53667415  1
  P  P87  1  0.25005108  0.13090568  0.54152522  1
  S  S88  1  0.45767516  0.76105117  0.03204539  1
  S  S89  1  0.53565002  0.53529034  0.04052327  1
  S  S90  1  0.46423536  0.23184897  0.04589445  1
  S  S91  1  0.03564847  0.23171228  0.04597137  1
  S  S92  1  0.96381351  0.53521276  0.04048264  1
  S  S93  1  0.04196149  0.76097972  0.03202528  1
  S  S94  1  0.24966439  0.87541974  0.07746294  1
  S  S95  1  0.24994362  0.35987954  0.08322810  1
  S  S96  1  0.74944300  0.41323116  0.00194775  1
  S  S97  1  0.24982941  0.68284061  0.08762107  1
  S  S98  1  0.74987427  0.88449102  0.09369154  1
  S  S99  1  0.74992074  0.41000333  0.07883203  1
  S  S100  1  0.24935394  0.35604701  0.00774715  1
  S  S101  1  0.46329021  0.53059441  0.13093938  1
  S  S102  1  0.53782222  0.79904239  0.14677224  1
  S  S103  1  0.53786380  0.31273427  0.14881091  1
  S  S104  1  0.46526435  0.03429476  0.13018276  1
  S  S105  1  0.03480910  0.03423056  0.13019714  1
  S  S106  1  0.96200487  0.31272972  0.14883674  1
  S  S107  1  0.96165874  0.79908126  0.14685068  1
  S  S108  1  0.03635435  0.53057895  0.13089722  1
  S  S109  1  0.74992726  0.69002082  0.10199892  1
  S  S110  1  0.24956681  0.64335701  0.17337404  1
  S  S111  1  0.25003256  0.11957258  0.18321634  1
  S  S112  1  0.74997997  0.20438521  0.10513821  1
  S  S113  1  0.24982581  0.45542993  0.18670638  1
  S  S114  1  0.74936638  0.63485421  0.19579898  1
  S  S115  1  0.74995301  0.17594589  0.18133668  1
  S  S116  1  0.24997255  0.18509376  0.11397455  1
  S  S117  1  0.46172233  0.28850487  0.23447625  1
  S  S118  1  0.53563802  0.55752467  0.25103333  1
  S  S119  1  0.53654868  0.06606631  0.24163347  1
  S  S120  1  0.46345274  0.77319150  0.23702081  1
  S  S121  1  0.03578261  0.77368113  0.23729302  1
  S  S122  1  0.96355592  0.06506027  0.24171525  1
  S  S123  1  0.96440950  0.55770679  0.25090401  1
  S  S124  1  0.03673805  0.28811940  0.23465227  1
  S  S125  1  0.74985008  0.44700229  0.20807189  1
  S  S126  1  0.24977719  0.39964734  0.27741402  1
  S  S127  1  0.25106961  0.88772944  0.27856959  1
  S  S128  1  0.74914024  0.95496430  0.19885417  1
  S  S129  1  0.24996763  0.20648411  0.28834739  1
  S  S130  1  0.74997164  0.40030579  0.29284435  1
  S  S131  1  0.74882285  0.93247865  0.27564862  1
  S  S132  1  0.24953688  0.90467682  0.20193345  1
  S  S133  1  0.46525942  0.05031837  0.33078439  1
  S  S134  1  0.53746824  0.31893748  0.34677200  1
  S  S135  1  0.53655926  0.83464821  0.34426993  1
  S  S136  1  0.46342539  0.54194969  0.33963894  1
  S  S137  1  0.03616562  0.54176537  0.33972027  1
  S  S138  1  0.96430598  0.83470725  0.34447271  1
  S  S139  1  0.96251745  0.31884590  0.34675883  1
  S  S140  1  0.03676649  0.04992195  0.33052751  1
  S  S141  1  0.74968010  0.20730122  0.30405505  1
  S  S142  1  0.24985191  0.16094935  0.37350642  1
  S  S143  1  0.24993651  0.65216464  0.38255478  1
  S  S144  1  0.75084811  0.72069543  0.30290845  1
  S  S145  1  0.25035943  0.97303819  0.38589112  1
  S  S146  1  0.75004968  0.15208982  0.39467354  1
  S  S147  1  0.75006138  0.70346495  0.37958755  1
  S  S148  1  0.24952191  0.67534273  0.30587412  1
  S  S149  1  0.46200377  0.80899640  0.43403157  1
  S  S150  1  0.53626742  0.07732424  0.45042846  1
  S  S151  1  0.53485870  0.57386762  0.45101897  1
  S  S152  1  0.46239624  0.29618400  0.43273641  1
  S  S153  1  0.03809870  0.29619073  0.43272236  1
  S  S154  1  0.96510600  0.57386641  0.45101568  1
  S  S155  1  0.96385769  0.07731657  0.45043304  1
  S  S156  1  0.03801364  0.80903344  0.43408153  1
  S  S157  1  0.75021380  0.96433037  0.40808535  1
  S  S158  1  0.25010678  0.91731554  0.47903317  1
  S  S159  1  0.25006135  0.40386772  0.47664122  1
  S  S160  1  0.75000232  0.48843889  0.39803979  1
  S  S161  1  0.25004942  0.72279625  0.48698551  1
  S  S162  1  0.75001973  0.92489161  0.49347740  1
  S  S163  1  0.74997644  0.42330550  0.46744335  1
  S  S164  1  0.25018331  0.43290425  0.40036381  1
  S  S165  1  0.54192924  0.84666863  0.54903092  1
  S  S166  1  0.53585208  0.37478290  0.53565530  1
  S  S167  1  0.46426351  0.07168586  0.54106594  1
  S  S168  1  0.03581481  0.07171425  0.54109910  1
  S  S169  1  0.96453109  0.37504955  0.53559819  1
  S  S170  1  0.95809758  0.84665454  0.54902987  1
  S  S171  1  0.75000197  0.73234481  0.50357331  1
  S  S172  1  0.25035689  0.19379562  0.57950316  1
  S  S173  1  0.75015007  0.24704121  0.49831530  1
  S  S174  1  0.75106385  0.25060376  0.57386033  1
  S  S175  1  0.25001500  0.19653534  0.50259446  1
