# generated using pymatgen
data_Li3PS4
_symmetry_space_group_name_H-M   'P 1'
_cell_length_a   8.10679100
_cell_length_b   14.48087000
_cell_length_c   45.15849200
_cell_angle_alpha   90.00000000
_cell_angle_beta   90.00000000
_cell_angle_gamma   90.00000000
_symmetry_Int_Tables_number   1
_chemical_formula_structural   Li3PS4
_chemical_formula_sum   'Li48 P16 S64'
_cell_volume   5301.30830909
_cell_formula_units_Z   16
loop_
 _symmetry_equiv_pos_site_id
 _symmetry_equiv_pos_as_xyz
  1  'x, y, z'
loop_
 _atom_site_type_symbol
 _atom_site_label
 _atom_site_symmetry_multiplicity
 _atom_site_fract_x
 _atom_site_fract_y
 _atom_site_fract_z
 _atom_site_occupancy
  Li  Li0  1  0.96505539  0.73368726  0.06426678  1
  Li  Li1  1  0.03045228  0.03595544  0.07833590  1
  Li  Li2  1  0.03131157  0.50427934  0.11122127  1
  Li  Li3  1  0.02091713  0.41690514  0.03599352  1
  Li  Li4  1  0.74100488  0.27990608  0.08647658  1
  Li  Li5  1  0.46939831  0.49820314  0.11365647  1
  Li  Li6  1  0.44306299  0.03531399  0.09138009  1
  Li  Li7  1  0.51438684  0.73315847  0.06875427  1
  Li  Li8  1  0.46528076  0.42162223  0.03698737  1
  Li  Li9  1  0.54165254  0.94644835  0.03493274  1
  Li  Li10  1  0.95363803  0.54688639  0.19116584  1
  Li  Li11  1  0.02264235  0.85291609  0.20665245  1
  Li  Li12  1  0.02938620  0.32105121  0.23548816  1
  Li  Li13  1  0.96721234  0.07845249  0.16587848  1
  Li  Li14  1  0.53756502  0.07763066  0.17077035  1
  Li  Li15  1  0.46350896  0.30912280  0.23782981  1
  Li  Li16  1  0.45732379  0.85159426  0.21298541  1
  Li  Li17  1  0.52248203  0.54088458  0.19790708  1
  Li  Li18  1  0.05718180  0.79756971  0.12751555  1
  Li  Li19  1  0.03154406  0.27942208  0.14376437  1
  Li  Li20  1  0.45161612  0.27429765  0.14567898  1
  Li  Li21  1  0.54563084  0.78462866  0.14714890  1
  Li  Li22  1  0.95431871  0.35665156  0.31716247  1
  Li  Li23  1  0.01966240  0.66632856  0.33142749  1
  Li  Li24  1  0.03911924  0.13033985  0.35909210  1
  Li  Li25  1  0.96513663  0.89885410  0.29181695  1
  Li  Li26  1  0.53095972  0.88662923  0.29444123  1
  Li  Li27  1  0.46818798  0.12677766  0.36497228  1
  Li  Li28  1  0.45161536  0.66114226  0.33865238  1
  Li  Li29  1  0.52081121  0.35502825  0.32338482  1
  Li  Li30  1  0.04779473  0.61116651  0.25534519  1
  Li  Li31  1  0.93754861  0.12201426  0.25738077  1
  Li  Li32  1  0.43788069  0.08648770  0.27250883  1
  Li  Li33  1  0.54551838  0.59583840  0.27418586  1
  Li  Li34  1  0.94438648  0.17242393  0.43899575  1
  Li  Li35  1  0.01237690  0.47490021  0.46113310  1
  Li  Li36  1  0.24189983  0.92856824  0.44347392  1
  Li  Li37  1  0.96586013  0.70867904  0.41636407  1
  Li  Li38  1  0.52494408  0.70389014  0.41846510  1
  Li  Li39  1  0.51460029  0.79149764  0.49427014  1
  Li  Li40  1  0.46028186  0.47525590  0.46621954  1
  Li  Li41  1  0.53100462  0.17251718  0.45148080  1
  Li  Li42  1  0.04614769  0.42413185  0.38295051  1
  Li  Li43  1  0.94941119  0.93333039  0.38415090  1
  Li  Li44  1  0.52998967  0.92840704  0.38607534  1
  Li  Li45  1  0.55524072  0.41082092  0.40263511  1
  Li  Li46  1  0.04140574  0.26329169  0.49437846  1
  Li  Li47  1  0.96049891  0.78600480  0.49280447  1
  P  P48  1  0.23639742  0.84429319  0.04415401  1
  P  P49  1  0.74909341  0.92828534  0.10864283  1
  P  P50  1  0.74580075  0.48472561  0.06928310  1
  P  P51  1  0.24488286  0.27821004  0.08540828  1
  P  P52  1  0.24658461  0.65525317  0.17145771  1
  P  P53  1  0.74559872  0.73989596  0.23320057  1
  P  P54  1  0.74658333  0.29953756  0.19351575  1
  P  P55  1  0.23943659  0.09742693  0.21140803  1
  P  P56  1  0.24392043  0.46707689  0.29655120  1
  P  P57  1  0.74417864  0.55215644  0.35844236  1
  P  P58  1  0.73910537  0.10990642  0.31876134  1
  P  P59  1  0.24586458  0.90738177  0.33619754  1
  P  P60  1  0.24797288  0.27957413  0.42135771  1
  P  P61  1  0.73352745  0.36386052  0.48589763  1
  P  P62  1  0.74098629  0.92937658  0.44445122  1
  P  P63  1  0.24158839  0.72353249  0.46067798  1
  S  S64  1  0.44558967  0.80142751  0.02215861  1
  S  S65  1  0.53155661  0.55792840  0.06341416  1
  S  S66  1  0.45541643  0.20433012  0.09517345  1
  S  S67  1  0.03581420  0.20290474  0.09444452  1
  S  S68  1  0.95790865  0.55793365  0.06121431  1
  S  S69  1  0.02537058  0.82298316  0.02230944  1
  S  S70  1  0.74948780  0.78673736  0.10184849  1
  S  S71  1  0.26876911  0.98711011  0.05133976  1
  S  S72  1  0.24448722  0.38388600  0.11715320  1
  S  S73  1  0.74190168  0.37254529  0.04050767  1
  S  S74  1  0.23739401  0.76962300  0.08409128  1
  S  S75  1  0.73195625  0.00933852  0.07142483  1
  S  S76  1  0.75170655  0.43422764  0.11205064  1
  S  S77  1  0.24707735  0.31689202  0.04178957  1
  S  S78  1  0.46469448  0.62028281  0.15092318  1
  S  S79  1  0.54575086  0.95240060  0.13490656  1
  S  S80  1  0.53015051  0.37162828  0.18817072  1
  S  S81  1  0.44938381  0.02274654  0.21972527  1
  S  S82  1  0.02461806  0.02311574  0.21583360  1
  S  S83  1  0.95657526  0.37638358  0.18637025  1
  S  S84  1  0.97089550  0.96017237  0.12809249  1
  S  S85  1  0.03763738  0.63117870  0.14693621  1
  S  S86  1  0.75320124  0.59668966  0.22872408  1
  S  S87  1  0.25429698  0.79788620  0.17624877  1
  S  S88  1  0.23302402  0.19781137  0.24431171  1
  S  S89  1  0.74677131  0.19839181  0.16066425  1
  S  S90  1  0.23516823  0.58003587  0.20993648  1
  S  S91  1  0.73608825  0.81350863  0.19458950  1
  S  S92  1  0.74948148  0.25082753  0.23612634  1
  S  S93  1  0.24967257  0.14636833  0.16850593  1
  S  S94  1  0.46058607  0.43210845  0.27548560  1
  S  S95  1  0.53517706  0.76413712  0.25732676  1
  S  S96  1  0.52365615  0.18367149  0.31469781  1
  S  S97  1  0.45624415  0.83100716  0.34346254  1
  S  S98  1  0.02927123  0.83540386  0.34149588  1
  S  S99  1  0.94825891  0.18528852  0.31037823  1
  S  S100  1  0.96224378  0.77468153  0.25432299  1
  S  S101  1  0.03318612  0.44314891  0.27250034  1
  S  S102  1  0.75224514  0.40951693  0.35386592  1
  S  S103  1  0.25201477  0.61028900  0.30096916  1
  S  S104  1  0.24486211  0.00836930  0.36917310  1
  S  S105  1  0.73348229  0.01003036  0.28570471  1
  S  S106  1  0.23410713  0.39386112  0.33524756  1
  S  S107  1  0.73217279  0.62685747  0.31985595  1
  S  S108  1  0.75042210  0.06071362  0.36164315  1
  S  S109  1  0.25027887  0.95600005  0.29359336  1
  S  S110  1  0.46966964  0.24815544  0.40181376  1
  S  S111  1  0.53503069  0.57644092  0.38289329  1
  S  S112  1  0.53259003  0.00543243  0.43535538  1
  S  S113  1  0.45431675  0.65085619  0.46870514  1
  S  S114  1  0.02829430  0.64956228  0.46660955  1
  S  S115  1  0.95211744  0.00274421  0.43483953  1
  S  S116  1  0.96246049  0.58756602  0.37881145  1
  S  S117  1  0.04430851  0.25521118  0.39522518  1
  S  S118  1  0.76836510  0.22121835  0.47860963  1
  S  S119  1  0.24745028  0.42120531  0.42821235  1
  S  S120  1  0.23647987  0.83577528  0.48941306  1
  S  S121  1  0.74022542  0.82355702  0.41273898  1
  S  S122  1  0.23211463  0.19884036  0.45864002  1
  S  S123  1  0.73369081  0.43930245  0.44613713  1
  S  S124  1  0.74150859  0.89071918  0.48808029  1
  S  S125  1  0.24706491  0.77392052  0.41791416  1
  S  S126  1  0.52169858  0.38349324  0.50765562  1
  S  S127  1  0.94218153  0.40722687  0.50793998  1
