# generated using pymatgen
data_Li3PS4
_symmetry_space_group_name_H-M   'P 1'
_cell_length_a   6.25995100
_cell_length_b   20.81799400
_cell_length_c   50.84910000
_cell_angle_alpha   90.00000000
_cell_angle_beta   90.00000000
_cell_angle_gamma   90.00000000
_symmetry_Int_Tables_number   1
_chemical_formula_structural   Li3PS4
_chemical_formula_sum   'Li60 P20 S80'
_cell_volume   6626.63550926
_cell_formula_units_Z   20
loop_
 _symmetry_equiv_pos_site_id
 _symmetry_equiv_pos_as_xyz
  1  'x, y, z'
loop_
 _atom_site_type_symbol
 _atom_site_label
 _atom_site_symmetry_multiplicity
 _atom_site_fract_x
 _atom_site_fract_y
 _atom_site_fract_z
 _atom_site_occupancy
  Li  Li0  1  0.87544907  0.74378189  0.12854066  1
  Li  Li1  1  0.07450329  0.32630344  0.15389593  1
  Li  Li2  1  0.05630453  0.63791734  0.05954366  1
  Li  Li3  1  0.41268098  0.14705013  0.06385527  1
  Li  Li4  1  0.37451984  0.82502387  0.15871305  1
  Li  Li5  1  0.56888939  0.24373980  0.12862918  1
  Li  Li6  1  0.61676320  0.40894674  0.07789783  1
  Li  Li7  1  0.62502342  0.10740152  0.17321139  1
  Li  Li8  1  0.42263345  0.95566354  0.11471292  1
  Li  Li9  1  0.13821776  0.45825486  0.11123379  1
  Li  Li10  1  0.91964369  0.61245766  0.17376238  1
  Li  Li11  1  0.96295695  0.92868358  0.08035801  1
  Li  Li12  1  0.42998896  0.36260196  0.19623849  1
  Li  Li13  1  0.43469063  0.66076560  0.09997058  1
  Li  Li14  1  0.93477391  0.20721663  0.08467700  1
  Li  Li15  1  0.93212069  0.90039953  0.19008828  1
  Li  Li16  1  0.07229994  0.05535310  0.13651528  1
  Li  Li17  1  0.56938477  0.51767476  0.15157985  1
  Li  Li18  1  0.56420170  0.80290445  0.05646987  1
  Li  Li19  1  0.89122558  0.13507373  0.33136923  1
  Li  Li20  1  0.87645233  0.43697937  0.22953571  1
  Li  Li21  1  0.12297188  0.72013406  0.35866700  1
  Li  Li22  1  0.10554003  0.02166497  0.25694919  1
  Li  Li23  1  0.39046709  0.52152115  0.25714888  1
  Li  Li24  1  0.41300289  0.22081385  0.35654777  1
  Li  Li25  1  0.58516896  0.93675842  0.23190700  1
  Li  Li26  1  0.60959206  0.63526886  0.33086728  1
  Li  Li27  1  0.62339487  0.80359863  0.27392365  1
  Li  Li28  1  0.58370536  0.50775835  0.37346576  1
  Li  Li29  1  0.41696738  0.64988579  0.21375626  1
  Li  Li30  1  0.37514201  0.35413186  0.31419834  1
  Li  Li31  1  0.09696759  0.84833869  0.31401414  1
  Li  Li32  1  0.12101828  0.15713658  0.21313773  1
  Li  Li33  1  0.87476210  0.99948004  0.37514781  1
  Li  Li34  1  0.90184587  0.30879641  0.27418158  1
  Li  Li35  1  0.56973145  0.79413818  0.39205246  1
  Li  Li36  1  0.49923011  0.07906265  0.29421698  1
  Li  Li37  1  0.99994869  0.57911886  0.29408326  1
  Li  Li38  1  0.06725983  0.25712369  0.39829634  1
  Li  Li39  1  0.06012821  0.73889977  0.23862122  1
  Li  Li40  1  0.94244908  0.41731207  0.34920602  1
  Li  Li41  1  0.44056498  0.93677812  0.33923599  1
  Li  Li42  1  0.55434569  0.22129056  0.24907690  1
  Li  Li43  1  0.93984528  0.51992065  0.52863443  1
  Li  Li44  1  0.92486878  0.83059182  0.43470217  1
  Li  Li45  1  0.12209722  0.41361488  0.45947818  1
  Li  Li46  1  0.43031684  0.91256691  0.46002088  1
  Li  Li47  1  0.62625263  0.33230038  0.42956088  1
  Li  Li48  1  0.59159781  0.01106670  0.52500155  1
  Li  Li49  1  0.58008342  0.20078202  0.47392989  1
  Li  Li50  1  0.37461907  0.05011176  0.41551483  1
  Li  Li51  1  0.38752413  0.74698490  0.51083447  1
  Li  Li52  1  0.04031572  0.22919989  0.50839859  1
  Li  Li53  1  0.08268493  0.54534390  0.41384591  1
  Li  Li54  1  0.86660018  0.69996362  0.47713265  1
  Li  Li55  1  0.56506592  0.49712899  0.48804941  1
  Li  Li56  1  0.06760191  0.94966038  0.50361851  1
  Li  Li57  1  0.92884168  0.10234560  0.45189388  1
  Li  Li58  1  0.43496272  0.35472804  0.53161948  1
  Li  Li59  1  0.43470938  0.63839597  0.43702240  1
  P  P60  1  0.15951342  0.49183464  0.18624013  1
  P  P61  1  0.16801020  0.79754785  0.08419193  1
  P  P62  1  0.83880101  0.57541377  0.10104551  1
  P  P63  1  0.66473282  0.07577421  0.10140505  1
  P  P64  1  0.32319008  0.29865059  0.08221800  1
  P  P65  1  0.34302999  0.99205017  0.18657186  1
  P  P66  1  0.16223740  0.88696421  0.38814922  1
  P  P67  1  0.15689412  0.19018099  0.28661512  1
  P  P68  1  0.84024188  0.96722953  0.30168266  1
  P  P69  1  0.83632834  0.27020304  0.20028953  1
  P  P70  1  0.66026989  0.77038694  0.20074590  1
  P  P71  1  0.65028180  0.46782650  0.30107214  1
  P  P72  1  0.35058446  0.68972177  0.28689348  1
  P  P73  1  0.34104826  0.38731209  0.38728185  1
  P  P74  1  0.16124108  0.58187376  0.48723136  1
  P  P75  1  0.83151476  0.35994617  0.50417679  1
  P  P76  1  0.84105758  0.66513566  0.40192527  1
  P  P77  1  0.65674426  0.16508217  0.40180713  1
  P  P78  1  0.67750503  0.85857420  0.50623252  1
  P  P79  1  0.33626529  0.08137040  0.48745982  1
  S  S80  1  0.29442951  0.57956675  0.17775175  1
  S  S81  1  0.32042163  0.88368918  0.07618283  1
  S  S82  1  0.74690391  0.48376368  0.11099803  1
  S  S83  1  0.79190931  0.98862989  0.11338066  1
  S  S84  1  0.24032583  0.39207042  0.07412329  1
  S  S85  1  0.24008599  0.08373954  0.17807643  1
  S  S86  1  0.19254210  0.26197302  0.11670263  1
  S  S87  1  0.76091078  0.81101290  0.16577207  1
  S  S88  1  0.77580835  0.10629794  0.06596864  1
  S  S89  1  0.69505106  0.61078279  0.06796427  1
  S  S90  1  0.70034899  0.30891966  0.16715892  1
  S  S91  1  0.26406953  0.75702704  0.11906943  1
  S  S92  1  0.73571349  0.63360178  0.13193949  1
  S  S93  1  0.26766146  0.43103628  0.15664579  1
  S  S94  1  0.24830145  0.73806060  0.05341619  1
  S  S95  1  0.21846416  0.24059972  0.05252270  1
  S  S96  1  0.23174377  0.93462696  0.15594793  1
  S  S97  1  0.76491581  0.13964934  0.13015330  1
  S  S98  1  0.83457346  0.50223456  0.18924980  1
  S  S99  1  0.84610833  0.81684390  0.08786965  1
  S  S100  1  0.16434975  0.57208669  0.09527217  1
  S  S101  1  0.16115404  0.26682053  0.19567835  1
  S  S102  1  0.33504025  0.76066171  0.19862403  1
  S  S103  1  0.33784078  0.06537079  0.09812254  1
  S  S104  1  0.65268829  0.29787977  0.08720435  1
  S  S105  1  0.66755065  0.99649616  0.19102164  1
  S  S106  1  0.26186846  0.97862543  0.37904651  1
  S  S107  1  0.27903853  0.27898901  0.27782693  1
  S  S108  1  0.71829667  0.87843317  0.31041959  1
  S  S109  1  0.73503491  0.17876319  0.20942765  1
  S  S110  1  0.79406710  0.68279460  0.20918872  1
  S  S111  1  0.76002830  0.37662651  0.30967389  1
  S  S112  1  0.23921627  0.78076211  0.27830727  1
  S  S113  1  0.20768787  0.47477555  0.37852773  1
  S  S114  1  0.22726725  0.65136112  0.32099107  1
  S  S115  1  0.20920783  0.95256279  0.21973826  1
  S  S116  1  0.78994984  0.20451956  0.36858219  1
  S  S117  1  0.77323354  0.50618618  0.26698227  1
  S  S118  1  0.72639268  0.00654149  0.26723926  1
  S  S119  1  0.73678566  0.70527750  0.36722619  1
  S  S120  1  0.26271930  0.45161980  0.22098265  1
  S  S121  1  0.27070808  0.15118822  0.32111470  1
  S  S122  1  0.72342104  0.02728808  0.33132777  1
  S  S123  1  0.72504749  0.32732133  0.23116620  1
  S  S124  1  0.27325820  0.83014346  0.35715157  1
  S  S125  1  0.27304754  0.12993524  0.25702012  1
  S  S126  1  0.23335854  0.63148099  0.25666512  1
  S  S127  1  0.22788160  0.32570091  0.35817636  1
  S  S128  1  0.77228339  0.83171691  0.22996348  1
  S  S129  1  0.76942729  0.52596594  0.33122235  1
  S  S130  1  0.83753163  0.89004105  0.39290922  1
  S  S131  1  0.83035168  0.19588964  0.28948357  1
  S  S132  1  0.16678585  0.96171912  0.29883002  1
  S  S133  1  0.16629087  0.65564821  0.39906329  1
  S  S134  1  0.33202848  0.16066664  0.39741619  1
  S  S135  1  0.32560893  0.46470317  0.29864095  1
  S  S136  1  0.67501736  0.69315161  0.28951243  1
  S  S137  1  0.66603754  0.39676673  0.38938589  1
  S  S138  1  0.25585258  0.67340954  0.47746805  1
  S  S139  1  0.68045399  0.27372982  0.51237513  1
  S  S140  1  0.70728397  0.57707840  0.41010266  1
  S  S141  1  0.75966878  0.07343391  0.41035970  1
  S  S142  1  0.76330771  0.76534152  0.51427074  1
  S  S143  1  0.20929924  0.16862373  0.47553189  1
  S  S144  1  0.22606827  0.05047166  0.52286020  1
  S  S145  1  0.24000420  0.34698150  0.42231860  1
  S  S146  1  0.80664558  0.89549167  0.47171022  1
  S  S147  1  0.73393545  0.40018027  0.46929074  1
  S  S148  1  0.29906465  0.84807700  0.42119337  1
  S  S149  1  0.30306790  0.54584070  0.52029902  1
  S  S150  1  0.75091542  0.41956388  0.53488352  1
  S  S151  1  0.73199361  0.72558207  0.43163175  1
  S  S152  1  0.26372599  0.52393399  0.45619750  1
  S  S153  1  0.23598344  0.01764952  0.45863478  1
  S  S154  1  0.76848024  0.22260475  0.43242324  1
  S  S155  1  0.78201095  0.91666267  0.53591787  1
  S  S156  1  0.83541416  0.58583295  0.49276712  1
  S  S157  1  0.15343700  0.34098787  0.50025956  1
  S  S158  1  0.34779217  0.85829672  0.50142535  1
  S  S159  1  0.66339452  0.09189791  0.49059938  1
