# generated using pymatgen
data_Li3PS4
_symmetry_space_group_name_H-M   'P 1'
_cell_length_a   14.91536200
_cell_length_b   18.09023401
_cell_length_c   48.27647300
_cell_angle_alpha   90.00000000
_cell_angle_beta   90.00000000
_cell_angle_gamma   54.48401034
_symmetry_Int_Tables_number   1
_chemical_formula_structural   Li3PS4
_chemical_formula_sum   'Li108 P36 S144'
_cell_volume   10602.61700474
_cell_formula_units_Z   36
loop_
 _symmetry_equiv_pos_site_id
 _symmetry_equiv_pos_as_xyz
  1  'x, y, z'
loop_
 _atom_site_type_symbol
 _atom_site_label
 _atom_site_symmetry_multiplicity
 _atom_site_fract_x
 _atom_site_fract_y
 _atom_site_fract_z
 _atom_site_occupancy
  Li  Li0  1  0.66308743  0.90561216  0.00274696  1
  Li  Li1  1  0.40941116  0.70144670  0.08236114  1
  Li  Li2  1  0.32605572  0.95750801  0.11657095  1
  Li  Li3  1  0.61186598  0.05634406  0.05471795  1
  Li  Li4  1  0.61913394  0.57082232  0.05209037  1
  Li  Li5  1  0.40244000  0.49213408  0.10223904  1
  Li  Li6  1  0.34561751  0.14737258  0.10049463  1
  Li  Li7  1  0.45762689  0.33750664  0.04274475  1
  Li  Li8  1  0.15001510  0.21936296  0.04826528  1
  Li  Li9  1  0.86886022  0.13337909  0.11461964  1
  Li  Li10  1  0.86386315  0.49790670  0.09589872  1
  Li  Li11  1  0.15198024  0.60587986  0.03525010  1
  Li  Li12  1  0.91925397  0.15453620  0.05184136  1
  Li  Li13  1  0.77422947  0.97312840  0.11380904  1
  Li  Li14  1  0.95756083  0.66668008  0.09354885  1
  Li  Li15  1  0.15614631  0.75959661  0.04221848  1
  Li  Li16  1  0.57461036  0.85657830  0.06616634  1
  Li  Li17  1  0.65898285  0.38055565  0.04636331  1
  Li  Li18  1  0.37956222  0.29779184  0.10996451  1
  Li  Li19  1  0.84835416  0.31645012  0.10328733  1
  Li  Li20  1  0.07659586  0.40355283  0.04474006  1
  Li  Li21  1  0.31629639  0.96717291  0.02564844  1
  Li  Li22  1  0.99457769  0.87159656  0.08775146  1
  Li  Li23  1  0.14040834  0.58247116  0.14865336  1
  Li  Li24  1  0.86707110  0.47092334  0.20869968  1
  Li  Li25  1  0.76117495  0.74927723  0.24928870  1
  Li  Li26  1  0.04707740  0.84794339  0.18432193  1
  Li  Li27  1  0.12638221  0.38651455  0.16613550  1
  Li  Li28  1  0.85209123  0.27898938  0.23035485  1
  Li  Li29  1  0.79368732  0.94501842  0.22881575  1
  Li  Li30  1  0.06755090  0.05073056  0.16613244  1
  Li  Li31  1  0.58912048  0.03192362  0.17573820  1
  Li  Li32  1  0.31689745  0.92232378  0.23763843  1
  Li  Li33  1  0.31561896  0.28254853  0.22274434  1
  Li  Li34  1  0.59608533  0.39013036  0.15885777  1
  Li  Li35  1  0.52026015  0.86051919  0.17410649  1
  Li  Li36  1  0.23360796  0.76134248  0.23948416  1
  Li  Li37  1  0.40166989  0.45410670  0.21741253  1
  Li  Li38  1  0.65812021  0.57234072  0.15690859  1
  Li  Li39  1  0.91016858  0.67424050  0.19690788  1
  Li  Li40  1  0.26456863  0.76552913  0.13542021  1
  Li  Li41  1  0.08339034  0.23710981  0.15706880  1
  Li  Li42  1  0.81164754  0.12975858  0.22036424  1
  Li  Li43  1  0.28547752  0.10430900  0.22549589  1
  Li  Li44  1  0.56856450  0.21109767  0.16415302  1
  Li  Li45  1  0.73871239  0.77122632  0.12383172  1
  Li  Li46  1  0.45740316  0.65212745  0.20840300  1
  Li  Li47  1  0.58614361  0.36912730  0.27464868  1
  Li  Li48  1  0.31853978  0.25542616  0.33410622  1
  Li  Li49  1  0.21241091  0.53372433  0.37479749  1
  Li  Li50  1  0.49565173  0.63467646  0.30900822  1
  Li  Li51  1  0.58322018  0.16825951  0.29162672  1
  Li  Li52  1  0.30080412  0.05703878  0.35368712  1
  Li  Li53  1  0.22986022  0.72425642  0.35296004  1
  Li  Li54  1  0.50314788  0.83999395  0.29269286  1
  Li  Li55  1  0.04028953  0.81573129  0.30072363  1
  Li  Li56  1  0.76414583  0.71821689  0.36152746  1
  Li  Li57  1  0.76060046  0.08202381  0.34723720  1
  Li  Li58  1  0.04590845  0.17703377  0.28410388  1
  Li  Li59  1  0.96804549  0.64728054  0.30112043  1
  Li  Li60  1  0.68068991  0.54750446  0.36608786  1
  Li  Li61  1  0.84986659  0.24087797  0.34377832  1
  Li  Li62  1  0.11238968  0.35529080  0.28207201  1
  Li  Li63  1  0.35978113  0.45935837  0.32144755  1
  Li  Li64  1  0.71954959  0.54513416  0.26220795  1
  Li  Li65  1  0.53535026  0.01929005  0.28470729  1
  Li  Li66  1  0.27002906  0.87614296  0.36148840  1
  Li  Li67  1  0.79235557  0.89787912  0.35814711  1
  Li  Li68  1  0.01307855  0.99838698  0.28890864  1
  Li  Li69  1  0.17614528  0.56358401  0.24911264  1
  Li  Li70  1  0.90587490  0.43825507  0.33431496  1
  Li  Li71  1  0.03547744  0.15401199  0.39833402  1
  Li  Li72  1  0.75503214  0.04569370  0.46699119  1
  Li  Li73  1  0.67172267  0.30282922  0.50084554  1
  Li  Li74  1  0.94157650  0.41916068  0.43486335  1
  Li  Li75  1  0.01237233  0.95218584  0.41719133  1
  Li  Li76  1  0.73565198  0.85549978  0.48284221  1
  Li  Li77  1  0.67950237  0.51031668  0.48130839  1
  Li  Li78  1  0.95240134  0.61791980  0.41752215  1
  Li  Li79  1  0.48555684  0.61409311  0.42390816  1
  Li  Li80  1  0.21661345  0.50569688  0.48755956  1
  Li  Li81  1  0.21236744  0.86927836  0.46928096  1
  Li  Li82  1  0.49317660  0.96926727  0.40790780  1
  Li  Li83  1  0.42215335  0.43216115  0.42656708  1
  Li  Li84  1  0.12421491  0.33634005  0.48947622  1
  Li  Li85  1  0.30894961  0.02963699  0.46945135  1
  Li  Li86  1  0.55720161  0.14382395  0.40972060  1
  Li  Li87  1  0.81557084  0.23716040  0.44773413  1
  Li  Li88  1  0.16879689  0.32951654  0.38656035  1
  Li  Li89  1  0.99766228  0.76611762  0.42654688  1
  Li  Li90  1  0.70236517  0.70366948  0.47398061  1
  Li  Li91  1  0.23558329  0.68571278  0.48039098  1
  Li  Li92  1  0.51052192  0.79310006  0.41942216  1
  Li  Li93  1  0.62433779  0.35070463  0.37481118  1
  Li  Li94  1  0.34383515  0.23200738  0.45933318  1
  Li  Li95  1  0.47004026  0.94635075  0.52877215  1
  Li  Li96  1  0.41548920  0.09977695  0.58034818  1
  Li  Li97  1  0.62389606  0.66483792  0.54114072  1
  Li  Li98  1  0.46211302  0.43280637  0.53131270  1
  Li  Li99  1  0.92859827  0.39648887  0.54857036  1
  Li  Li100  1  0.92895036  0.78566027  0.53478215  1
  Li  Li101  1  0.92412118  0.24378014  0.54085075  1
  Li  Li102  1  0.16075834  0.85000680  0.53203924  1
  Li  Li103  1  0.50689825  0.14691699  0.51705835  1
  Li  Li104  1  0.42152815  0.62270942  0.53750446  1
  Li  Li105  1  0.00490893  0.59971133  0.53846537  1
  Li  Li106  1  0.08717603  0.13120674  0.49535619  1
  Li  Li107  1  0.76243989  0.03754192  0.55790729  1
  P  P108  1  0.57405976  0.71536645  0.11162377  1
  P  P109  1  0.85974885  0.81763140  0.05068669  1
  P  P110  1  0.45020925  0.03124618  0.02795952  1
  P  P111  1  0.15699560  0.93590695  0.09078198  1
  P  P112  1  0.11356808  0.40592487  0.10447579  1
  P  P113  1  0.39269054  0.52215827  0.03749424  1
  P  P114  1  0.90749898  0.32208660  0.04142695  1
  P  P115  1  0.62521811  0.23316105  0.10195499  1
  P  P116  1  0.01656716  0.50368307  0.23840044  1
  P  P117  1  0.30145662  0.60793383  0.17655776  1
  P  P118  1  0.88373515  0.82332234  0.15640395  1
  P  P119  1  0.61260313  0.71507892  0.21958402  1
  P  P120  1  0.56112559  0.19573203  0.23013121  1
  P  P121  1  0.83677257  0.30233727  0.16865275  1
  P  P122  1  0.34598587  0.12984402  0.16339270  1
  P  P123  1  0.07444579  0.02071117  0.22774235  1
  P  P124  1  0.46636073  0.29016468  0.36431611  1
  P  P125  1  0.74994373  0.39348835  0.30321143  1
  P  P126  1  0.33319003  0.60790527  0.27987247  1
  P  P127  1  0.06290589  0.50023616  0.34507072  1
  P  P128  1  0.00470813  0.98142114  0.35541499  1
  P  P129  1  0.28572333  0.08892480  0.29219746  1
  P  P130  1  0.79925953  0.91522851  0.29107824  1
  P  P131  1  0.52254293  0.80592897  0.35375087  1
  P  P132  1  0.92352957  0.06766453  0.49258914  1
  P  P133  1  0.19955161  0.17849717  0.42660287  1
  P  P134  1  0.78026877  0.39407778  0.40685607  1
  P  P135  1  0.50700699  0.28844152  0.47202032  1
  P  P136  1  0.45603218  0.76953386  0.48187496  1
  P  P137  1  0.73520047  0.87345332  0.42016011  1
  P  P138  1  0.24432457  0.70141994  0.41467737  1
  P  P139  1  0.96739725  0.59644071  0.47903610  1
  P  P140  1  0.63008806  0.97287057  0.55545563  1
  P  P141  1  0.22004194  0.18639014  0.53237432  1
  P  P142  1  0.17246547  0.68191402  0.54214912  1
  P  P143  1  0.68798841  0.48091307  0.54615475  1
  S  S144  1  0.02553887  0.73421963  0.06475538  1
  S  S145  1  0.28799423  0.10973918  0.01702041  1
  S  S146  1  0.99192348  0.01221930  0.08087150  1
  S  S147  1  0.00890356  0.51575830  0.07899982  1
  S  S148  1  0.28080042  0.63148615  0.01370294  1
  S  S149  1  0.00412810  0.22291097  0.07061609  1
  S  S150  1  0.82834770  0.28317627  0.01824883  1
  S  S151  1  0.53441888  0.21269125  0.07498655  1
  S  S152  1  0.47692822  0.54651250  0.06669322  1
  S  S153  1  0.47873376  0.02590392  0.07041481  1
  S  S154  1  0.55503890  0.71987741  0.06913483  1
  S  S155  1  0.85819685  0.80898625  0.00941858  1
  S  S156  1  0.51103274  0.89815171  0.01713726  1
  S  S157  1  0.21107559  0.80261590  0.08205717  1
  S  S158  1  0.80767889  0.94566357  0.06427099  1
  S  S159  1  0.78868602  0.43511264  0.06556692  1
  S  S160  1  0.22317801  0.29976003  0.07784686  1
  S  S161  1  0.50837218  0.41516668  0.01412071  1
  S  S162  1  0.78340244  0.76663718  0.07041275  1
  S  S163  1  0.24076280  0.97768145  0.07151643  1
  S  S164  1  0.54051662  0.06765438  0.00855450  1
  S  S165  1  0.30742765  0.48473862  0.06101458  1
  S  S166  1  0.00335873  0.34309004  0.01760685  1
  S  S167  1  0.72778993  0.25597174  0.08182208  1
  S  S168  1  0.73452762  0.63059016  0.12480211  1
  S  S169  1  0.46524008  0.52386949  0.18748935  1
  S  S170  1  0.71938091  0.90335319  0.14592840  1
  S  S171  1  0.45112508  0.79632083  0.20703519  1
  S  S172  1  0.45540999  0.30290247  0.20423381  1
  S  S173  1  0.73572956  0.41162109  0.14310743  1
  S  S174  1  0.43997684  0.02144426  0.18955391  1
  S  S175  1  0.71748502  0.12532432  0.12845367  1
  S  S176  1  0.25689421  0.11236659  0.13510317  1
  S  S177  1  0.98557403  0.00236132  0.19935094  1
  S  S178  1  0.20694298  0.42702806  0.13003849  1
  S  S179  1  0.93433641  0.31776763  0.19436305  1
  S  S180  1  0.91484725  0.81252377  0.19809025  1
  S  S181  1  0.18891418  0.93023246  0.13266290  1
  S  S182  1  0.99105647  0.51097963  0.19618774  1
  S  S183  1  0.27231421  0.61795036  0.13460526  1
  S  S184  1  0.93869243  0.69282307  0.14399324  1
  S  S185  1  0.66613971  0.58413925  0.20817132  1
  S  S186  1  0.52647592  0.84453632  0.12241527  1
  S  S187  1  0.25008820  0.73785448  0.18850684  1
  S  S188  1  0.23076700  0.23604457  0.18888411  1
  S  S189  1  0.50873768  0.34152717  0.12693627  1
  S  S190  1  0.67385565  0.09087221  0.20351316  1
  S  S191  1  0.94802194  0.19686908  0.14218087  1
  S  S192  1  0.21952628  0.56096537  0.19481867  1
  S  S193  1  0.48598312  0.67382710  0.12968419  1
  S  S194  1  0.69368352  0.76248162  0.20111914  1
  S  S195  1  0.96024219  0.87558462  0.13851749  1
  S  S196  1  0.01600382  0.38496952  0.12791108  1
  S  S197  1  0.74011919  0.27920815  0.19168500  1
  S  S198  1  0.44902535  0.15093788  0.14175286  1
  S  S199  1  0.17541339  0.04202160  0.20597700  1
  S  S200  1  0.17924641  0.42168151  0.24983966  1
  S  S201  1  0.91408987  0.30913038  0.31381187  1
  S  S202  1  0.16926121  0.69228128  0.26902648  1
  S  S203  1  0.90049547  0.58214338  0.33348435  1
  S  S204  1  0.90774144  0.09031349  0.32934983  1
  S  S205  1  0.18506862  0.19897202  0.26657348  1
  S  S206  1  0.89355778  0.80479173  0.31684072  1
  S  S207  1  0.16786893  0.91395025  0.25452713  1
  S  S208  1  0.70887362  0.90009551  0.26239116  1
  S  S209  1  0.42836038  0.78707523  0.32763835  1
  S  S210  1  0.65606924  0.21576198  0.25538191  1
  S  S211  1  0.38172826  0.10416427  0.31881558  1
  S  S212  1  0.36193713  0.59868171  0.32176178  1
  S  S213  1  0.63550303  0.70970850  0.26184094  1
  S  S214  1  0.44508603  0.29464174  0.32196785  1
  S  S215  1  0.71981355  0.40403545  0.26135899  1
  S  S216  1  0.38413389  0.47828629  0.26792147  1
  S  S217  1  0.11595628  0.36968195  0.33342061  1
  S  S218  1  0.96383662  0.63422299  0.24992950  1
  S  S219  1  0.69860892  0.52302627  0.31542406  1
  S  S220  1  0.68424767  0.02152082  0.31657902  1
  S  S221  1  0.95698360  0.12801872  0.25273330  1
  S  S222  1  0.12068950  0.87508564  0.33002444  1
  S  S223  1  0.39881625  0.98413099  0.26551201  1
  S  S224  1  0.66749652  0.34656195  0.32125176  1
  S  S225  1  0.93572216  0.45643008  0.25693328  1
  S  S226  1  0.14402368  0.54737628  0.32647654  1
  S  S227  1  0.41582053  0.65462023  0.26187161  1
  S  S228  1  0.46831448  0.17010539  0.25368149  1
  S  S229  1  0.19240989  0.06197872  0.31442259  1
  S  S230  1  0.90052213  0.93655067  0.26935862  1
  S  S231  1  0.61501513  0.83344803  0.33143405  1
  S  S232  1  0.62733254  0.20879553  0.37717126  1
  S  S233  1  0.36367216  0.09927939  0.43737203  1
  S  S234  1  0.61650283  0.47822085  0.39591974  1
  S  S235  1  0.34651876  0.37287880  0.45886296  1
  S  S236  1  0.36356098  0.87755497  0.45545468  1
  S  S237  1  0.64059183  0.98222285  0.39412054  1
  S  S238  1  0.34637146  0.59206411  0.44016075  1
  S  S239  1  0.62447948  0.69834605  0.38005006  1
  S  S240  1  0.14648614  0.68617083  0.38899487  1
  S  S241  1  0.87453143  0.57472164  0.45346768  1
  S  S242  1  0.09418698  0.99973137  0.38345691  1
  S  S243  1  0.82468319  0.89064901  0.44840158  1
  S  S244  1  0.80901487  0.38393417  0.44882303  1
  S  S245  1  0.08841461  0.49324358  0.38723913  1
  S  S246  1  0.89192078  0.07258824  0.45069789  1
  S  S247  1  0.17056914  0.18769759  0.38482399  1
  S  S248  1  0.83194725  0.26425580  0.39470686  1
  S  S249  1  0.55481440  0.15903753  0.46127097  1
  S  S250  1  0.41316771  0.42115528  0.37539694  1
  S  S251  1  0.14341763  0.30942589  0.43899194  1
  S  S252  1  0.13334344  0.80625933  0.44132659  1
  S  S253  1  0.40766967  0.91153921  0.38009191  1
  S  S254  1  0.57225449  0.66128239  0.45684370  1
  S  S255  1  0.84977983  0.76740640  0.39453559  1
  S  S256  1  0.12263784  0.12646500  0.44439657  1
  S  S257  1  0.38459444  0.24324834  0.38254205  1
  S  S258  1  0.59435248  0.33042263  0.45376675  1
  S  S259  1  0.86273499  0.44067128  0.38864618  1
  S  S260  1  0.90429282  0.95994398  0.37749719  1
  S  S261  1  0.63289285  0.85167750  0.44183713  1
  S  S262  1  0.34019450  0.72517379  0.39154133  1
  S  S263  1  0.06457687  0.61789505  0.45558214  1
  S  S264  1  0.08856078  0.99157963  0.50260081  1
  S  S265  1  0.79212611  0.89467304  0.56655705  1
  S  S266  1  0.05440703  0.26966766  0.51820071  1
  S  S267  1  0.07718394  0.78067143  0.51276232  1
  S  S268  1  0.79964143  0.37090554  0.56978353  1
  S  S269  1  0.07234652  0.48691332  0.50452344  1
  S  S270  1  0.60343044  0.45750771  0.51678655  1
  S  S271  1  0.54704505  0.78981873  0.50884350  1
  S  S272  1  0.25142020  0.72067206  0.56550187  1
  S  S273  1  0.22047810  0.19547856  0.57368499  1
  S  S274  1  0.52682491  0.28358575  0.51446360  1
  S  S275  1  0.60270941  0.97733567  0.51296494  1
  S  S276  1  0.27336679  0.05796291  0.51890338  1
  S  S277  1  0.86956575  0.20102426  0.50100568  1
  S  S278  1  0.56839752  0.10631693  0.56612530  1
  S  S279  1  0.57259087  0.58754386  0.56966441  1
  S  S280  1  0.85708849  0.70278039  0.50554233  1
  S  S281  1  0.29159090  0.56813666  0.51824429  1
  S  S282  1  0.53929470  0.93698307  0.57486119  1
  S  S283  1  0.84005741  0.02592457  0.51204653  1
  S  S284  1  0.29699529  0.23720895  0.51285452  1
  S  S285  1  0.35313498  0.74720321  0.50211370  1
  S  S286  1  0.07536279  0.66175868  0.56575205  1
  S  S287  1  0.77375802  0.51814340  0.52279244  1
