# generated using pymatgen
data_Li3PS4
_symmetry_space_group_name_H-M   'P 1'
_cell_length_a   10.24241400
_cell_length_b   18.09023381
_cell_length_c   43.41558100
_cell_angle_alpha   90.00000000
_cell_angle_beta   90.00000000
_cell_angle_gamma   64.97678698
_symmetry_Int_Tables_number   1
_chemical_formula_structural   Li3PS4
_chemical_formula_sum   'Li72 P24 S96'
_cell_volume   7289.29864782
_cell_formula_units_Z   24
loop_
 _symmetry_equiv_pos_site_id
 _symmetry_equiv_pos_as_xyz
  1  'x, y, z'
loop_
 _atom_site_type_symbol
 _atom_site_label
 _atom_site_symmetry_multiplicity
 _atom_site_fract_x
 _atom_site_fract_y
 _atom_site_fract_z
 _atom_site_occupancy
  Li  Li0  1  0.83275323  0.77892006  0.04305318  1
  Li  Li1  1  0.80095728  0.97874491  0.08151949  1
  Li  Li2  1  0.01510759  0.57034128  0.08467174  1
  Li  Li3  1  0.71128034  0.23493019  0.08602975  1
  Li  Li4  1  0.44886310  0.28724803  0.03017496  1
  Li  Li5  1  0.36072483  0.10006254  0.04189393  1
  Li  Li6  1  0.84340088  0.37834603  0.06214943  1
  Li  Li7  1  0.35925251  0.45690469  0.02982272  1
  Li  Li8  1  0.31838083  0.86006057  0.06170619  1
  Li  Li9  1  0.61701119  0.56961510  0.13210893  1
  Li  Li10  1  0.56360011  0.80358916  0.18029058  1
  Li  Li11  1  0.64659329  0.35521970  0.15334795  1
  Li  Li12  1  0.54542233  0.00900817  0.15743692  1
  Li  Li13  1  0.22502377  0.08813556  0.11617506  1
  Li  Li14  1  0.22351120  0.42034458  0.11378311  1
  Li  Li15  1  0.13397799  0.90615461  0.12510291  1
  Li  Li16  1  0.29557439  0.65250227  0.08976873  1
  Li  Li17  1  0.65764460  0.78284747  0.10962089  1
  Li  Li18  1  0.62661332  0.15743549  0.16395966  1
  Li  Li19  1  0.15571001  0.27004749  0.10606881  1
  Li  Li20  1  0.06670086  0.70833328  0.14000851  1
  Li  Li21  1  0.38392954  0.38073285  0.22556892  1
  Li  Li22  1  0.32726074  0.61952395  0.27210338  1
  Li  Li23  1  0.39174723  0.17400397  0.24285899  1
  Li  Li24  1  0.31794548  0.82678616  0.24786476  1
  Li  Li25  1  0.98532943  0.91906578  0.20777676  1
  Li  Li26  1  0.96340876  0.28798002  0.18935160  1
  Li  Li27  1  0.90758287  0.72929442  0.21663386  1
  Li  Li28  1  0.05466790  0.46738197  0.18209733  1
  Li  Li29  1  0.41903026  0.59644902  0.20216953  1
  Li  Li30  1  0.38603069  0.97794038  0.25548357  1
  Li  Li31  1  0.02973061  0.10264651  0.20131556  1
  Li  Li32  1  0.83372458  0.52259441  0.23592857  1
  Li  Li33  1  0.15153098  0.20208255  0.31301291  1
  Li  Li34  1  0.08891395  0.44447706  0.36327736  1
  Li  Li35  1  0.15337489  0.99829453  0.33695533  1
  Li  Li36  1  0.08895334  0.65220091  0.34003700  1
  Li  Li37  1  0.74854941  0.73296807  0.30058512  1
  Li  Li38  1  0.72689086  0.10253688  0.28309602  1
  Li  Li39  1  0.66455588  0.54695003  0.30857203  1
  Li  Li40  1  0.83345495  0.28253320  0.27208039  1
  Li  Li41  1  0.17978419  0.41691368  0.29453090  1
  Li  Li42  1  0.10197990  0.84219455  0.33086412  1
  Li  Li43  1  0.76666784  0.92109620  0.29208633  1
  Li  Li44  1  0.60862766  0.33329977  0.32760269  1
  Li  Li45  1  0.91340127  0.02328615  0.40462066  1
  Li  Li46  1  0.85900219  0.25378180  0.45329341  1
  Li  Li47  1  0.93352571  0.81823164  0.42653162  1
  Li  Li48  1  0.83204476  0.46933484  0.43190438  1
  Li  Li49  1  0.51733303  0.53789027  0.39334246  1
  Li  Li50  1  0.49408071  0.91037220  0.37512006  1
  Li  Li51  1  0.43492060  0.35639216  0.39899735  1
  Li  Li52  1  0.57501409  0.10172935  0.36732930  1
  Li  Li53  1  0.05015394  0.22839005  0.38264948  1
  Li  Li54  1  0.85184181  0.66943902  0.41971757  1
  Li  Li55  1  0.45210605  0.72292669  0.38235242  1
  Li  Li56  1  0.41032667  0.11922433  0.44380040  1
  Li  Li57  1  0.67676767  0.84646552  0.50204055  1
  Li  Li58  1  0.64155184  0.04881349  0.54049052  1
  Li  Li59  1  0.77271885  0.58953428  0.49755588  1
  Li  Li60  1  0.45037575  0.25988888  0.49817929  1
  Li  Li61  1  0.26666551  0.41221966  0.46627226  1
  Li  Li62  1  0.25543165  0.73781852  0.46762841  1
  Li  Li63  1  0.18173819  0.17341639  0.49446849  1
  Li  Li64  1  0.34633648  0.92017925  0.45851809  1
  Li  Li65  1  0.80975629  0.04429702  0.47477150  1
  Li  Li66  1  0.64093650  0.44652964  0.52194595  1
  Li  Li67  1  0.33373018  0.55628739  0.47734896  1
  Li  Li68  1  0.15567708  0.96733726  0.52151368  1
  Li  Li69  1  0.03334104  0.54164782  0.55202439  1
  Li  Li70  1  0.11754703  0.72667119  0.54196489  1
  Li  Li71  1  0.12064357  0.37227830  0.55554091  1
  P  P72  1  0.10249966  0.78582936  0.05204568  1
  P  P73  1  0.54109086  0.94193422  0.07014733  1
  P  P74  1  0.52157062  0.41037831  0.08924552  1
  P  P75  1  0.14456628  0.33636481  0.03880843  1
  P  P76  1  0.85938778  0.61538225  0.14727126  1
  P  P77  1  0.32239866  0.75918443  0.16273075  1
  P  P78  1  0.28089370  0.22705477  0.17786700  1
  P  P79  1  0.91691251  0.13997895  0.13189867  1
  P  P80  1  0.62778513  0.43014853  0.23802169  1
  P  P81  1  0.08554995  0.57858773  0.25409179  1
  P  P82  1  0.04763095  0.04226267  0.27134779  1
  P  P83  1  0.67092132  0.96423317  0.22167706  1
  P  P84  1  0.38691292  0.25043565  0.32911280  1
  P  P85  1  0.85326184  0.39577186  0.34532549  1
  P  P86  1  0.80985378  0.86461914  0.36229737  1
  P  P87  1  0.43129422  0.78292385  0.31220338  1
  P  P88  1  0.15592744  0.06676644  0.42133347  1
  P  P89  1  0.61783705  0.21225379  0.43708725  1
  P  P90  1  0.56452908  0.68537733  0.45180749  1
  P  P91  1  0.19835351  0.60033830  0.40559922  1
  P  P92  1  0.93537551  0.88364800  0.51357088  1
  P  P93  1  0.37533945  0.03886317  0.53161045  1
  P  P94  1  0.33651292  0.49253343  0.54414313  1
  P  P95  1  0.96511029  0.41306699  0.49538649  1
  S  S96  1  0.32153346  0.72792791  0.04826860  1
  S  S97  1  0.31857909  0.00086541  0.07234938  1
  S  S98  1  0.33229534  0.51038944  0.08005457  1
  S  S99  1  0.31358903  0.23585612  0.05937568  1
  S  S100  1  0.99583617  0.30654880  0.02005074  1
  S  S101  1  0.99722548  0.80100234  0.01224623  1
  S  S102  1  0.58241772  0.82608336  0.05470924  1
  S  S103  1  0.05731574  0.89867297  0.07280735  1
  S  S104  1  0.04754703  0.41459558  0.07640211  1
  S  S105  1  0.60736257  0.35097422  0.04763877  1
  S  S106  1  0.03038795  0.71621557  0.08210534  1
  S  S107  1  0.61320913  0.00637568  0.04182277  1
  S  S108  1  0.23694363  0.38488231  0.00723271  1
  S  S109  1  0.08135200  0.55859151  0.14199509  1
  S  S110  1  0.10165292  0.82051728  0.16577341  1
  S  S111  1  0.12274546  0.33161628  0.15823040  1
  S  S112  1  0.08818332  0.04081726  0.14944912  1
  S  S113  1  0.75954890  0.11024042  0.11398464  1
  S  S114  1  0.68079388  0.43566508  0.10831120  1
  S  S115  1  0.64705550  0.92513597  0.11196812  1
  S  S116  1  0.76169371  0.62936896  0.10506211  1
  S  S117  1  0.35983670  0.64525665  0.14477765  1
  S  S118  1  0.81661552  0.73126881  0.16349646  1
  S  S119  1  0.82176666  0.21596306  0.16959031  1
  S  S120  1  0.37590879  0.14967644  0.14139984  1
  S  S121  1  0.79258773  0.54648913  0.17488978  1
  S  S122  1  0.39642857  0.82715707  0.13628230  1
  S  S123  1  0.48212694  0.33250031  0.11782735  1
  S  S124  1  0.98101975  0.19589131  0.09775547  1
  S  S125  1  0.84826772  0.37794338  0.23328235  1
  S  S126  1  0.86479363  0.64222486  0.25592527  1
  S  S127  1  0.88668772  0.14371583  0.25232430  1
  S  S128  1  0.84273625  0.86564192  0.23960523  1
  S  S129  1  0.50917729  0.93863539  0.20369148  1
  S  S130  1  0.44032761  0.24806201  0.19954130  1
  S  S131  1  0.42712259  0.73501191  0.20441804  1
  S  S132  1  0.51786232  0.44599691  0.19697828  1
  S  S133  1  0.12327528  0.46385281  0.23662626  1
  S  S134  1  0.57793761  0.54717653  0.25461828  1
  S  S135  1  0.57682211  0.03935897  0.25955758  1
  S  S136  1  0.14856393  0.96765310  0.23413352  1
  S  S137  1  0.56736304  0.35889126  0.26590371  1
  S  S138  1  0.16301088  0.64489296  0.22766330  1
  S  S139  1  0.18619517  0.18409179  0.21068802  1
  S  S140  1  0.74803690  0.01391711  0.18788691  1
  S  S141  1  0.60774146  0.19293903  0.32698606  1
  S  S142  1  0.63191303  0.45593955  0.34750741  1
  S  S143  1  0.64171703  0.96386736  0.34383010  1
  S  S144  1  0.59606899  0.68372027  0.33135859  1
  S  S145  1  0.27329709  0.75725401  0.29183432  1
  S  S146  1  0.20574602  0.06490182  0.29297708  1
  S  S147  1  0.18573347  0.55526694  0.29629148  1
  S  S148  1  0.28497344  0.26824810  0.28691430  1
  S  S149  1  0.89718129  0.28091880  0.32773238  1
  S  S150  1  0.34136737  0.36721089  0.34559538  1
  S  S151  1  0.33118786  0.85823590  0.34945838  1
  S  S152  1  0.90624080  0.78937355  0.32445692  1
  S  S153  1  0.31614153  0.18297425  0.35653577  1
  S  S154  1  0.92371339  0.46584737  0.31896819  1
  S  S155  1  0.95754788  0.99356916  0.30342619  1
  S  S156  1  0.51615089  0.83217023  0.27962107  1
  S  S157  1  0.37656474  0.00644154  0.41777420  1
  S  S158  1  0.39476478  0.27044617  0.44075475  1
  S  S159  1  0.39344343  0.78451121  0.43423169  1
  S  S160  1  0.35716164  0.49463356  0.42468295  1
  S  S161  1  0.03795927  0.58024177  0.38388592  1
  S  S162  1  0.97195348  0.88890294  0.38100158  1
  S  S163  1  0.95269433  0.37734668  0.38774065  1
  S  S164  1  0.04951783  0.09095763  0.37969756  1
  S  S165  1  0.65952968  0.09582009  0.42090271  1
  S  S166  1  0.11702206  0.18087231  0.43926982  1
  S  S167  1  0.10454136  0.67723713  0.44209331  1
  S  S168  1  0.65979191  0.60870207  0.41425984  1
  S  S169  1  0.08243972  0.99912428  0.44798415  1
  S  S170  1  0.69071055  0.27717119  0.40958318  1
  S  S171  1  0.72997498  0.81463480  0.39535793  1
  S  S172  1  0.29354651  0.64259564  0.37258630  1
  S  S173  1  0.15788084  0.82563377  0.51112088  1
  S  S174  1  0.15641523  0.09721696  0.53571672  1
  S  S175  1  0.16892722  0.59217135  0.52288373  1
  S  S176  1  0.15054018  0.31296307  0.50625952  1
  S  S177  1  0.80513073  0.38751180  0.47663186  1
  S  S178  1  0.72247547  0.71479946  0.46960808  1
  S  S179  1  0.70920303  0.19709511  0.48009157  1
  S  S180  1  0.82857138  0.90064330  0.47180332  1
  S  S181  1  0.41988707  0.92595184  0.51097043  1
  S  S182  1  0.89304718  0.99947954  0.52912944  1
  S  S183  1  0.87603850  0.47646855  0.53619119  1
  S  S184  1  0.43442920  0.41266416  0.50706577  1
  S  S185  1  0.86443292  0.81867185  0.54187370  1
  S  S186  1  0.44728567  0.10856559  0.50157031  1
  S  S187  1  0.50108416  0.62984088  0.48617672  1
  S  S188  1  0.00411138  0.48942559  0.46581299  1
  S  S189  1  0.48498332  0.52284975  0.56281160  1
  S  S190  1  0.48129238  0.02358614  0.57134025  1
  S  S191  1  0.24330417  0.44611875  0.57631545  1
