# generated using pymatgen
data_Li3PS4
_symmetry_space_group_name_H-M   'P 1'
_cell_length_a   8.10679100
_cell_length_b   18.09023400
_cell_length_c   45.18558600
_cell_angle_alpha   90.00000000
_cell_angle_beta   90.00000000
_cell_angle_gamma   90.00000000
_symmetry_Int_Tables_number   1
_chemical_formula_structural   Li3PS4
_chemical_formula_sum   'Li54 P18 S72'
_cell_volume   6626.63546020
_cell_formula_units_Z   18
loop_
 _symmetry_equiv_pos_site_id
 _symmetry_equiv_pos_as_xyz
  1  'x, y, z'
loop_
 _atom_site_type_symbol
 _atom_site_label
 _atom_site_symmetry_multiplicity
 _atom_site_fract_x
 _atom_site_fract_y
 _atom_site_fract_z
 _atom_site_occupancy
  Li  Li0  1  0.01421730  0.93188916  0.09257452  1
  Li  Li1  1  0.91663984  0.43987677  0.10315857  1
  Li  Li2  1  0.81883044  0.15267348  0.12184651  1
  Li  Li3  1  0.52762291  0.14387642  0.07859061  1
  Li  Li4  1  0.31455489  0.44136221  0.10684713  1
  Li  Li5  1  0.44373691  0.91232532  0.09261479  1
  Li  Li6  1  0.01430878  0.26755880  0.08273791  1
  Li  Li7  1  0.31522243  0.27125223  0.11448701  1
  Li  Li8  1  0.01749941  0.45333136  0.16061837  1
  Li  Li9  1  0.02999700  0.69750129  0.19176156  1
  Li  Li10  1  0.07026953  0.28179299  0.16052669  1
  Li  Li11  1  0.96476625  0.89813299  0.17522609  1
  Li  Li12  1  0.53746264  0.89566879  0.17761140  1
  Li  Li13  1  0.50478104  0.26547710  0.17245121  1
  Li  Li14  1  0.46776932  0.69790937  0.19267640  1
  Li  Li15  1  0.54211334  0.48512607  0.15199916  1
  Li  Li16  1  0.01382100  0.70592673  0.10796121  1
  Li  Li17  1  0.04844573  0.06108873  0.17597085  1
  Li  Li18  1  0.47250898  0.06327536  0.17259375  1
  Li  Li19  1  0.47528981  0.71048605  0.10596785  1
  Li  Li20  1  0.95758609  0.23984294  0.24409039  1
  Li  Li21  1  0.04105763  0.46193271  0.29973490  1
  Li  Li22  1  0.03013613  0.03630222  0.26560747  1
  Li  Li23  1  0.97792989  0.67441063  0.27641175  1
  Li  Li24  1  0.54449078  0.65968208  0.28059392  1
  Li  Li25  1  0.46455072  0.02620696  0.26491276  1
  Li  Li26  1  0.47705583  0.46334293  0.29200533  1
  Li  Li27  1  0.52156899  0.23110337  0.25204156  1
  Li  Li28  1  0.96054382  0.46242936  0.23169574  1
  Li  Li29  1  0.94787648  0.86759139  0.26705759  1
  Li  Li30  1  0.45056808  0.83008400  0.27644975  1
  Li  Li31  1  0.47941540  0.47545099  0.21884545  1
  Li  Li32  1  0.97245012  0.99832548  0.35213227  1
  Li  Li33  1  0.98691311  0.24408000  0.38365072  1
  Li  Li34  1  0.03579399  0.80100707  0.36640345  1
  Li  Li35  1  0.93437012  0.41622036  0.38320242  1
  Li  Li36  1  0.49833094  0.43494951  0.37106737  1
  Li  Li37  1  0.46515857  0.80090665  0.36784888  1
  Li  Li38  1  0.46180687  0.21307346  0.39205520  1
  Li  Li39  1  0.53536969  0.00135213  0.35122395  1
  Li  Li40  1  0.03907931  0.23567380  0.31289841  1
  Li  Li41  1  0.95764775  0.63785686  0.36724073  1
  Li  Li42  1  0.53141600  0.63420618  0.37145459  1
  Li  Li43  1  0.52286633  0.22064188  0.32554697  1
  Li  Li44  1  0.97996058  0.76747602  0.45026518  1
  Li  Li45  1  0.18635413  0.54641773  0.42248987  1
  Li  Li46  1  0.08473265  0.25749563  0.44100473  1
  Li  Li47  1  0.68615688  0.25750081  0.43670765  1
  Li  Li48  1  0.47789403  0.55236429  0.46535114  1
  Li  Li49  1  0.55356428  0.78237431  0.45160598  1
  Li  Li50  1  0.98660850  0.99053594  0.43580325  1
  Li  Li51  1  0.98875540  0.43089543  0.46114425  1
  Li  Li52  1  0.68779619  0.42748013  0.42907947  1
  Li  Li53  1  0.52658826  0.98630353  0.43923427  1
  P  P54  1  0.16796420  0.79617332  0.04560375  1
  P  P55  1  0.24349866  0.57718600  0.14117408  1
  P  P56  1  0.74471008  0.83267151  0.10552872  1
  P  P57  1  0.73290724  0.32089712  0.12051388  1
  P  P58  1  0.24564662  0.11214059  0.11716106  1
  P  P59  1  0.24962312  0.34092413  0.23906394  1
  P  P60  1  0.75395595  0.59633407  0.20704700  1
  P  P61  1  0.75017665  0.05098745  0.22209886  1
  P  P62  1  0.24432868  0.88304285  0.22001536  1
  P  P63  1  0.24701843  0.10104212  0.33691891  1
  P  P64  1  0.75172262  0.35661017  0.30505938  1
  P  P65  1  0.74785764  0.81456122  0.32345894  1
  P  P66  1  0.25460635  0.64629238  0.32156241  1
  P  P67  1  0.25608574  0.86371809  0.43812597  1
  P  P68  1  0.76075568  0.11984150  0.40281544  1
  P  P69  1  0.75728141  0.58557579  0.42643388  1
  P  P70  1  0.26997262  0.37751777  0.42331434  1
  P  P71  1  0.83203279  0.90033769  0.49861682  1
  S  S72  1  0.16397898  0.78438094  0.99991739  1
  S  S73  1  0.93747539  0.77777291  0.02732418  1
  S  S74  1  0.74860573  0.73698042  0.08146003  1
  S  S75  1  0.22386610  0.90146464  0.05696289  1
  S  S76  1  0.72621786  0.24181588  0.08427841  1
  S  S77  1  0.24439324  0.71042474  0.06974581  1
  S  S78  1  0.72997303  0.92501126  0.07966982  1
  S  S79  1  0.24282218  0.17696528  0.07947196  1
  S  S80  1  0.43559416  0.56339221  0.11165376  1
  S  S81  1  0.53458431  0.82857583  0.13178082  1
  S  S82  1  0.49662955  0.35625574  0.13301352  1
  S  S83  1  0.45458969  0.04824597  0.11484690  1
  S  S84  1  0.03015793  0.05416604  0.12085345  1
  S  S85  1  0.10620841  0.35651096  0.11642339  1
  S  S86  1  0.96274746  0.83461431  0.12927004  1
  S  S87  1  0.01609394  0.56094864  0.12159347  1
  S  S88  1  0.75310173  0.48781673  0.19025229  1
  S  S89  1  0.24837190  0.68515113  0.15500506  1
  S  S90  1  0.26716019  0.17323091  0.15636760  1
  S  S91  1  0.74967946  0.99782049  0.18106619  1
  S  S92  1  0.27307587  0.50109300  0.17457554  1
  S  S93  1  0.74787798  0.67578933  0.17566141  1
  S  S94  1  0.78687264  0.24946939  0.15685470  1
  S  S95  1  0.25085064  0.95236426  0.18341835  1
  S  S96  1  0.47336679  0.33589345  0.21814133  1
  S  S97  1  0.54061317  0.60370938  0.23197489  1
  S  S98  1  0.53597528  0.11232848  0.22294349  1
  S  S99  1  0.45488255  0.82066898  0.22023143  1
  S  S100  1  0.03120227  0.82178046  0.21772904  1
  S  S101  1  0.96198866  0.11403542  0.22283654  1
  S  S102  1  0.96885350  0.60211755  0.23108090  1
  S  S103  1  0.04774932  0.33803245  0.21105294  1
  S  S104  1  0.75811778  0.25254774  0.28543194  1
  S  S105  1  0.24301454  0.44514076  0.25859852  1
  S  S106  1  0.23774946  0.93592374  0.26079920  1
  S  S107  1  0.74371187  0.76184006  0.28262735  1
  S  S108  1  0.23424176  0.25229593  0.26715997  1
  S  S109  1  0.76430468  0.44537701  0.27689988  1
  S  S110  1  0.74981027  0.98234902  0.25802728  1
  S  S111  1  0.26481405  0.71384793  0.28538750  1
  S  S112  1  0.45879793  0.09406987  0.31152839  1
  S  S113  1  0.52914828  0.36057853  0.32636486  1
  S  S114  1  0.53598195  0.87656927  0.32545100  1
  S  S115  1  0.46187650  0.57994499  0.32253719  1
  S  S116  1  0.03623335  0.58877070  0.31908781  1
  S  S117  1  0.95936494  0.87619211  0.32363994  1
  S  S118  1  0.95558625  0.36081723  0.33258065  1
  S  S119  1  0.03033720  0.09563072  0.31342140  1
  S  S120  1  0.75471394  0.01194478  0.38895794  1
  S  S121  1  0.24992514  0.20950446  0.35382909  1
  S  S122  1  0.25196291  0.69999977  0.36247453  1
  S  S123  1  0.73759478  0.52431284  0.38731476  1
  S  S124  1  0.25427277  0.02120617  0.36814528  1
  S  S125  1  0.73089017  0.19602156  0.36940779  1
  S  S126  1  0.75018819  0.74494969  0.35998281  1
  S  S127  1  0.21636301  0.44987458  0.38724018  1
  S  S128  1  0.47019606  0.86841759  0.41305477  1
  S  S129  1  0.56886925  0.13429241  0.43233255  1
  S  S130  1  0.54556666  0.64803702  0.42876645  1
  S  S131  1  0.50605266  0.34245101  0.41052580  1
  S  S132  1  0.89646040  0.34154741  0.42759838  1
  S  S133  1  0.97079020  0.64462638  0.42273799  1
  S  S134  1  0.98844166  0.13595024  0.42228438  1
  S  S135  1  0.04142898  0.86275601  0.41322944  1
  S  S136  1  0.77496358  0.79552791  0.48681714  1
  S  S137  1  0.24991598  0.95871832  0.46262100  1
  S  S138  1  0.27722262  0.45586154  0.45981321  1
  S  S139  1  0.26516864  0.77070309  0.46360297  1
  S  S140  1  0.75863953  0.98707337  0.47472832  1
  S  S141  1  0.76174572  0.52126027  0.46427159  1
  S  S142  1  0.83516404  0.91112366  0.54434612  1
  S  S143  1  0.06241682  0.91701438  0.51713241  1
