# generated using pymatgen
data_Li3PS4
_symmetry_space_group_name_H-M   'P 1'
_cell_length_a   10.24241400
_cell_length_b   14.48086959
_cell_length_c   46.32433700
_cell_angle_alpha   90.00000000
_cell_angle_beta   90.00000000
_cell_angle_gamma   74.68014200
_symmetry_Int_Tables_number   1
_chemical_formula_structural   Li3PS4
_chemical_formula_sum   'Li60 P20 S80'
_cell_volume   6626.63516060
_cell_formula_units_Z   20
loop_
 _symmetry_equiv_pos_site_id
 _symmetry_equiv_pos_as_xyz
  1  'x, y, z'
loop_
 _atom_site_type_symbol
 _atom_site_label
 _atom_site_symmetry_multiplicity
 _atom_site_fract_x
 _atom_site_fract_y
 _atom_site_fract_z
 _atom_site_occupancy
  Li  Li0  1  0.83517411  0.77754534  0.04909630  1
  Li  Li1  1  0.82243628  0.06311892  0.06494070  1
  Li  Li2  1  0.71099311  0.55469577  0.08703797  1
  Li  Li3  1  0.80116031  0.29929633  0.03310087  1
  Li  Li4  1  0.25403765  0.21672442  0.07960219  1
  Li  Li5  1  0.28304851  0.69283135  0.02625577  1
  Li  Li6  1  0.58875935  0.75542813  0.01686952  1
  Li  Li7  1  0.90695923  0.46137163  0.02505503  1
  Li  Li8  1  0.37720624  0.42350983  0.06485683  1
  Li  Li9  1  0.32763464  0.92308038  0.07217931  1
  Li  Li10  1  0.47529675  0.64825486  0.14991258  1
  Li  Li11  1  0.48840251  0.94711300  0.16862297  1
  Li  Li12  1  0.40164764  0.42318534  0.19003184  1
  Li  Li13  1  0.54393898  0.15619210  0.12934188  1
  Li  Li14  1  0.92548489  0.10160399  0.18517477  1
  Li  Li15  1  0.02145638  0.50185244  0.13070554  1
  Li  Li16  1  0.09425335  0.02943793  0.11303283  1
  Li  Li17  1  0.18621990  0.68380938  0.10866574  1
  Li  Li18  1  0.68043446  0.85963452  0.10582114  1
  Li  Li19  1  0.65238523  0.33828187  0.12079426  1
  Li  Li20  1  0.02296583  0.30520567  0.15865872  1
  Li  Li21  1  0.97447717  0.80268104  0.14965970  1
  Li  Li22  1  0.15111509  0.51514164  0.24824142  1
  Li  Li23  1  0.15351467  0.82920958  0.27035910  1
  Li  Li24  1  0.07827508  0.30542407  0.29082844  1
  Li  Li25  1  0.22051686  0.03857809  0.22852807  1
  Li  Li26  1  0.60220103  0.97424108  0.28565889  1
  Li  Li27  1  0.70105016  0.37931361  0.23274736  1
  Li  Li28  1  0.77935343  0.89575598  0.21113296  1
  Li  Li29  1  0.85781195  0.57579885  0.20600679  1
  Li  Li30  1  0.27309313  0.74149887  0.21097405  1
  Li  Li31  1  0.33065219  0.21427232  0.21903187  1
  Li  Li32  1  0.67965105  0.18116102  0.25910472  1
  Li  Li33  1  0.65693130  0.67083458  0.26849131  1
  Li  Li34  1  0.81806475  0.39752379  0.35029678  1
  Li  Li35  1  0.83061377  0.69884889  0.36765595  1
  Li  Li36  1  0.76041112  0.18995751  0.39041257  1
  Li  Li37  1  0.90732161  0.92248861  0.32947306  1
  Li  Li38  1  0.28330374  0.84475293  0.38910817  1
  Li  Li39  1  0.37885188  0.24134619  0.33332298  1
  Li  Li40  1  0.43403413  0.77620726  0.31429567  1
  Li  Li41  1  0.51841334  0.44726338  0.30855725  1
  Li  Li42  1  0.03865470  0.60337994  0.30766597  1
  Li  Li43  1  0.97769524  0.12719633  0.30196093  1
  Li  Li44  1  0.27772886  0.04255506  0.36079318  1
  Li  Li45  1  0.32966047  0.53978266  0.37027602  1
  Li  Li46  1  0.48085579  0.28560443  0.45362981  1
  Li  Li47  1  0.47037368  0.56812731  0.47023507  1
  Li  Li48  1  0.50287059  0.04788158  0.48563027  1
  Li  Li49  1  0.59346026  0.79228273  0.43153121  1
  Li  Li50  1  0.02128500  0.65420288  0.49275928  1
  Li  Li51  1  0.05080384  0.12958318  0.44013787  1
  Li  Li52  1  0.12056482  0.66285794  0.41068350  1
  Li  Li53  1  0.20626246  0.31823970  0.40662717  1
  Li  Li54  1  0.62346586  0.48872441  0.41278870  1
  Li  Li55  1  0.65149394  0.00782532  0.39813574  1
  Li  Li56  1  0.92300712  0.92499384  0.45467512  1
  Li  Li57  1  0.97334475  0.42577644  0.44724880  1
  Li  Li58  1  0.71511518  0.59061758  0.50182969  1
  Li  Li59  1  0.39596100  0.88569306  0.49370108  1
  P  P60  1  0.08282740  0.82985512  0.06335470  1
  P  P61  1  0.56682707  0.01602296  0.05583220  1
  P  P62  1  0.61806274  0.54855397  0.02253550  1
  P  P63  1  0.93970639  0.29450056  0.08980288  1
  P  P64  1  0.73115971  0.70630626  0.15840370  1
  P  P65  1  0.22880198  0.89020059  0.15939358  1
  P  P66  1  0.32366300  0.42203776  0.12668633  1
  P  P67  1  0.62288196  0.16811386  0.19166346  1
  P  P68  1  0.39771902  0.58368488  0.26021170  1
  P  P69  1  0.90665025  0.76232972  0.25988263  1
  P  P70  1  0.00658584  0.29968586  0.22748605  1
  P  P71  1  0.29523428  0.04520767  0.29142624  1
  P  P72  1  0.07584614  0.45513131  0.35985985  1
  P  P73  1  0.57124868  0.63978008  0.35997894  1
  P  P74  1  0.68341092  0.17735817  0.32785022  1
  P  P75  1  0.98139959  0.92469846  0.39299122  1
  P  P76  1  0.73627607  0.33183830  0.46291890  1
  P  P77  1  0.22137218  0.51640361  0.45598877  1
  P  P78  1  0.36414895  0.05304370  0.42926111  1
  P  P79  1  0.68534695  0.79749532  0.49613072  1
  S  S80  1  0.28323380  0.76370796  0.07241454  1
  S  S81  1  0.36209451  0.07242482  0.05362250  1
  S  S82  1  0.48620234  0.64221239  0.99610548  1
  S  S83  1  0.78033352  0.23943884  0.07976161  1
  S  S84  1  0.76762387  0.61334357  0.03769279  1
  S  S85  1  0.64832656  0.03024117  0.09647246  1
  S  S86  1  0.03966139  0.78513389  0.02348780  1
  S  S87  1  0.59211504  0.86515013  0.05496886  1
  S  S88  1  0.06137822  0.97505398  0.06455500  1
  S  S89  1  0.71801267  0.42918234  0.99992691  1
  S  S90  1  0.96251180  0.78153929  0.09319025  1
  S  S91  1  0.67270627  0.06102914  0.02519956  1
  S  S92  1  0.52520419  0.52150958  0.05949907  1
  S  S93  1  0.03259469  0.31913943  0.05206112  1
  S  S94  1  0.93511104  0.63947986  0.16163679  1
  S  S95  1  0.02579669  0.95870991  0.15665654  1
  S  S96  1  0.20335601  0.51467772  0.09765961  1
  S  S97  1  0.08269870  0.20353595  0.11498071  1
  S  S98  1  0.46137107  0.12222796  0.17725245  1
  S  S99  1  0.47957788  0.47124663  0.14320380  1
  S  S100  1  0.31649483  0.89974876  0.19883821  1
  S  S101  1  0.64517672  0.69582194  0.11882677  1
  S  S102  1  0.23855551  0.74445061  0.15604431  1
  S  S103  1  0.72181513  0.85233287  0.16198900  1
  S  S104  1  0.85745882  0.41490940  0.11490229  1
  S  S105  1  0.41667936  0.30165073  0.10198088  1
  S  S106  1  0.62943479  0.65584961  0.18966734  1
  S  S107  1  0.33052607  0.94677757  0.12910859  1
  S  S108  1  0.20917761  0.39923455  0.16069667  1
  S  S109  1  0.73060395  0.19646042  0.15709590  1
  S  S110  1  0.59965670  0.51424334  0.26490003  1
  S  S111  1  0.70395956  0.82989497  0.25625766  1
  S  S112  1  0.88415387  0.39788637  0.20052710  1
  S  S113  1  0.75337256  0.07118740  0.21787251  1
  S  S114  1  0.13572234  0.99996861  0.27497306  1
  S  S115  1  0.16559272  0.34347950  0.24476337  1
  S  S116  1  0.98901691  0.77695949  0.29973802  1
  S  S117  1  0.31952745  0.56848503  0.22004430  1
  S  S118  1  0.91829634  0.61677193  0.25614387  1
  S  S119  1  0.38683559  0.72872217  0.26427326  1
  S  S120  1  0.53920856  0.28576254  0.21818114  1
  S  S121  1  0.09549696  0.18300868  0.20149137  1
  S  S122  1  0.29251178  0.52962289  0.29058706  1
  S  S123  1  0.00909120  0.81540267  0.22885206  1
  S  S124  1  0.89104217  0.27272457  0.26136582  1
  S  S125  1  0.40831227  0.07267793  0.25766063  1
  S  S126  1  0.27841012  0.38467679  0.36261915  1
  S  S127  1  0.36717199  0.70579296  0.35807551  1
  S  S128  1  0.55422838  0.27251961  0.30109269  1
  S  S129  1  0.42018160  0.94966725  0.31872160  1
  S  S130  1  0.82601432  0.87550445  0.37620936  1
  S  S131  1  0.84426341  0.22336240  0.34272427  1
  S  S132  1  0.66158308  0.65194455  0.39888156  1
  S  S133  1  0.98857404  0.44604672  0.32037794  1
  S  S134  1  0.58310909  0.49380952  0.35666346  1
  S  S135  1  0.06774988  0.60060083  0.36316988  1
  S  S136  1  0.20570922  0.16230040  0.31752177  1
  S  S137  1  0.77000170  0.06002505  0.30146549  1
  S  S138  1  0.97262931  0.40012794  0.39026781  1
  S  S139  1  0.66956610  0.69348697  0.32830124  1
  S  S140  1  0.57426251  0.14915551  0.36216393  1
  S  S141  1  0.09708240  0.94678546  0.35909157  1
  S  S142  1  0.94082726  0.27522971  0.46536712  1
  S  S143  1  0.02165556  0.58344255  0.44668740  1
  S  S144  1  0.22005407  0.14368617  0.40429525  1
  S  S145  1  0.10096092  0.83251662  0.42221851  1
  S  S146  1  0.53525198  0.73345515  0.48086916  1
  S  S147  1  0.52330530  0.10847874  0.43910719  1
  S  S148  1  0.26454355  0.56196155  0.49572406  1
  S  S149  1  0.65496908  0.31799704  0.42225217  1
  S  S150  1  0.24174413  0.37146654  0.45507274  1
  S  S151  1  0.71222029  0.48262134  0.46360477  1
  S  S152  1  0.88816607  0.04543757  0.41752621  1
  S  S153  1  0.44652948  0.93246776  0.40420763  1
  S  S154  1  0.62958582  0.28757235  0.49352243  1
  S  S155  1  0.34271983  0.56372594  0.42607806  1
  S  S156  1  0.27192070  0.02858734  0.46713624  1
  S  S157  1  0.77963459  0.82370288  0.45924694  1
  S  S158  1  0.81661597  0.70380961  0.52266445  1
  S  S159  1  0.58600572  0.91718163  0.51864837  1
