# generated using pymatgen
data_Li3PS4
_symmetry_space_group_name_H-M   'P 1'
_cell_length_a   14.91536200
_cell_length_b   18.09023401
_cell_length_c   48.27647300
_cell_angle_alpha   90.00000000
_cell_angle_beta   90.00000000
_cell_angle_gamma   54.48401034
_symmetry_Int_Tables_number   1
_chemical_formula_structural   Li3PS4
_chemical_formula_sum   'Li108 P36 S144'
_cell_volume   10602.61700474
_cell_formula_units_Z   36
loop_
 _symmetry_equiv_pos_site_id
 _symmetry_equiv_pos_as_xyz
  1  'x, y, z'
loop_
 _atom_site_type_symbol
 _atom_site_label
 _atom_site_symmetry_multiplicity
 _atom_site_fract_x
 _atom_site_fract_y
 _atom_site_fract_z
 _atom_site_occupancy
  Li  Li0  1  0.63811062  0.91835877  0.99530204  1
  Li  Li1  1  0.38220635  0.71348176  0.07530541  1
  Li  Li2  1  0.29811307  0.97960109  0.10478012  1
  Li  Li3  1  0.57978205  0.06569137  0.04901915  1
  Li  Li4  1  0.59649857  0.58256403  0.04609131  1
  Li  Li5  1  0.37795798  0.50860522  0.09593587  1
  Li  Li6  1  0.32233755  0.17099295  0.09384082  1
  Li  Li7  1  0.53235523  0.30503998  0.03696529  1
  Li  Li8  1  0.13736350  0.23596979  0.03723193  1
  Li  Li9  1  0.83179814  0.15726267  0.10574274  1
  Li  Li10  1  0.83466422  0.52043953  0.08775139  1
  Li  Li11  1  0.13616020  0.61319216  0.03009246  1
  Li  Li12  1  0.96349018  0.14070199  0.04560459  1
  Li  Li13  1  0.74613371  0.98879650  0.10712652  1
  Li  Li14  1  0.93074611  0.68317145  0.08677976  1
  Li  Li15  1  0.13386814  0.76944217  0.03463438  1
  Li  Li16  1  0.55049270  0.86773796  0.05924472  1
  Li  Li17  1  0.64891353  0.39368774  0.04117495  1
  Li  Li18  1  0.33158984  0.35824144  0.08804432  1
  Li  Li19  1  0.86378591  0.33962350  0.09992942  1
  Li  Li20  1  0.04461540  0.42455185  0.03605811  1
  Li  Li21  1  0.30102299  0.96721703  0.01767581  1
  Li  Li22  1  0.96587743  0.88496336  0.08025916  1
  Li  Li23  1  0.11229357  0.59770179  0.14108585  1
  Li  Li24  1  0.84156704  0.48363295  0.20133210  1
  Li  Li25  1  0.73521404  0.76080467  0.24192557  1
  Li  Li26  1  0.01986535  0.86079655  0.17737088  1
  Li  Li27  1  0.10406648  0.39684205  0.15828593  1
  Li  Li28  1  0.82592488  0.29217117  0.22261731  1
  Li  Li29  1  0.76744348  0.95828349  0.22170802  1
  Li  Li30  1  0.04193772  0.06199362  0.15793245  1
  Li  Li31  1  0.55972797  0.04346983  0.16952438  1
  Li  Li32  1  0.28955259  0.93540356  0.22976315  1
  Li  Li33  1  0.28789387  0.29618573  0.21582332  1
  Li  Li34  1  0.56931367  0.40221148  0.15062179  1
  Li  Li35  1  0.49297056  0.87299530  0.16666712  1
  Li  Li36  1  0.20415780  0.77591256  0.23228537  1
  Li  Li37  1  0.37506419  0.46837943  0.20932802  1
  Li  Li38  1  0.63133248  0.58406373  0.14948077  1
  Li  Li39  1  0.88362551  0.68646138  0.18954994  1
  Li  Li40  1  0.23960066  0.78067318  0.12862289  1
  Li  Li41  1  0.06247880  0.24302424  0.15273861  1
  Li  Li42  1  0.78208412  0.14440542  0.21225854  1
  Li  Li43  1  0.25553483  0.11832334  0.21801204  1
  Li  Li44  1  0.52919131  0.22537930  0.15617904  1
  Li  Li45  1  0.70984071  0.78619301  0.11667320  1
  Li  Li46  1  0.43054164  0.66479667  0.20159333  1
  Li  Li47  1  0.55928531  0.38202166  0.26709468  1
  Li  Li48  1  0.29131484  0.26722542  0.32681082  1
  Li  Li49  1  0.18491248  0.54573717  0.36687813  1
  Li  Li50  1  0.46981725  0.64796107  0.30099693  1
  Li  Li51  1  0.55395022  0.18303316  0.28445041  1
  Li  Li52  1  0.27206332  0.07064299  0.34627996  1
  Li  Li53  1  0.20903798  0.73713513  0.34491838  1
  Li  Li54  1  0.47825576  0.85362586  0.28458492  1
  Li  Li55  1  0.00973562  0.82795942  0.29487339  1
  Li  Li56  1  0.74052579  0.72103390  0.35449301  1
  Li  Li57  1  0.73417271  0.08447215  0.34141607  1
  Li  Li58  1  0.01775897  0.19008829  0.27701676  1
  Li  Li59  1  0.94163424  0.65916745  0.29348753  1
  Li  Li60  1  0.64947586  0.55984999  0.35891924  1
  Li  Li61  1  0.82133875  0.25185684  0.33637256  1
  Li  Li62  1  0.08387962  0.36871876  0.27516550  1
  Li  Li63  1  0.33341481  0.47145756  0.31398727  1
  Li  Li64  1  0.69435270  0.55633146  0.25498491  1
  Li  Li65  1  0.50502883  0.03709941  0.27504532  1
  Li  Li66  1  0.24574615  0.88825163  0.35401012  1
  Li  Li67  1  0.70080732  0.90686448  0.34437778  1
  Li  Li68  1  0.98699963  0.01053620  0.28222476  1
  Li  Li69  1  0.15035311  0.57615512  0.24198984  1
  Li  Li70  1  0.87866755  0.44956994  0.32773786  1
  Li  Li71  1  0.00774133  0.17048958  0.39077534  1
  Li  Li72  1  0.72700668  0.05703168  0.45867976  1
  Li  Li73  1  0.64425563  0.31462979  0.49375895  1
  Li  Li74  1  0.91202557  0.43484296  0.42749921  1
  Li  Li75  1  0.99124766  0.97333388  0.40995965  1
  Li  Li76  1  0.71438644  0.86717446  0.47487823  1
  Li  Li77  1  0.64897336  0.52414326  0.47355285  1
  Li  Li78  1  0.93122187  0.63785435  0.41045015  1
  Li  Li79  1  0.45320837  0.62808443  0.41804846  1
  Li  Li80  1  0.18853716  0.50789461  0.48254238  1
  Li  Li81  1  0.18829123  0.87420999  0.46070117  1
  Li  Li82  1  0.46168678  0.98314650  0.40241259  1
  Li  Li83  1  0.39315992  0.44620567  0.41941916  1
  Li  Li84  1  0.09578400  0.34715815  0.48256558  1
  Li  Li85  1  0.27900703  0.04229124  0.46243785  1
  Li  Li86  1  0.52978488  0.15725960  0.40250630  1
  Li  Li87  1  0.78929774  0.25037536  0.44059999  1
  Li  Li88  1  0.14368735  0.34297697  0.37980463  1
  Li  Li89  1  0.94965074  0.82542584  0.40123063  1
  Li  Li90  1  0.67644145  0.71548351  0.46662118  1
  Li  Li91  1  0.15402620  0.69341294  0.46819026  1
  Li  Li92  1  0.48397572  0.80451418  0.41255217  1
  Li  Li93  1  0.59740169  0.36251364  0.36771768  1
  Li  Li94  1  0.31530652  0.24558387  0.45233229  1
  Li  Li95  1  0.44355865  0.95969561  0.52055832  1
  Li  Li96  1  0.38851421  0.11093536  0.57322842  1
  Li  Li97  1  0.59052254  0.67974762  0.53299237  1
  Li  Li98  1  0.43013717  0.44739956  0.52306368  1
  Li  Li99  1  0.89862229  0.41005818  0.53992908  1
  Li  Li100  1  0.90063955  0.79565513  0.52966915  1
  Li  Li101  1  0.89745813  0.25479244  0.53353545  1
  Li  Li102  1  0.13734146  0.85743116  0.52259082  1
  Li  Li103  1  0.48009885  0.15800910  0.50974489  1
  Li  Li104  1  0.39228424  0.63538590  0.52856352  1
  Li  Li105  1  0.97508451  0.61084641  0.53226607  1
  Li  Li106  1  0.05998563  0.14137941  0.48803689  1
  Li  Li107  1  0.73493344  0.05022839  0.54984321  1
  P  P108  1  0.54473978  0.73056968  0.10443634  1
  P  P109  1  0.83354723  0.83059160  0.04323841  1
  P  P110  1  0.42350474  0.04000427  0.02037379  1
  P  P111  1  0.12798867  0.94978188  0.08314466  1
  P  P112  1  0.08329821  0.42442831  0.09596899  1
  P  P113  1  0.37810923  0.52825012  0.03188410  1
  P  P114  1  0.89485092  0.33173914  0.03534393  1
  P  P115  1  0.59026745  0.24490266  0.09495300  1
  P  P116  1  0.99128620  0.51572087  0.23099615  1
  P  P117  1  0.27387165  0.62296273  0.16892032  1
  P  P118  1  0.85589136  0.83727397  0.14931955  1
  P  P119  1  0.58665498  0.72656970  0.21224693  1
  P  P120  1  0.53375495  0.20893230  0.22284422  1
  P  P121  1  0.81040829  0.31596723  0.16088938  1
  P  P122  1  0.32098426  0.14092776  0.15629642  1
  P  P123  1  0.04573832  0.03450760  0.22008622  1
  P  P124  1  0.43948024  0.30198878  0.35692740  1
  P  P125  1  0.72268396  0.40566130  0.29614079  1
  P  P126  1  0.30656508  0.62128165  0.27252313  1
  P  P127  1  0.03587669  0.51221415  0.33751929  1
  P  P128  1  0.98056212  0.99370081  0.34859422  1
  P  P129  1  0.25726429  0.10189531  0.28466787  1
  P  P130  1  0.76957512  0.92703736  0.28340837  1
  P  P131  1  0.49693627  0.81831984  0.34669787  1
  P  P132  1  0.89611692  0.07900934  0.48449660  1
  P  P133  1  0.17086882  0.19275657  0.41978315  1
  P  P134  1  0.75088720  0.40784125  0.39975780  1
  P  P135  1  0.47877904  0.30104919  0.46464489  1
  P  P136  1  0.42894176  0.78332868  0.47425129  1
  P  P137  1  0.70437691  0.88746396  0.41162490  1
  P  P138  1  0.21269256  0.71675135  0.40623529  1
  P  P139  1  0.94167584  0.60767123  0.47243939  1
  P  P140  1  0.60357771  0.98506594  0.54832876  1
  P  P141  1  0.19315124  0.19714955  0.52528039  1
  P  P142  1  0.14339073  0.69242022  0.53431846  1
  P  P143  1  0.65789776  0.49421533  0.53820257  1
  S  S144  1  0.70504330  0.64633230  0.11781443  1
  S  S145  1  0.99992594  0.74777248  0.05715920  1
  S  S146  1  0.26347768  0.11263714  0.00766591  1
  S  S147  1  0.96190749  0.02741204  0.07473782  1
  S  S148  1  0.97842140  0.53523864  0.07080641  1
  S  S149  1  0.26484692  0.63712164  0.00793618  1
  S  S150  1  0.00135615  0.24137985  0.06523069  1
  S  S151  1  0.68736679  0.14107744  0.12219570  1
  S  S152  1  0.82503089  0.27788413  0.01581400  1
  S  S153  1  0.49796623  0.22247883  0.06905821  1
  S  S154  1  0.45776634  0.55659887  0.06139879  1
  S  S155  1  0.44206057  0.03863409  0.06322862  1
  S  S156  1  0.52663424  0.73389986  0.06189040  1
  S  S157  1  0.83230534  0.82265898  0.00197732  1
  S  S158  1  0.49219963  0.90493812  0.01000979  1
  S  S159  1  0.18317458  0.81646982  0.07467857  1
  S  S160  1  0.49642573  0.86005884  0.11483089  1
  S  S161  1  0.77887420  0.95895229  0.05720679  1
  S  S162  1  0.77016016  0.44589567  0.05841632  1
  S  S163  1  0.47672528  0.35612330  0.11946240  1
  S  S164  1  0.19458819  0.32107478  0.06887801  1
  S  S165  1  0.49855331  0.42593792  0.00798150  1
  S  S166  1  0.75820875  0.77861609  0.06297386  1
  S  S167  1  0.19891175  0.99858905  0.06073789  1
  S  S168  1  0.51273426  0.07940516  0.00226541  1
  S  S169  1  0.98703058  0.40213335  0.11981784  1
  S  S170  1  0.29058190  0.49262058  0.05492864  1
  S  S171  1  0.97794506  0.35911411  0.00871425  1
  S  S172  1  0.68903439  0.26218469  0.07058336  1
  S  S173  1  0.15316856  0.43429014  0.24299192  1
  S  S174  1  0.43837239  0.53805059  0.17920582  1
  S  S175  1  0.69151067  0.91765167  0.13886538  1
  S  S176  1  0.42507249  0.80772740  0.19981400  1
  S  S177  1  0.42729790  0.31665667  0.19720900  1
  S  S178  1  0.71116878  0.42415373  0.13491707  1
  S  S179  1  0.40966034  0.03222710  0.18271253  1
  S  S180  1  0.13945136  0.92796073  0.24690868  1
  S  S181  1  0.23021477  0.12904346  0.12692626  1
  S  S182  1  0.95734447  0.01613132  0.19153052  1
  S  S183  1  0.17686165  0.44409410  0.12177324  1
  S  S184  1  0.90789575  0.33109555  0.18682261  1
  S  S185  1  0.88725640  0.82598921  0.19096550  1
  S  S186  1  0.16972024  0.94460083  0.12409199  1
  S  S187  1  0.96762293  0.52207994  0.18870520  1
  S  S188  1  0.24320415  0.63440971  0.12706453  1
  S  S189  1  0.91071656  0.70676170  0.13689065  1
  S  S190  1  0.64037741  0.59559509  0.20088292  1
  S  S191  1  0.93787067  0.64655640  0.24235114  1
  S  S192  1  0.22290847  0.75239992  0.18130531  1
  S  S193  1  0.20481975  0.24797349  0.18177810  1
  S  S194  1  0.92866997  0.14157901  0.24514519  1
  S  S195  1  0.64574347  0.10380006  0.19638327  1
  S  S196  1  0.92195033  0.21037950  0.13441131  1
  S  S197  1  0.19221947  0.57589815  0.18726008  1
  S  S198  1  0.45813863  0.68779353  0.12257919  1
  S  S199  1  0.66744708  0.77394954  0.19366945  1
  S  S200  1  0.93262824  0.88917429  0.13131332  1
  S  S201  1  0.43972237  0.18425415  0.24642742  1
  S  S202  1  0.71297476  0.29366577  0.18379697  1
  S  S203  1  0.42509015  0.16117651  0.13578718  1
  S  S204  1  0.14724047  0.05524677  0.19821108  1
  S  S205  1  0.60082017  0.22015036  0.36940102  1
  S  S206  1  0.88644199  0.32100583  0.30703944  1
  S  S207  1  0.14178237  0.70591903  0.26234002  1
  S  S208  1  0.87412338  0.59275937  0.32528244  1
  S  S209  1  0.87691452  0.10115525  0.32272151  1
  S  S210  1  0.15621896  0.21240989  0.25926100  1
  S  S211  1  0.85925202  0.81812431  0.30970847  1
  S  S212  1  0.59623225  0.71018718  0.37284695  1
  S  S213  1  0.68007321  0.91290347  0.25411077  1
  S  S214  1  0.40413701  0.80075359  0.31974662  1
  S  S215  1  0.62853404  0.22914070  0.24807516  1
  S  S216  1  0.35419452  0.11633260  0.31113022  1
  S  S217  1  0.33835377  0.60984696  0.31425073  1
  S  S218  1  0.60969749  0.72126823  0.25451522  1
  S  S219  1  0.41634096  0.30768346  0.31458779  1
  S  S220  1  0.69365210  0.41606327  0.25420116  1
  S  S221  1  0.35743315  0.49210175  0.26006746  1
  S  S222  1  0.08953378  0.38126087  0.32635142  1
  S  S223  1  0.38630545  0.43277579  0.36813077  1
  S  S224  1  0.67155897  0.53524179  0.30823890  1
  S  S225  1  0.65220539  0.03427628  0.30848005  1
  S  S226  1  0.38216169  0.92450401  0.37254933  1
  S  S227  1  0.09457192  0.88807181  0.32267077  1
  S  S228  1  0.37008219  0.99756552  0.25780170  1
  S  S229  1  0.63925108  0.35944210  0.31399587  1
  S  S230  1  0.90971481  0.46871669  0.24933949  1
  S  S231  1  0.11691554  0.55918601  0.31875262  1
  S  S232  1  0.38743608  0.66948963  0.25438486  1
  S  S233  1  0.88372457  0.97050226  0.37162428  1
  S  S234  1  0.16449139  0.07454211  0.30700016  1
  S  S235  1  0.87310108  0.94767938  0.26265063  1
  S  S236  1  0.59370157  0.84214848  0.32404179  1
  S  S237  1  0.06195530  0.00099710  0.49345561  1
  S  S238  1  0.33413729  0.11333424  0.43118911  1
  S  S239  1  0.58639316  0.49152585  0.38939565  1
  S  S240  1  0.31838397  0.38576249  0.45131027  1
  S  S241  1  0.33541831  0.89091458  0.44765489  1
  S  S242  1  0.60402588  0.99811685  0.38638793  1
  S  S243  1  0.30848514  0.60884816  0.43244350  1
  S  S244  1  0.03891746  0.49753316  0.49861218  1
  S  S245  1  0.12060131  0.69979544  0.37863996  1
  S  S246  1  0.84982086  0.59004103  0.44514788  1
  S  S247  1  0.07171465  0.01557085  0.37493215  1
  S  S248  1  0.79830524  0.90351313  0.43834160  1
  S  S249  1  0.78163990  0.39726944  0.44158666  1
  S  S250  1  0.05891963  0.50749438  0.37972490  1
  S  S251  1  0.86112966  0.08706251  0.44269590  1
  S  S252  1  0.14463063  0.20165063  0.37782814  1
  S  S253  1  0.80335881  0.27795698  0.38739483  1
  S  S254  1  0.52662148  0.17157325  0.45391833  1
  S  S255  1  0.84319684  0.21181133  0.49365323  1
  S  S256  1  0.11435628  0.32380595  0.43203776  1
  S  S257  1  0.09787413  0.82288813  0.43187248  1
  S  S258  1  0.83041199  0.71504406  0.49853861  1
  S  S259  1  0.54541194  0.67498203  0.44902115  1
  S  S260  1  0.81577685  0.78331335  0.38496511  1
  S  S261  1  0.09266462  0.14117339  0.43702179  1
  S  S262  1  0.35776358  0.25504414  0.37517576  1
  S  S263  1  0.56614536  0.34307267  0.44647983  1
  S  S264  1  0.83173654  0.45561974  0.38134942  1
  S  S265  1  0.32813184  0.75879732  0.49381885  1
  S  S266  1  0.60599477  0.86408544  0.43445096  1
  S  S267  1  0.31295995  0.73935934  0.38458992  1
  S  S268  1  0.04303734  0.62637630  0.44997586  1
  S  S269  1  0.76444267  0.90834638  0.56036120  1
  S  S270  1  0.02758692  0.27972997  0.51105859  1
  S  S271  1  0.04215402  0.79455128  0.50616677  1
  S  S272  1  0.77052765  0.38411282  0.56165836  1
  S  S273  1  0.57394517  0.47016225  0.50878777  1
  S  S274  1  0.52105341  0.80383061  0.50077030  1
  S  S275  1  0.22460953  0.73045173  0.55695878  1
  S  S276  1  0.19388648  0.20543052  0.56657396  1
  S  S277  1  0.49734491  0.29668635  0.50709743  1
  S  S278  1  0.58021979  0.98801686  0.50561150  1
  S  S279  1  0.24621237  0.06883913  0.51167137  1
  S  S280  1  0.54045535  0.11891923  0.55877998  1
  S  S281  1  0.54203607  0.60039454  0.56171446  1
  S  S282  1  0.25862404  0.58085994  0.50934429  1
  S  S283  1  0.51188907  0.94893715  0.56704548  1
  S  S284  1  0.81218924  0.03752864  0.50380215  1
  S  S285  1  0.26979291  0.24835819  0.50583962  1
  S  S286  1  0.05020590  0.67023985  0.55895899  1
  S  S287  1  0.74268773  0.53246013  0.51485386  1
