# generated using pymatgen
data_Li3PS4
_symmetry_space_group_name_H-M   'P 1'
_cell_length_a   13.05789500
_cell_length_b   10.24241400
_cell_length_c   49.54702600
_cell_angle_alpha   90.00000000
_cell_angle_beta   90.00000000
_cell_angle_gamma   90.00000000
_symmetry_Int_Tables_number   1
_chemical_formula_structural   Li3PS4
_chemical_formula_sum   'Li60 P20 S80'
_cell_volume   6626.63560723
_cell_formula_units_Z   20
loop_
 _symmetry_equiv_pos_site_id
 _symmetry_equiv_pos_as_xyz
  1  'x, y, z'
loop_
 _atom_site_type_symbol
 _atom_site_label
 _atom_site_symmetry_multiplicity
 _atom_site_fract_x
 _atom_site_fract_y
 _atom_site_fract_z
 _atom_site_occupancy
  Li  Li0  1  0.15904543  0.75697573  0.06728925  1
  Li  Li1  1  0.84987832  0.64469849  0.08404702  1
  Li  Li2  1  0.67140222  0.80295521  0.06246216  1
  Li  Li3  1  0.66514569  0.14691880  0.08383331  1
  Li  Li4  1  0.31007745  0.25199155  0.06960014  1
  Li  Li5  1  0.84368193  0.29084787  0.05942394  1
  Li  Li6  1  0.48468402  0.72591093  0.09356850  1
  Li  Li7  1  0.49111548  0.29170437  0.03849454  1
  Li  Li8  1  0.02272878  0.20348544  0.09111976  1
  Li  Li9  1  0.16884058  0.39188685  0.17267229  1
  Li  Li10  1  0.83487986  0.27129489  0.18768836  1
  Li  Li11  1  0.32881562  0.51651970  0.11434556  1
  Li  Li12  1  0.66881979  0.50676171  0.14115612  1
  Li  Li13  1  0.66905885  0.77689069  0.18403812  1
  Li  Li14  1  0.33696830  0.89753289  0.16943249  1
  Li  Li15  1  0.82493935  0.01880419  0.13957475  1
  Li  Li16  1  0.17185100  0.02129189  0.11544224  1
  Li  Li17  1  0.01162052  0.48740635  0.12880628  1
  Li  Li18  1  0.49357152  0.34265489  0.19044521  1
  Li  Li19  1  0.50408056  0.07477298  0.12776900  1
  Li  Li20  1  0.98685458  0.82488247  0.16439491  1
  Li  Li21  1  0.16691107  0.01807636  0.27470226  1
  Li  Li22  1  0.83820631  0.89652179  0.28896830  1
  Li  Li23  1  0.32406900  0.16503570  0.21573073  1
  Li  Li24  1  0.67082728  0.12437823  0.24359082  1
  Li  Li25  1  0.66362722  0.40031667  0.28622655  1
  Li  Li26  1  0.33413634  0.52424323  0.27066861  1
  Li  Li27  1  0.83072975  0.64184995  0.24095277  1
  Li  Li28  1  0.16316665  0.68158521  0.21265397  1
  Li  Li29  1  0.00640032  0.09216523  0.23032186  1
  Li  Li30  1  0.50397248  0.95895472  0.27417338  1
  Li  Li31  1  0.50840528  0.68710093  0.22724930  1
  Li  Li32  1  0.99257001  0.45679487  0.26719449  1
  Li  Li33  1  0.17107688  0.64139724  0.37426479  1
  Li  Li34  1  0.83564111  0.52232794  0.38870799  1
  Li  Li35  1  0.33375092  0.80005789  0.31430383  1
  Li  Li36  1  0.67141379  0.75878145  0.34221428  1
  Li  Li37  1  0.66473746  0.02467286  0.38811019  1
  Li  Li38  1  0.32876477  0.14115944  0.37418777  1
  Li  Li39  1  0.82885374  0.26658583  0.34149503  1
  Li  Li40  1  0.16613605  0.30345299  0.31349680  1
  Li  Li41  1  0.00977736  0.71661601  0.33079170  1
  Li  Li42  1  0.50484097  0.57696511  0.36865935  1
  Li  Li43  1  0.49035806  0.22604321  0.33098787  1
  Li  Li44  1  0.99609542  0.08090056  0.36782460  1
  Li  Li45  1  0.15176061  0.27342150  0.47856576  1
  Li  Li46  1  0.84016586  0.16065740  0.49185089  1
  Li  Li47  1  0.33137025  0.40993476  0.41693391  1
  Li  Li48  1  0.67154785  0.40173488  0.44370914  1
  Li  Li49  1  0.69191988  0.67086219  0.48788462  1
  Li  Li50  1  0.33184595  0.77401158  0.47316441  1
  Li  Li51  1  0.83239948  0.91159088  0.44144805  1
  Li  Li52  1  0.16288731  0.91811528  0.41661680  1
  Li  Li53  1  0.00343542  0.34263737  0.43149815  1
  Li  Li54  1  0.51393115  0.19291268  0.46435515  1
  Li  Li55  1  0.49733414  0.84779240  0.43046645  1
  Li  Li56  1  0.97629166  0.71539218  0.46539037  1
  Li  Li57  1  0.32954032  0.11461688  0.49615524  1
  Li  Li58  1  0.15425482  0.63106711  0.49639140  1
  Li  Li59  1  0.50858872  0.62988415  0.51896670  1
  P  P60  1  0.08739549  0.48078234  0.06718841  1
  P  P61  1  0.91110365  0.92356250  0.08519591  1
  P  P62  1  0.40626851  0.98649635  0.06984068  1
  P  P63  1  0.58981646  0.42242648  0.08454528  1
  P  P64  1  0.08644144  0.11457857  0.16932062  1
  P  P65  1  0.91010547  0.55011879  0.18717166  1
  P  P66  1  0.41020581  0.61483635  0.16919304  1
  P  P67  1  0.58718154  0.05174419  0.18859785  1
  P  P68  1  0.08948647  0.74610394  0.26946014  1
  P  P69  1  0.91139881  0.17800130  0.28787908  1
  P  P70  1  0.41033061  0.24450820  0.26950501  1
  P  P71  1  0.59014588  0.68031870  0.28797904  1
  P  P72  1  0.09010370  0.37014122  0.36970550  1
  P  P73  1  0.90993986  0.80412723  0.38778450  1
  P  P74  1  0.41087162  0.86969462  0.36995715  1
  P  P75  1  0.58932728  0.30546600  0.38866074  1
  P  P76  1  0.08881856  0.99799513  0.47370569  1
  P  P77  1  0.91658303  0.43516799  0.48971273  1
  P  P78  1  0.41004404  0.49724020  0.47332888  1
  P  P79  1  0.59445242  0.93508456  0.48811137  1
  S  S80  1  0.13757269  0.29708684  0.05799707  1
  S  S81  1  0.84583574  0.10759422  0.09346650  1
  S  S82  1  0.66100954  0.33552566  0.05156541  1
  S  S83  1  0.65321940  0.60336321  0.09399811  1
  S  S84  1  0.35056091  0.80527421  0.06353815  1
  S  S85  1  0.84769001  0.83290511  0.05273157  1
  S  S86  1  0.06186838  0.96320997  0.07749737  1
  S  S87  1  0.93934964  0.44281219  0.08380322  1
  S  S88  1  0.43968553  0.45286118  0.07335897  1
  S  S89  1  0.55880146  0.95674322  0.08301017  1
  S  S90  1  0.08586395  0.60269099  0.03610682  1
  S  S91  1  0.39088541  0.10069209  0.03646453  1
  S  S92  1  0.15279753  0.93687006  0.16076394  1
  S  S93  1  0.84889914  0.73123350  0.19487732  1
  S  S94  1  0.34336046  0.08489686  0.10267109  1
  S  S95  1  0.64861084  0.96772239  0.15459889  1
  S  S96  1  0.65435330  0.22581779  0.19929790  1
  S  S97  1  0.35043732  0.43314227  0.16157062  1
  S  S98  1  0.84550614  0.45302343  0.15509914  1
  S  S99  1  0.15775035  0.56808816  0.10048188  1
  S  S100  1  0.06032696  0.58886761  0.17511636  1
  S  S101  1  0.93523548  0.07141680  0.17880484  1
  S  S102  1  0.43749521  0.09797154  0.17788879  1
  S  S103  1  0.56231936  0.57974799  0.18004239  1
  S  S104  1  0.10864191  0.23709857  0.13692339  1
  S  S105  1  0.88330792  0.81207093  0.11920160  1
  S  S106  1  0.38780646  0.72945217  0.13588051  1
  S  S107  1  0.60971968  0.30729390  0.11779761  1
  S  S108  1  0.15557376  0.57278593  0.25757504  1
  S  S109  1  0.84748302  0.35743638  0.29532389  1
  S  S110  1  0.34713103  0.71124575  0.20156052  1
  S  S111  1  0.65323469  0.58976176  0.25485866  1
  S  S112  1  0.65383757  0.85814290  0.29728682  1
  S  S113  1  0.34373631  0.06756341  0.26025923  1
  S  S114  1  0.84692279  0.07771225  0.25600150  1
  S  S115  1  0.14486766  0.20448439  0.20295997  1
  S  S116  1  0.06101147  0.21740748  0.27567076  1
  S  S117  1  0.93970420  0.69827790  0.27991639  1
  S  S118  1  0.44016210  0.72369456  0.27613168  1
  S  S119  1  0.56007676  0.19889879  0.28079411  1
  S  S120  1  0.10532482  0.87424522  0.23796714  1
  S  S121  1  0.89467453  0.43492597  0.22067845  1
  S  S122  1  0.39580422  0.36552629  0.23675731  1
  S  S123  1  0.60315938  0.92453879  0.22049231  1
  S  S124  1  0.15648406  0.19639851  0.35798528  1
  S  S125  1  0.84965567  0.98649667  0.39424940  1
  S  S126  1  0.34944672  0.33664125  0.30249010  1
  S  S127  1  0.65320020  0.21054899  0.35605479  1
  S  S128  1  0.64954128  0.48632708  0.39638472  1
  S  S129  1  0.34521164  0.69534237  0.35855180  1
  S  S130  1  0.84712682  0.70547162  0.35545250  1
  S  S131  1  0.15024174  0.82684540  0.30383331  1
  S  S132  1  0.06217815  0.83917426  0.37724074  1
  S  S133  1  0.94013072  0.32396459  0.38028232  1
  S  S134  1  0.43710234  0.33947049  0.37777861  1
  S  S135  1  0.56076043  0.82414220  0.38066497  1
  S  S136  1  0.10567948  0.49734568  0.33791772  1
  S  S137  1  0.89687400  0.06237665  0.32131708  1
  S  S138  1  0.39591197  0.99662884  0.33808923  1
  S  S139  1  0.60321086  0.55804116  0.32038803  1
  S  S140  1  0.15277421  0.81637911  0.46271258  1
  S  S141  1  0.86442857  0.61821445  0.49869435  1
  S  S142  1  0.34782711  0.95090002  0.40397424  1
  S  S143  1  0.66018658  0.84117127  0.45510712  1
  S  S144  1  0.64713743  0.11715076  0.49509684  1
  S  S145  1  0.34630276  0.31554905  0.46446732  1
  S  S146  1  0.84168914  0.34236756  0.45762450  1
  S  S147  1  0.15191078  0.45092800  0.40379395  1
  S  S148  1  0.06215266  0.47303398  0.47215516  1
  S  S149  1  0.93819031  0.95580120  0.48131984  1
  S  S150  1  0.44169351  0.96221373  0.47486414  1
  S  S151  1  0.56044203  0.46845282  0.48452295  1
  S  S152  1  0.11348691  0.11810038  0.44092819  1
  S  S153  1  0.88765823  0.69051910  0.42107701  1
  S  S154  1  0.39040432  0.61064353  0.43977555  1
  S  S155  1  0.61130560  0.18943944  0.42175033  1
  S  S156  1  0.33784833  0.58661803  0.50586567  1
  S  S157  1  0.15554637  0.07617057  0.50722743  1
  S  S158  1  0.92343712  0.31533335  0.52119821  1
  S  S159  1  0.61076480  0.81885901  0.52120456  1
