# generated using pymatgen
data_Li3PS4
_symmetry_space_group_name_H-M   'P 1'
_cell_length_a   6.25995100
_cell_length_b   15.36973200
_cell_length_c   48.21185800
_cell_angle_alpha   90.00000000
_cell_angle_beta   90.00000000
_cell_angle_gamma   90.00000000
_symmetry_Int_Tables_number   1
_chemical_formula_structural   Li3PS4
_chemical_formula_sum   'Li42 P14 S56'
_cell_volume   4638.64457847
_cell_formula_units_Z   14
loop_
 _symmetry_equiv_pos_site_id
 _symmetry_equiv_pos_as_xyz
  1  'x, y, z'
loop_
 _atom_site_type_symbol
 _atom_site_label
 _atom_site_symmetry_multiplicity
 _atom_site_fract_x
 _atom_site_fract_y
 _atom_site_fract_z
 _atom_site_occupancy
  Li  Li0  1  0.07487457  0.64941932  0.08893705  1
  Li  Li1  1  0.53105586  0.36170791  0.02191426  1
  Li  Li2  1  0.61086312  0.51115857  0.07780801  1
  Li  Li3  1  0.63794046  0.38882482  0.14252671  1
  Li  Li4  1  0.41344930  0.13202049  0.10540329  1
  Li  Li5  1  0.94361901  0.54641059  0.99700842  1
  Li  Li6  1  0.95379371  0.06051398  0.07469204  1
  Li  Li7  1  0.41655471  0.74344031  0.12774367  1
  Li  Li8  1  0.05806398  0.37907341  0.05366926  1
  Li  Li9  1  0.07599946  0.27312463  0.11590015  1
  Li  Li10  1  0.55864379  0.87649990  0.06823613  1
  Li  Li11  1  0.87070829  0.87781452  0.14869064  1
  Li  Li12  1  0.10438185  0.37236587  0.23698099  1
  Li  Li13  1  0.37963380  0.01446681  0.16744183  1
  Li  Li14  1  0.58916009  0.23231050  0.22473900  1
  Li  Li15  1  0.59123046  0.11502173  0.28423247  1
  Li  Li16  1  0.38849911  0.85574233  0.24625515  1
  Li  Li17  1  0.12487219  0.50044091  0.17334178  1
  Li  Li18  1  0.90949285  0.75837449  0.21190263  1
  Li  Li19  1  0.49596357  0.48279618  0.26560200  1
  Li  Li20  1  0.94460911  0.14067264  0.18950824  1
  Li  Li21  1  0.95848511  0.97939392  0.27045136  1
  Li  Li22  1  0.56443906  0.61872223  0.20068570  1
  Li  Li23  1  0.89307863  0.59429455  0.29361353  1
  Li  Li24  1  0.13849294  0.08798139  0.38327401  1
  Li  Li25  1  0.41620776  0.73327735  0.30566374  1
  Li  Li26  1  0.62963036  0.95224739  0.36381804  1
  Li  Li27  1  0.59370757  0.83349802  0.42621568  1
  Li  Li28  1  0.37001194  0.57688728  0.38822492  1
  Li  Li29  1  0.08547512  0.20854968  0.31960948  1
  Li  Li30  1  0.87497252  0.46449019  0.35737911  1
  Li  Li31  1  0.58345565  0.22220195  0.40368425  1
  Li  Li32  1  0.06462227  0.82319107  0.34200409  1
  Li  Li33  1  0.93053613  0.69132941  0.41465764  1
  Li  Li34  1  0.43365749  0.34797195  0.33011407  1
  Li  Li35  1  0.92538037  0.31629947  0.44171222  1
  Li  Li36  1  0.38925094  0.45378031  0.45260417  1
  Li  Li37  1  0.46769774  0.60125400  0.50929667  1
  Li  Li38  1  0.05058956  0.90485445  0.45646944  1
  Li  Li39  1  0.05590127  0.41777655  0.53374131  1
  Li  Li40  1  0.93996121  0.58478125  0.47697192  1
  Li  Li41  1  0.44441496  0.08898330  0.46461307  1
  P  P42  1  0.16474561  0.89894786  0.09816108  1
  P  P43  1  0.66850693  0.26634026  0.07619607  1
  P  P44  1  0.32271615  0.53317885  0.02605820  1
  P  P45  1  0.16106326  0.61817884  0.24153464  1
  P  P46  1  0.83899386  0.63200234  0.14388220  1
  P  P47  1  0.65153936  0.98908118  0.21720099  1
  P  P48  1  0.34815038  0.25901616  0.17222330  1
  P  P49  1  0.16149009  0.33348693  0.38694996  1
  P  P50  1  0.83633375  0.34875871  0.28919765  1
  P  P51  1  0.65485949  0.70730664  0.35856605  1
  P  P52  1  0.34513222  0.97755613  0.31420624  1
  P  P53  1  0.83854711  0.06747448  0.43358824  1
  P  P54  1  0.67564966  0.43113222  0.50484794  1
  P  P55  1  0.33436499  0.69824481  0.45452745  1
  S  S56  1  0.31300036  0.00070669  0.07748204  1
  S  S57  1  0.78201165  0.16781756  0.10140564  1
  S  S58  1  0.22846459  0.64302748  0.00752203  1
  S  S59  1  0.23079358  0.52212531  0.06745137  1
  S  S60  1  0.79892992  0.25944975  0.03768062  1
  S  S61  1  0.70049792  0.64575024  0.10550691  1
  S  S62  1  0.25750525  0.88741690  0.13892289  1
  S  S63  1  0.25437301  0.78884259  0.07723373  1
  S  S64  1  0.19059927  0.42484822  0.00645317  1
  S  S65  1  0.78508738  0.37855960  0.09542012  1
  S  S66  1  0.84120448  0.92547434  0.09844446  1
  S  S67  1  0.34141573  0.25687047  0.07369647  1
  S  S68  1  0.65125412  0.51209138  0.02742448  1
  S  S69  1  0.28611793  0.72205676  0.22036029  1
  S  S70  1  0.73815941  0.52521177  0.16619427  1
  S  S71  1  0.77126419  0.88218695  0.23796323  1
  S  S72  1  0.24903421  0.36666218  0.15033883  1
  S  S73  1  0.21414991  0.24429181  0.21085941  1
  S  S74  1  0.76465921  0.00340667  0.17724344  1
  S  S75  1  0.72538292  0.36181200  0.24928542  1
  S  S76  1  0.27187416  0.60521341  0.28154083  1
  S  S77  1  0.72869858  0.73864560  0.16653077  1
  S  S78  1  0.27612821  0.50877136  0.22078758  1
  S  S79  1  0.23187855  0.15271156  0.14993014  1
  S  S80  1  0.77017408  0.09663031  0.23875863  1
  S  S81  1  0.83473091  0.62975231  0.24338999  1
  S  S82  1  0.16295420  0.62070618  0.13968099  1
  S  S83  1  0.32781151  0.98090346  0.21623341  1
  S  S84  1  0.67305710  0.26736066  0.17609276  1
  S  S85  1  0.26129186  0.44068088  0.36478240  1
  S  S86  1  0.71026541  0.24507073  0.31048263  1
  S  S87  1  0.75543340  0.59933134  0.38019787  1
  S  S88  1  0.21403211  0.08199127  0.29368778  1
  S  S89  1  0.24273474  0.96207891  0.35457760  1
  S  S90  1  0.78970602  0.72282021  0.32004510  1
  S  S91  1  0.74885224  0.07910507  0.39269057  1
  S  S92  1  0.29911174  0.31955613  0.42538213  1
  S  S93  1  0.72233622  0.45814770  0.31006934  1
  S  S94  1  0.27285962  0.22703870  0.36436846  1
  S  S95  1  0.22911606  0.86875261  0.29323073  1
  S  S96  1  0.77052899  0.81323311  0.38109527  1
  S  S97  1  0.83708400  0.34431990  0.39108555  1
  S  S98  1  0.16255593  0.33626143  0.28748627  1
  S  S99  1  0.33029100  0.69790981  0.35457919  1
  S  S100  1  0.67033704  0.99013283  0.31469764  1
  S  S101  1  0.69044124  0.96536262  0.45414480  1
  S  S102  1  0.76928237  0.32146783  0.52350829  1
  S  S103  1  0.22254848  0.79780100  0.42959649  1
  S  S104  1  0.20292317  0.70405431  0.49301875  1
  S  S105  1  0.76866420  0.44238092  0.46347737  1
  S  S106  1  0.74660894  0.17742548  0.45437852  1
  S  S107  1  0.21720766  0.58663531  0.43499196  1
  S  S108  1  0.80794568  0.53938215  0.52445568  1
  S  S109  1  0.16252807  0.04140042  0.43368732  1
  S  S110  1  0.34709172  0.45154172  0.50317675  1
  S  S111  1  0.66153899  0.70710705  0.45703650  1
