# generated using pymatgen
data_Li3PS4
_symmetry_space_group_name_H-M   'P 1'
_cell_length_a   14.91536200
_cell_length_b   14.48087041
_cell_length_c   46.09462300
_cell_angle_alpha   90.00000000
_cell_angle_beta   90.00000000
_cell_angle_gamma   68.72383501
_symmetry_Int_Tables_number   1
_chemical_formula_structural   Li3PS4
_chemical_formula_sum   'Li84 P28 S112'
_cell_volume   9277.29004457
_cell_formula_units_Z   28
loop_
 _symmetry_equiv_pos_site_id
 _symmetry_equiv_pos_as_xyz
  1  'x, y, z'
loop_
 _atom_site_type_symbol
 _atom_site_label
 _atom_site_symmetry_multiplicity
 _atom_site_fract_x
 _atom_site_fract_y
 _atom_site_fract_z
 _atom_site_occupancy
  Li  Li0  1  0.32877577  0.72117056  0.12076692  1
  Li  Li1  1  0.64744106  0.90502410  0.02408825  1
  Li  Li2  1  0.64603702  0.10403991  0.06877079  1
  Li  Li3  1  0.91963615  0.64354033  0.05225752  1
  Li  Li4  1  0.50363052  0.57329618  0.09999163  1
  Li  Li5  1  0.39189863  0.22934401  0.11063935  1
  Li  Li6  1  0.86897468  0.33863899  0.03355794  1
  Li  Li7  1  0.30021665  0.30976766  0.03397255  1
  Li  Li8  1  0.92013284  0.21529785  0.12579679  1
  Li  Li9  1  0.17479186  0.42690480  0.07778598  1
  Li  Li10  1  0.09293450  0.16057050  0.06877279  1
  Li  Li11  1  0.77591022  0.04503224  0.13516844  1
  Li  Li12  1  0.13966632  0.71381691  0.08187304  1
  Li  Li13  1  0.86056106  0.70796332  0.13370637  1
  Li  Li14  1  0.53776139  0.89442376  0.09565415  1
  Li  Li15  1  0.50202753  0.37043888  0.11624110  1
  Li  Li16  1  0.91598113  0.42044227  0.09345955  1
  Li  Li17  1  0.32542486  0.98151902  0.04630353  1
  Li  Li18  1  0.96800608  0.90922550  0.11109525  1
  Li  Li19  1  0.67890034  0.58900226  0.26883748  1
  Li  Li20  1  0.99932934  0.65834934  0.20039203  1
  Li  Li21  1  0.31359088  0.03821339  0.13963011  1
  Li  Li22  1  0.98944313  0.96402008  0.21500859  1
  Li  Li23  1  0.24180786  0.52758979  0.15926359  1
  Li  Li24  1  0.90953100  0.45417772  0.23294016  1
  Li  Li25  1  0.74807435  0.09634503  0.25487470  1
  Li  Li26  1  0.06787871  0.16201549  0.18549679  1
  Li  Li27  1  0.59009104  0.16385684  0.19452651  1
  Li  Li28  1  0.27354796  0.08998236  0.26307907  1
  Li  Li29  1  0.39514060  0.46278321  0.22156693  1
  Li  Li30  1  0.72127550  0.54237886  0.14984764  1
  Li  Li31  1  0.46922095  0.97385967  0.20477585  1
  Li  Li32  1  0.12644638  0.92312260  0.27976892  1
  Li  Li33  1  0.51431067  0.65308471  0.20743065  1
  Li  Li34  1  0.20557335  0.57979296  0.27957918  1
  Li  Li35  1  0.78904210  0.79179284  0.24070376  1
  Li  Li36  1  0.19311677  0.83888139  0.17232162  1
  Li  Li37  1  0.83006939  0.26314116  0.25479666  1
  Li  Li38  1  0.14801180  0.33016223  0.17987942  1
  Li  Li39  1  0.69261340  0.35327372  0.17514241  1
  Li  Li40  1  0.30358283  0.27960119  0.24067636  1
  Li  Li41  1  0.66387924  0.84443345  0.15955784  1
  Li  Li42  1  0.32573005  0.78023820  0.25553810  1
  Li  Li43  1  0.01659261  0.46440093  0.42037454  1
  Li  Li44  1  0.34280269  0.53751324  0.34437073  1
  Li  Li45  1  0.65172733  0.91417410  0.28952552  1
  Li  Li46  1  0.33263618  0.84417978  0.35860711  1
  Li  Li47  1  0.58248441  0.40607858  0.30417348  1
  Li  Li48  1  0.26311365  0.34199661  0.37349834  1
  Li  Li49  1  0.08834912  0.97553802  0.40005519  1
  Li  Li50  1  0.42036817  0.04783475  0.32608725  1
  Li  Li51  1  0.93668474  0.03953576  0.33723003  1
  Li  Li52  1  0.61018638  0.96087904  0.40915359  1
  Li  Li53  1  0.74012889  0.33865760  0.36477014  1
  Li  Li54  1  0.05761446  0.41296467  0.29594210  1
  Li  Li55  1  0.81597331  0.84912134  0.35177107  1
  Li  Li56  1  0.46961109  0.79482570  0.42481012  1
  Li  Li57  1  0.86233154  0.52827878  0.35436145  1
  Li  Li58  1  0.55663548  0.45721769  0.42400574  1
  Li  Li59  1  0.13681241  0.66361328  0.38691133  1
  Li  Li60  1  0.54382575  0.70985964  0.31838830  1
  Li  Li61  1  0.18252516  0.17363914  0.37878644  1
  Li  Li62  1  0.50194848  0.23908238  0.30407776  1
  Li  Li63  1  0.02634662  0.22418707  0.31848187  1
  Li  Li64  1  0.63743116  0.15040334  0.38361057  1
  Li  Li65  1  0.00435596  0.72243776  0.30367879  1
  Li  Li66  1  0.66642131  0.65845482  0.39956662  1
  Li  Li67  1  0.68741935  0.39722106  0.49041580  1
  Li  Li68  1  0.00132965  0.78049180  0.43805853  1
  Li  Li69  1  0.68478099  0.59537121  0.53499973  1
  Li  Li70  1  0.94125403  0.27114731  0.44862582  1
  Li  Li71  1  0.46439236  0.16275731  0.52529084  1
  Li  Li72  1  0.41415468  0.85871048  0.50664531  1
  Li  Li73  1  0.82513565  0.92930159  0.45867246  1
  Li  Li74  1  0.15786646  0.07436830  0.48151342  1
  Li  Li75  1  0.03341509  0.19181013  0.52522076  1
  Li  Li76  1  0.40976075  0.28766465  0.43313781  1
  Li  Li77  1  0.19372413  0.78767555  0.47748344  1
  Li  Li78  1  0.24048392  0.34229353  0.49045521  1
  Li  Li79  1  0.79423966  0.60652146  0.46328469  1
  Li  Li80  1  0.83049108  0.13160043  0.44317631  1
  Li  Li81  1  0.41300640  0.08492143  0.46494321  1
  Li  Li82  1  0.36337451  0.59378613  0.44805016  1
  Li  Li83  1  0.00756042  0.52105384  0.51373732  1
  P  P84  1  0.81399895  0.83918244  0.07974721  1
  P  P85  1  0.47808106  0.05627757  0.04548637  1
  P  P86  1  0.14424249  0.98543386  0.11612191  1
  P  P87  1  0.30162229  0.52610802  0.09464138  1
  P  P88  1  0.04734496  0.36953017  0.04167062  1
  P  P89  1  0.71450721  0.31002380  0.10479917  1
  P  P90  1  0.16481281  0.70758420  0.22651119  1
  P  P91  1  0.48465955  0.77579597  0.15130189  1
  P  P92  1  0.82311595  0.91768356  0.18863404  1
  P  P93  1  0.50140223  0.85373853  0.26133233  1
  P  P94  1  0.60459542  0.37444285  0.23950002  1
  P  P95  1  0.92699911  0.43836110  0.16827527  1
  P  P96  1  0.37895303  0.25013261  0.17573027  1
  P  P97  1  0.05978133  0.18737713  0.25014359  1
  P  P98  1  0.50833213  0.58472841  0.37044066  1
  P  P99  1  0.82943111  0.64848156  0.29767525  1
  P  P100  1  0.16683585  0.79419908  0.33271632  1
  P  P101  1  0.84582761  0.72656919  0.40796653  1
  P  P102  1  0.95204730  0.25242141  0.38349073  1
  P  P103  1  0.27181622  0.31493045  0.30892533  1
  P  P104  1  0.72688947  0.12787761  0.31942086  1
  P  P105  1  0.40423745  0.06378882  0.39065350  1
  P  P106  1  0.85505731  0.44472459  0.51384570  1
  P  P107  1  0.18669319  0.51740157  0.44329866  1
  P  P108  1  0.51830225  0.66309335  0.47910539  1
  P  P109  1  0.28533548  0.13309158  0.51750877  1
  P  P110  1  0.61640003  0.19322628  0.45384833  1
  P  P111  1  0.03128169  0.97501776  0.46526020  1
  S  S112  1  0.95106101  0.74566941  0.09365741  1
  S  S113  1  0.33995979  0.13478527  0.03228637  1
  S  S114  1  0.01125942  0.06240317  0.09963760  1
  S  S115  1  0.30938666  0.62664088  0.06538320  1
  S  S116  1  0.87804356  0.53306630  0.13338325  1
  S  S117  1  0.08476634  0.32534590  0.08420338  1
  S  S118  1  0.76265675  0.21726236  0.14030696  1
  S  S119  1  0.03445211  0.25031175  0.02073202  1
  S  S120  1  0.61910820  0.28090177  0.07892174  1
  S  S121  1  0.38283828  0.53286156  0.13027390  1
  S  S122  1  0.50130832  0.07886941  0.08879727  1
  S  S123  1  0.80768680  0.80420026  0.03701770  1
  S  S124  1  0.47784522  0.74717881  0.10769132  1
  S  S125  1  0.15870200  0.83699479  0.11680848  1
  S  S126  1  0.49562881  0.90668333  0.04240041  1
  S  S127  1  0.80565298  0.98313216  0.08493198  1
  S  S128  1  0.91113860  0.48204210  0.04233689  1
  S  S129  1  0.64005957  0.44731430  0.12378292  1
  S  S130  1  0.35428505  0.38140152  0.07883327  1
  S  S131  1  0.71843527  0.79944403  0.10445618  1
  S  S132  1  0.24120879  0.02456920  0.09204452  1
  S  S133  1  0.58096026  0.08190275  0.02135096  1
  S  S134  1  0.16249244  0.56133539  0.10955280  1
  S  S135  1  0.14143264  0.42892491  0.02517121  1
  S  S136  1  0.83693507  0.30148828  0.08271504  1
  S  S137  1  0.29914670  0.62621863  0.24283410  1
  S  S138  1  0.61446596  0.69770556  0.17069311  1
  S  S139  1  0.68744406  0.99906371  0.17352303  1
  S  S140  1  0.37036370  0.92949735  0.24263634  1
  S  S141  1  0.55152330  0.46746976  0.20480572  1
  S  S142  1  0.20939478  0.40917973  0.27518068  1
  S  S143  1  0.43124343  0.15688625  0.21044109  1
  S  S144  1  0.12204388  0.09374976  0.28402915  1
  S  S145  1  0.28378339  0.21637015  0.14947487  1
  S  S146  1  0.96811213  0.14333617  0.22534634  1
  S  S147  1  0.69349242  0.41577879  0.26660707  1
  S  S148  1  0.01556089  0.48082600  0.19513182  1
  S  S149  1  0.84282925  0.93714895  0.23202228  1
  S  S150  1  0.16793397  0.01346319  0.15884133  1
  S  S151  1  0.14741414  0.68566917  0.18316837  1
  S  S152  1  0.82220055  0.61922031  0.25413841  1
  S  S153  1  0.51525289  0.70568604  0.25932134  1
  S  S154  1  0.83627417  0.77003160  0.18471848  1
  S  S155  1  0.47595660  0.92255741  0.15281102  1
  S  S156  1  0.15324062  0.85517994  0.22953840  1
  S  S157  1  0.29536326  0.38609512  0.19427260  1
  S  S158  1  0.97242298  0.31976123  0.26925718  1
  S  S159  1  0.69140669  0.24025478  0.22130428  1
  S  S160  1  0.01080579  0.30097729  0.15237940  1
  S  S161  1  0.38080960  0.74460807  0.17357508  1
  S  S162  1  0.06328015  0.67242603  0.24910041  1
  S  S163  1  0.60313274  0.89003355  0.23922057  1
  S  S164  1  0.92302560  0.95467570  0.16580711  1
  S  S165  1  0.49004960  0.37005906  0.26333940  1
  S  S166  1  0.80991564  0.44018906  0.19199175  1
  S  S167  1  0.49583024  0.24682879  0.15200506  1
  S  S168  1  0.16924008  0.19553920  0.22412911  1
  S  S169  1  0.64409344  0.50373694  0.38557001  1
  S  S170  1  0.96049143  0.57331919  0.31647774  1
  S  S171  1  0.03262349  0.87553337  0.31623616  1
  S  S172  1  0.71618799  0.80474843  0.38851247  1
  S  S173  1  0.89926956  0.34588462  0.34883895  1
  S  S174  1  0.56742511  0.28615865  0.41845764  1
  S  S175  1  0.77988998  0.03491392  0.35407178  1
  S  S176  1  0.45349539  0.96941275  0.42559585  1
  S  S177  1  0.63736029  0.08718001  0.29237684  1
  S  S178  1  0.31523454  0.02128055  0.36398176  1
  S  S179  1  0.04730385  0.28624047  0.40966860  1
  S  S180  1  0.36371978  0.35864967  0.33374885  1
  S  S181  1  0.18376739  0.81705263  0.37600117  1
  S  S182  1  0.50949871  0.88303518  0.30482780  1
  S  S183  1  0.48872387  0.56483666  0.32708324  1
  S  S184  1  0.16205422  0.48889351  0.40069994  1
  S  S185  1  0.85484951  0.57975531  0.40638055  1
  S  S186  1  0.17844129  0.64657366  0.32982566  1
  S  S187  1  0.81481167  0.79674765  0.29980242  1
  S  S188  1  0.49511904  0.73248444  0.37412734  1
  S  S189  1  0.64000849  0.26212164  0.33761792  1
  S  S190  1  0.32021973  0.20133150  0.40648074  1
  S  S191  1  0.03560368  0.11661330  0.36487511  1
  S  S192  1  0.35893642  0.18259998  0.28979907  1
  S  S193  1  0.72822899  0.61091635  0.31959092  1
  S  S194  1  0.40858059  0.54812141  0.39341699  1
  S  S195  1  0.94967515  0.75799959  0.38570128  1
  S  S196  1  0.26858480  0.82886891  0.31005582  1
  S  S197  1  0.83556727  0.25502124  0.40727261  1
  S  S198  1  0.16204259  0.30718354  0.33490836  1
  S  S199  1  0.84126313  0.13219370  0.29548792  1
  S  S200  1  0.52112713  0.06207948  0.36687109  1
  S  S201  1  0.99295632  0.36699388  0.52732049  1
  S  S202  1  0.32019737  0.44036037  0.45946037  1
  S  S203  1  0.38090771  0.75644167  0.46534446  1
  S  S204  1  0.24563110  0.17852054  0.47517093  1
  S  S205  1  0.02582244  0.87481088  0.49484065  1
  S  S206  1  0.94901630  0.96808321  0.42978456  1
  S  S207  1  0.29931607  0.25183403  0.53843404  1
  S  S208  1  0.71206092  0.22164639  0.47979683  1
  S  S209  1  0.52534119  0.69823414  0.52180961  1
  S  S210  1  0.85231403  0.75516214  0.45159121  1
  S  S211  1  0.83231312  0.42177660  0.47049935  1
  S  S212  1  0.52694007  0.51902886  0.47408301  1
  S  S213  1  0.17223982  0.66578006  0.44240102  1
  S  S214  1  0.83665329  0.59451533  0.51679230  1
  S  S215  1  0.97799007  0.12027575  0.48081512  1
  S  S216  1  0.42149533  0.02064288  0.51629791  1
  S  S217  1  0.69096592  0.05621100  0.43469673  1
  S  S218  1  0.09024610  0.47867230  0.46774127  1
  S  S219  1  0.75214921  0.41853133  0.53784543  1
  S  S220  1  0.61296711  0.70350299  0.45422785  1
  S  S221  1  0.19194159  0.07320590  0.53421894  1
  S  S222  1  0.49444839  0.20147262  0.47611434  1
  S  S223  1  0.16940849  0.94084595  0.44956768  1
