# generated using pymatgen
data_Li3PS4
_symmetry_space_group_name_H-M   'P 1'
_cell_length_a   14.91536200
_cell_length_b   14.48087041
_cell_length_c   46.09462300
_cell_angle_alpha   90.00000000
_cell_angle_beta   90.00000000
_cell_angle_gamma   68.72383501
_symmetry_Int_Tables_number   1
_chemical_formula_structural   Li3PS4
_chemical_formula_sum   'Li84 P28 S112'
_cell_volume   9277.29004457
_cell_formula_units_Z   28
loop_
 _symmetry_equiv_pos_site_id
 _symmetry_equiv_pos_as_xyz
  1  'x, y, z'
loop_
 _atom_site_type_symbol
 _atom_site_label
 _atom_site_symmetry_multiplicity
 _atom_site_fract_x
 _atom_site_fract_y
 _atom_site_fract_z
 _atom_site_occupancy
  Li  Li0  1  0.34075300  0.71661154  0.12512168  1
  Li  Li1  1  0.65876269  0.90260979  0.02799234  1
  Li  Li2  1  0.65600425  0.09991964  0.07314013  1
  Li  Li3  1  0.92905568  0.63944886  0.05722057  1
  Li  Li4  1  0.51326754  0.56979149  0.10415424  1
  Li  Li5  1  0.40146195  0.22522420  0.11504310  1
  Li  Li6  1  0.87928206  0.33511641  0.03778611  1
  Li  Li7  1  0.30959249  0.30392089  0.03877100  1
  Li  Li8  1  0.93004930  0.21118314  0.13017845  1
  Li  Li9  1  0.18563093  0.42354180  0.08215433  1
  Li  Li10  1  0.10417482  0.15650043  0.07348428  1
  Li  Li11  1  0.78511457  0.04174645  0.13929825  1
  Li  Li12  1  0.15130665  0.71026139  0.08646964  1
  Li  Li13  1  0.87300998  0.70437979  0.13852631  1
  Li  Li14  1  0.54959465  0.89060503  0.10014935  1
  Li  Li15  1  0.51273694  0.36577210  0.12038007  1
  Li  Li16  1  0.92651134  0.41543775  0.09779091  1
  Li  Li17  1  0.33710645  0.97427325  0.05026003  1
  Li  Li18  1  0.97931440  0.90612665  0.11503607  1
  Li  Li19  1  0.68914978  0.58461022  0.27358988  1
  Li  Li20  1  0.00948637  0.65474478  0.20464919  1
  Li  Li21  1  0.32466346  0.03393864  0.14362943  1
  Li  Li22  1  0.99957871  0.96077092  0.21908079  1
  Li  Li23  1  0.25279006  0.52355377  0.16362139  1
  Li  Li24  1  0.91927840  0.45236546  0.23714533  1
  Li  Li25  1  0.75784729  0.09317870  0.25920327  1
  Li  Li26  1  0.07626264  0.15750252  0.18987762  1
  Li  Li27  1  0.60056044  0.15938919  0.19862837  1
  Li  Li28  1  0.28341901  0.08484563  0.26738512  1
  Li  Li29  1  0.40510123  0.45805978  0.22590085  1
  Li  Li30  1  0.73205834  0.53810044  0.15380235  1
  Li  Li31  1  0.48044008  0.96950512  0.20904095  1
  Li  Li32  1  0.13652514  0.91874838  0.28405923  1
  Li  Li33  1  0.52562167  0.64889402  0.21160884  1
  Li  Li34  1  0.21437596  0.57675775  0.28354355  1
  Li  Li35  1  0.80041898  0.78890172  0.24522595  1
  Li  Li36  1  0.20486121  0.83518718  0.17680315  1
  Li  Li37  1  0.84088274  0.25959326  0.25926612  1
  Li  Li38  1  0.15800649  0.32427330  0.18517132  1
  Li  Li39  1  0.70252361  0.34946348  0.17930679  1
  Li  Li40  1  0.31335967  0.27487626  0.24494826  1
  Li  Li41  1  0.67619806  0.83911122  0.16465677  1
  Li  Li42  1  0.33687557  0.77584183  0.25944767  1
  Li  Li43  1  0.02714829  0.46090241  0.42420685  1
  Li  Li44  1  0.35297387  0.53369047  0.34817048  1
  Li  Li45  1  0.66188770  0.90912138  0.29445914  1
  Li  Li46  1  0.34239649  0.84085219  0.36295084  1
  Li  Li47  1  0.59341204  0.40184057  0.30842197  1
  Li  Li48  1  0.27438491  0.33750832  0.37766203  1
  Li  Li49  1  0.09813311  0.97006136  0.40389848  1
  Li  Li50  1  0.43028569  0.04426739  0.33041473  1
  Li  Li51  1  0.94676348  0.03627727  0.34175026  1
  Li  Li52  1  0.62112448  0.95743914  0.41319470  1
  Li  Li53  1  0.75131813  0.33526672  0.36854020  1
  Li  Li54  1  0.06781901  0.40920182  0.29999284  1
  Li  Li55  1  0.82625535  0.84580088  0.35583007  1
  Li  Li56  1  0.47890568  0.79077445  0.42952474  1
  Li  Li57  1  0.87250524  0.52526778  0.35905124  1
  Li  Li58  1  0.56697796  0.45404088  0.42804728  1
  Li  Li59  1  0.14821625  0.65903798  0.39091523  1
  Li  Li60  1  0.55136958  0.70568502  0.32256397  1
  Li  Li61  1  0.19359237  0.16984942  0.38297655  1
  Li  Li62  1  0.51124556  0.23529448  0.30850588  1
  Li  Li63  1  0.03662164  0.22023371  0.32257357  1
  Li  Li64  1  0.64734918  0.14602551  0.38807014  1
  Li  Li65  1  0.01549025  0.71786579  0.30814626  1
  Li  Li66  1  0.67617491  0.65502427  0.40396370  1
  Li  Li67  1  0.69731592  0.39513818  0.49415918  1
  Li  Li68  1  0.01105567  0.77783764  0.44215424  1
  Li  Li69  1  0.69443895  0.59280063  0.53908996  1
  Li  Li70  1  0.94940959  0.26918241  0.45253168  1
  Li  Li71  1  0.47335672  0.16124813  0.52960179  1
  Li  Li72  1  0.42301419  0.85608814  0.51099910  1
  Li  Li73  1  0.83838909  0.92601340  0.46436184  1
  Li  Li74  1  0.16745044  0.07045364  0.48551840  1
  Li  Li75  1  0.04314300  0.18856608  0.52918668  1
  Li  Li76  1  0.42153586  0.28583441  0.43730459  1
  Li  Li77  1  0.19922635  0.78446847  0.48153955  1
  Li  Li78  1  0.24825785  0.33797285  0.49433167  1
  Li  Li79  1  0.80278634  0.60493360  0.46816479  1
  Li  Li80  1  0.83800508  0.12850603  0.44654046  1
  Li  Li81  1  0.42591346  0.07976657  0.46975031  1
  Li  Li82  1  0.37243609  0.58912993  0.45213951  1
  Li  Li83  1  0.01691404  0.51679241  0.51776837  1
  P  P84  1  0.82443560  0.83504323  0.08432251  1
  P  P85  1  0.48819989  0.05171885  0.04971996  1
  P  P86  1  0.15545980  0.98111795  0.12033978  1
  P  P87  1  0.31293285  0.52158398  0.09919482  1
  P  P88  1  0.05804397  0.36524014  0.04610553  1
  P  P89  1  0.72513068  0.30589628  0.10896767  1
  P  P90  1  0.17473267  0.70463071  0.23060677  1
  P  P91  1  0.49579544  0.77179696  0.15556606  1
  P  P92  1  0.83346869  0.91471164  0.19299340  1
  P  P93  1  0.51144848  0.84960182  0.26574622  1
  P  P94  1  0.61496204  0.37038409  0.24381627  1
  P  P95  1  0.93705157  0.43450664  0.17263569  1
  P  P96  1  0.38871461  0.24554234  0.18010573  1
  P  P97  1  0.06966536  0.18329530  0.25441970  1
  P  P98  1  0.51798589  0.58076616  0.37465937  1
  P  P99  1  0.83963710  0.64497718  0.30208589  1
  P  P100  1  0.17723754  0.79035009  0.33692402  1
  P  P101  1  0.85584415  0.72322705  0.41206145  1
  P  P102  1  0.96308215  0.24880373  0.38761399  1
  P  P103  1  0.28167783  0.31168300  0.31314738  1
  P  P104  1  0.73699541  0.12352296  0.32384566  1
  P  P105  1  0.41503450  0.06065680  0.39509908  1
  P  P106  1  0.86447479  0.44182255  0.51807903  1
  P  P107  1  0.19649789  0.51345103  0.44747133  1
  P  P108  1  0.52762461  0.66003586  0.48346625  1
  P  P109  1  0.29522581  0.12867641  0.52164339  1
  P  P110  1  0.62705962  0.18967381  0.45860048  1
  P  P111  1  0.03838070  0.97292723  0.46862627  1
  S  S112  1  0.96197404  0.74244241  0.09814323  1
  S  S113  1  0.34987552  0.12884817  0.03650451  1
  S  S114  1  0.02234844  0.05822933  0.10389399  1
  S  S115  1  0.32169118  0.62207832  0.07004102  1
  S  S116  1  0.88878071  0.52916331  0.13767153  1
  S  S117  1  0.09559804  0.32156554  0.08866851  1
  S  S118  1  0.04502691  0.24593280  0.02528381  1
  S  S119  1  0.62977152  0.27660737  0.08311532  1
  S  S120  1  0.39403630  0.52817661  0.13487318  1
  S  S121  1  0.51106248  0.07489361  0.09303545  1
  S  S122  1  0.81767974  0.79956476  0.04166137  1
  S  S123  1  0.48931284  0.74306136  0.11196747  1
  S  S124  1  0.17002291  0.83271359  0.12121560  1
  S  S125  1  0.50783409  0.90164091  0.04667959  1
  S  S126  1  0.81557249  0.97932379  0.08924560  1
  S  S127  1  0.92185263  0.47792026  0.04666932  1
  S  S128  1  0.65060683  0.44349554  0.12776138  1
  S  S129  1  0.36513338  0.37698099  0.08326205  1
  S  S130  1  0.73009467  0.79463406  0.10930076  1
  S  S131  1  0.25230881  0.01969302  0.09603681  1
  S  S132  1  0.59017086  0.07924984  0.02561545  1
  S  S133  1  0.17363429  0.55739254  0.11395760  1
  S  S134  1  0.15229027  0.42419507  0.02949085  1
  S  S135  1  0.84794955  0.29628930  0.08689644  1
  S  S136  1  0.30889431  0.62283539  0.24699111  1
  S  S137  1  0.62554049  0.69341611  0.17500241  1
  S  S138  1  0.69758560  0.99500434  0.17780642  1
  S  S139  1  0.38057005  0.92487237  0.24687791  1
  S  S140  1  0.56199341  0.46342523  0.20913777  1
  S  S141  1  0.21970124  0.40568501  0.27932155  1
  S  S142  1  0.44139626  0.15233339  0.21478975  1
  S  S143  1  0.77268988  0.21347381  0.14458427  1
  S  S144  1  0.29349329  0.21188360  0.15391342  1
  S  S145  1  0.97753115  0.13956930  0.22973606  1
  S  S146  1  0.70423001  0.41125218  0.27092761  1
  S  S147  1  0.02559040  0.47716452  0.19950469  1
  S  S148  1  0.85292625  0.93477747  0.23634533  1
  S  S149  1  0.17899309  0.00990742  0.16298780  1
  S  S150  1  0.15744147  0.68249514  0.18729220  1
  S  S151  1  0.83122088  0.61609412  0.25856060  1
  S  S152  1  0.52570908  0.70140999  0.26360020  1
  S  S153  1  0.84705214  0.76670527  0.18933665  1
  S  S154  1  0.48701087  0.91846783  0.15710589  1
  S  S155  1  0.16345162  0.85207091  0.23366854  1
  S  S156  1  0.30516403  0.38150001  0.19865250  1
  S  S157  1  0.98277901  0.31627205  0.27331258  1
  S  S158  1  0.70148684  0.23623728  0.22557695  1
  S  S159  1  0.02086866  0.29684953  0.15689450  1
  S  S160  1  0.39195441  0.74045710  0.17782899  1
  S  S161  1  0.07274271  0.67026745  0.25324188  1
  S  S162  1  0.61322809  0.88654191  0.24390031  1
  S  S163  1  0.93294369  0.95167015  0.17001084  1
  S  S164  1  0.50039849  0.36612646  0.26767634  1
  S  S165  1  0.81972957  0.43663989  0.19623721  1
  S  S166  1  0.50544385  0.24272097  0.15635368  1
  S  S167  1  0.17963197  0.19021761  0.22838907  1
  S  S168  1  0.65407032  0.50008259  0.38960232  1
  S  S169  1  0.97089085  0.56920596  0.32070260  1
  S  S170  1  0.04283465  0.87170984  0.32061908  1
  S  S171  1  0.72621303  0.80099176  0.39252633  1
  S  S172  1  0.91063670  0.34255207  0.35299722  1
  S  S173  1  0.57974221  0.28198429  0.42295493  1
  S  S174  1  0.79003553  0.03102737  0.35862483  1
  S  S175  1  0.13147611  0.08964937  0.28831722  1
  S  S176  1  0.64755929  0.08258847  0.29683271  1
  S  S177  1  0.32590146  0.01797229  0.36846870  1
  S  S178  1  0.05807295  0.28226388  0.41394166  1
  S  S179  1  0.37394169  0.35507165  0.33788331  1
  S  S180  1  0.19457748  0.81248801  0.38025256  1
  S  S181  1  0.51879288  0.87883526  0.30928597  1
  S  S182  1  0.49865757  0.56089738  0.33125066  1
  S  S183  1  0.17289356  0.48450091  0.40483639  1
  S  S184  1  0.86468546  0.57645693  0.41080344  1
  S  S185  1  0.18881852  0.64269892  0.33389076  1
  S  S186  1  0.82597900  0.79304410  0.30402011  1
  S  S187  1  0.50419545  0.72857722  0.37861464  1
  S  S188  1  0.65046366  0.25804502  0.34197756  1
  S  S189  1  0.33132658  0.19837905  0.41082051  1
  S  S190  1  0.04647014  0.11302286  0.36897370  1
  S  S191  1  0.36823521  0.17895197  0.29407367  1
  S  S192  1  0.73833500  0.60818655  0.32420264  1
  S  S193  1  0.41863162  0.54298145  0.39748541  1
  S  S194  1  0.95996959  0.75375924  0.38970332  1
  S  S195  1  0.27873503  0.82536970  0.31427608  1
  S  S196  1  0.84581940  0.25211942  0.41116932  1
  S  S197  1  0.17190674  0.30436645  0.33916393  1
  S  S198  1  0.85144595  0.12757353  0.29987804  1
  S  S199  1  0.53162637  0.05875723  0.37111021  1
  S  S200  1  0.00237410  0.36333979  0.53145026  1
  S  S201  1  0.32963669  0.43684997  0.46395369  1
  S  S202  1  0.39007283  0.75299273  0.46981404  1
  S  S203  1  0.25700178  0.17283001  0.47914708  1
  S  S204  1  0.02883269  0.87297985  0.49786855  1
  S  S205  1  0.46467197  0.96584494  0.42990877  1
  S  S206  1  0.95733814  0.96642658  0.43288859  1
  S  S207  1  0.30713764  0.24830579  0.54256631  1
  S  S208  1  0.72280546  0.21850747  0.48439302  1
  S  S209  1  0.53463909  0.69486524  0.52616718  1
  S  S210  1  0.86220589  0.75262559  0.45562494  1
  S  S211  1  0.84205026  0.42022113  0.47461380  1
  S  S212  1  0.53662317  0.51588930  0.47819917  1
  S  S213  1  0.18203701  0.66191187  0.44642376  1
  S  S214  1  0.84652475  0.59152955  0.52144917  1
  S  S215  1  0.98727501  0.11739448  0.48450080  1
  S  S216  1  0.43194635  0.01711009  0.52092108  1
  S  S217  1  0.70113944  0.05166681  0.44002093  1
  S  S218  1  0.09975705  0.47467247  0.47175195  1
  S  S219  1  0.76127891  0.41552164  0.54185658  1
  S  S220  1  0.62248283  0.70045996  0.45865852  1
  S  S221  1  0.20165493  0.06837442  0.53808766  1
  S  S222  1  0.50399871  0.19978898  0.48058522  1
  S  S223  1  0.17776893  0.93615552  0.45381622  1
