# generated using pymatgen
data_Li3PS4
_symmetry_space_group_name_H-M   'P 1'
_cell_length_a   10.24241400
_cell_length_b   14.48086959
_cell_length_c   46.32433700
_cell_angle_alpha   90.00000000
_cell_angle_beta   90.00000000
_cell_angle_gamma   74.68014200
_symmetry_Int_Tables_number   1
_chemical_formula_structural   Li3PS4
_chemical_formula_sum   'Li60 P20 S80'
_cell_volume   6626.63516060
_cell_formula_units_Z   20
loop_
 _symmetry_equiv_pos_site_id
 _symmetry_equiv_pos_as_xyz
  1  'x, y, z'
loop_
 _atom_site_type_symbol
 _atom_site_label
 _atom_site_symmetry_multiplicity
 _atom_site_fract_x
 _atom_site_fract_y
 _atom_site_fract_z
 _atom_site_occupancy
  Li  Li0  1  0.81984683  0.77094631  0.05391501  1
  Li  Li1  1  0.80886410  0.05515716  0.06882781  1
  Li  Li2  1  0.69677877  0.55037531  0.09119489  1
  Li  Li3  1  0.78600877  0.29439207  0.03741418  1
  Li  Li4  1  0.23810281  0.21150233  0.08372689  1
  Li  Li5  1  0.27183119  0.68404450  0.03149208  1
  Li  Li6  1  0.57253332  0.75273312  0.02131800  1
  Li  Li7  1  0.89457460  0.45546834  0.02961987  1
  Li  Li8  1  0.36513713  0.41745749  0.06979528  1
  Li  Li9  1  0.31562017  0.91521101  0.07643485  1
  Li  Li10  1  0.46007923  0.64233611  0.15403739  1
  Li  Li11  1  0.47188408  0.94466774  0.17257374  1
  Li  Li12  1  0.38324442  0.41770507  0.19511119  1
  Li  Li13  1  0.53032724  0.15175245  0.13358267  1
  Li  Li14  1  0.90985601  0.09739600  0.19011882  1
  Li  Li15  1  0.00645668  0.49567965  0.13521260  1
  Li  Li16  1  0.08001124  0.02281446  0.11727007  1
  Li  Li17  1  0.16853221  0.67829914  0.11353660  1
  Li  Li18  1  0.66629531  0.85458450  0.11069943  1
  Li  Li19  1  0.63726645  0.33317810  0.12555075  1
  Li  Li20  1  0.01143929  0.29881370  0.16312184  1
  Li  Li21  1  0.95968433  0.79781260  0.15422531  1
  Li  Li22  1  0.13595576  0.51106056  0.25366459  1
  Li  Li23  1  0.13744446  0.82168109  0.27563281  1
  Li  Li24  1  0.06305842  0.30115158  0.29609332  1
  Li  Li25  1  0.20414425  0.03246143  0.23346433  1
  Li  Li26  1  0.58423425  0.96561172  0.29092044  1
  Li  Li27  1  0.68578583  0.37021949  0.23748442  1
  Li  Li28  1  0.76354562  0.88856729  0.21616220  1
  Li  Li29  1  0.84300013  0.56923966  0.21108374  1
  Li  Li30  1  0.26201514  0.73616530  0.21580709  1
  Li  Li31  1  0.31129231  0.20925854  0.22397157  1
  Li  Li32  1  0.64207294  0.16911396  0.26438147  1
  Li  Li33  1  0.64327438  0.66212509  0.27241462  1
  Li  Li34  1  0.79973221  0.39049907  0.35588509  1
  Li  Li35  1  0.81427875  0.69217079  0.37300070  1
  Li  Li36  1  0.74476277  0.18272810  0.39566293  1
  Li  Li37  1  0.88846103  0.91615355  0.33421418  1
  Li  Li38  1  0.26559339  0.83835595  0.39376168  1
  Li  Li39  1  0.36092963  0.23457094  0.33904820  1
  Li  Li40  1  0.42033112  0.77011198  0.31873537  1
  Li  Li41  1  0.50227468  0.44129297  0.31409211  1
  Li  Li42  1  0.02114581  0.59724381  0.31298619  1
  Li  Li43  1  0.95822172  0.12457153  0.30561659  1
  Li  Li44  1  0.26129940  0.03622617  0.36571129  1
  Li  Li45  1  0.31263589  0.53527161  0.37561509  1
  Li  Li46  1  0.46407493  0.27783293  0.45917674  1
  Li  Li47  1  0.45392719  0.56139218  0.47577569  1
  Li  Li48  1  0.48923959  0.04017405  0.49083730  1
  Li  Li49  1  0.57177751  0.78402918  0.43705245  1
  Li  Li50  1  0.00667888  0.64734947  0.49824648  1
  Li  Li51  1  0.03461134  0.12114255  0.44482168  1
  Li  Li52  1  0.10145787  0.65536746  0.41580995  1
  Li  Li53  1  0.18965848  0.31214765  0.41188338  1
  Li  Li54  1  0.60843346  0.48203999  0.41848878  1
  Li  Li55  1  0.63473243  0.00113200  0.40340669  1
  Li  Li56  1  0.90856222  0.91497942  0.45932379  1
  Li  Li57  1  0.95744275  0.41880443  0.45288272  1
  Li  Li58  1  0.70160575  0.58430770  0.50701635  1
  Li  Li59  1  0.38022091  0.87824639  0.49913746  1
  P  P60  1  0.06850148  0.82325896  0.06794000  1
  P  P61  1  0.55117239  0.01091776  0.06037034  1
  P  P62  1  0.60422027  0.54427934  0.02686329  1
  P  P63  1  0.92441707  0.28811292  0.09418316  1
  P  P64  1  0.71541392  0.70077943  0.16302431  1
  P  P65  1  0.21361024  0.88500445  0.16395794  1
  P  P66  1  0.30830049  0.41630375  0.13140920  1
  P  P67  1  0.60532820  0.16277445  0.19630271  1
  P  P68  1  0.38233641  0.57740096  0.26527042  1
  P  P69  1  0.89063646  0.75591197  0.26490012  1
  P  P70  1  0.99150086  0.29499508  0.23270376  1
  P  P71  1  0.27836556  0.03928828  0.29659334  1
  P  P72  1  0.05819229  0.44946933  0.36522078  1
  P  P73  1  0.55459595  0.63328199  0.36529188  1
  P  P74  1  0.66530026  0.17098227  0.33299349  1
  P  P75  1  0.96469451  0.91719399  0.39778718  1
  P  P76  1  0.72072149  0.32365943  0.46818039  1
  P  P77  1  0.20442604  0.51045279  0.46138777  1
  P  P78  1  0.34782939  0.04578407  0.43438933  1
  P  P79  1  0.66866044  0.79097971  0.50148736  1
  S  S80  1  0.26833522  0.75692413  0.07743187  1
  S  S81  1  0.34638854  0.06624387  0.05824251  1
  S  S82  1  0.47256446  0.63828871  0.00049917  1
  S  S83  1  0.76543726  0.23288883  0.08411073  1
  S  S84  1  0.75455334  0.60815114  0.04198252  1
  S  S85  1  0.02617972  0.77697593  0.02827387  1
  S  S86  1  0.57717881  0.85986594  0.05975388  1
  S  S87  1  0.04774190  0.96839526  0.06868153  1
  S  S88  1  0.70380796  0.42475559  0.00433644  1
  S  S89  1  0.94663660  0.77674910  0.09788740  1
  S  S90  1  0.65596278  0.05598415  0.02952977  1
  S  S91  1  0.50991510  0.51791230  0.06376249  1
  S  S92  1  0.01749266  0.31252486  0.05637968  1
  S  S93  1  0.91912538  0.63363670  0.16625463  1
  S  S94  1  0.01068881  0.95408432  0.16133940  1
  S  S95  1  0.18882835  0.50870877  0.10222364  1
  S  S96  1  0.06782027  0.19737804  0.11935100  1
  S  S97  1  0.44336916  0.11854317  0.18140992  1
  S  S98  1  0.46376378  0.46525028  0.14823140  1
  S  S99  1  0.63386251  0.02530747  0.10085638  1
  S  S100  1  0.62961320  0.69077989  0.12336236  1
  S  S101  1  0.22291911  0.73923635  0.16087266  1
  S  S102  1  0.70625235  0.84674977  0.16680987  1
  S  S103  1  0.84232212  0.40898335  0.11912330  1
  S  S104  1  0.40127193  0.29586183  0.10672518  1
  S  S105  1  0.61355393  0.64980835  0.19417613  1
  S  S106  1  0.31492841  0.94089980  0.13339627  1
  S  S107  1  0.19274365  0.39390665  0.16530246  1
  S  S108  1  0.71456121  0.19216713  0.16214452  1
  S  S109  1  0.58382923  0.50664162  0.26985506  1
  S  S110  1  0.68782361  0.82284212  0.26119157  1
  S  S111  1  0.86922097  0.39194547  0.20540945  1
  S  S112  1  0.73515805  0.06532058  0.22246463  1
  S  S113  1  0.11961804  0.99358537  0.28001000  1
  S  S114  1  0.15033564  0.33929661  0.24988104  1
  S  S115  1  0.30202839  0.89516914  0.20328456  1
  S  S116  1  0.30297531  0.56308257  0.22514392  1
  S  S117  1  0.90295169  0.61028746  0.26117399  1
  S  S118  1  0.37229139  0.72244678  0.26901736  1
  S  S119  1  0.52096162  0.27963655  0.22312538  1
  S  S120  1  0.08100171  0.17786738  0.20674917  1
  S  S121  1  0.27693005  0.52441243  0.29584919  1
  S  S122  1  0.99336388  0.80902507  0.23397104  1
  S  S123  1  0.87605505  0.26752479  0.26637446  1
  S  S124  1  0.39193219  0.06680520  0.26279336  1
  S  S125  1  0.26088937  0.37946907  0.36789303  1
  S  S126  1  0.35092805  0.69984923  0.36283905  1
  S  S127  1  0.53471858  0.26686914  0.30664275  1
  S  S128  1  0.40326295  0.94369996  0.32391789  1
  S  S129  1  0.80862234  0.86853326  0.38118974  1
  S  S130  1  0.82677871  0.21660964  0.34764005  1
  S  S131  1  0.97195513  0.77071310  0.30484148  1
  S  S132  1  0.96981299  0.44032745  0.32585800  1
  S  S133  1  0.56557689  0.48728849  0.36229309  1
  S  S134  1  0.05058899  0.59489727  0.36834299  1
  S  S135  1  0.18843663  0.15622163  0.32263937  1
  S  S136  1  0.75040992  0.05401150  0.30633096  1
  S  S137  1  0.95552409  0.39424236  0.39568449  1
  S  S138  1  0.65380720  0.68606238  0.33360557  1
  S  S139  1  0.55733753  0.14241858  0.36746098  1
  S  S140  1  0.07916292  0.94049001  0.36386745  1
  S  S141  1  0.92531527  0.26706863  0.47029767  1
  S  S142  1  0.00423843  0.57722020  0.45226945  1
  S  S143  1  0.20437690  0.13705751  0.40941446  1
  S  S144  1  0.08479077  0.82441214  0.42681626  1
  S  S145  1  0.51900200  0.72548656  0.48677535  1
  S  S146  1  0.50699329  0.10131166  0.44428107  1
  S  S147  1  0.64459703  0.64550764  0.40424618  1
  S  S148  1  0.63844380  0.31073481  0.42757822  1
  S  S149  1  0.22475378  0.36546814  0.46031250  1
  S  S150  1  0.69614230  0.47472628  0.46923176  1
  S  S151  1  0.87186188  0.03731306  0.42261837  1
  S  S152  1  0.42955945  0.92531786  0.40927656  1
  S  S153  1  0.61469314  0.27899925  0.49884630  1
  S  S154  1  0.32526489  0.55830539  0.43156362  1
  S  S155  1  0.25591669  0.02079411  0.47221267  1
  S  S156  1  0.75813727  0.81868870  0.46418439  1
  S  S157  1  0.80213280  0.69793939  0.52782045  1
  S  S158  1  0.24824017  0.55480606  0.50123687  1
  S  S159  1  0.56932638  0.91006502  0.52425027  1
