# generated using pymatgen
data_Li3PS4
_symmetry_space_group_name_H-M   'P 1'
_cell_length_a   6.25995100
_cell_length_b   15.36973200
_cell_length_c   48.21185800
_cell_angle_alpha   90.00000000
_cell_angle_beta   90.00000000
_cell_angle_gamma   90.00000000
_symmetry_Int_Tables_number   1
_chemical_formula_structural   Li3PS4
_chemical_formula_sum   'Li42 P14 S56'
_cell_volume   4638.64457847
_cell_formula_units_Z   14
loop_
 _symmetry_equiv_pos_site_id
 _symmetry_equiv_pos_as_xyz
  1  'x, y, z'
loop_
 _atom_site_type_symbol
 _atom_site_label
 _atom_site_symmetry_multiplicity
 _atom_site_fract_x
 _atom_site_fract_y
 _atom_site_fract_z
 _atom_site_occupancy
  Li  Li0  1  0.13534603  0.65654291  0.10202551  1
  Li  Li1  1  0.39263198  0.30184605  0.02811890  1
  Li  Li2  1  0.56997755  0.51191718  0.08079654  1
  Li  Li3  1  0.61273659  0.63607664  0.99732278  1
  Li  Li4  1  0.38879389  0.12173515  0.10386226  1
  Li  Li5  1  0.15002527  0.68848277  0.04493969  1
  Li  Li6  1  0.88870865  0.03164572  0.07855143  1
  Li  Li7  1  0.56954631  0.77548456  0.11845559  1
  Li  Li8  1  0.92926277  0.40554260  0.04541965  1
  Li  Li9  1  0.05572771  0.26677374  0.11695710  1
  Li  Li10  1  0.91853500  0.87052169  0.15220706  1
  Li  Li11  1  0.12074246  0.36678363  0.24042058  1
  Li  Li12  1  0.38158942  0.00852676  0.16782187  1
  Li  Li13  1  0.58884625  0.22925038  0.22580764  1
  Li  Li14  1  0.62056603  0.38404052  0.14355318  1
  Li  Li15  1  0.40501181  0.84804192  0.24943513  1
  Li  Li16  1  0.08785937  0.48218280  0.17865544  1
  Li  Li17  1  0.87862343  0.74416115  0.21548682  1
  Li  Li18  1  0.55128586  0.49289860  0.26398645  1
  Li  Li19  1  0.94218239  0.13359345  0.19073512  1
  Li  Li20  1  0.04139871  0.98293654  0.26281631  1
  Li  Li21  1  0.44396085  0.62316785  0.19060814  1
  Li  Li22  1  0.91094798  0.58891580  0.29776418  1
  Li  Li23  1  0.07731189  0.08797047  0.38342621  1
  Li  Li24  1  0.41158921  0.72951504  0.31019206  1
  Li  Li25  1  0.60717114  0.94892457  0.36797802  1
  Li  Li26  1  0.61600433  0.10494076  0.28686665  1
  Li  Li27  1  0.37804404  0.57256277  0.39249124  1
  Li  Li28  1  0.11180978  0.21111398  0.32037335  1
  Li  Li29  1  0.90718274  0.47440463  0.35730021  1
  Li  Li30  1  0.42718185  0.18231326  0.41736521  1
  Li  Li31  1  0.04659383  0.82664010  0.34378734  1
  Li  Li32  1  0.94381294  0.68910341  0.41848659  1
  Li  Li33  1  0.54190649  0.33449241  0.34395839  1
  Li  Li34  1  0.86184268  0.30003505  0.43356305  1
  Li  Li35  1  0.42872687  0.44423730  0.45522166  1
  Li  Li36  1  0.59770532  0.65222939  0.50742280  1
  Li  Li37  1  0.60912557  0.83450189  0.43150422  1
  Li  Li38  1  0.37861394  0.32078058  0.53910080  1
  Li  Li39  1  0.10747942  0.92382491  0.45697952  1
  Li  Li40  1  0.84537734  0.26667343  0.49144305  1
  Li  Li41  1  0.06590984  0.55062049  0.49004251  1
  P  P42  1  0.17071742  0.89082859  0.09833063  1
  P  P43  1  0.64787814  0.26349253  0.07598705  1
  P  P44  1  0.31823041  0.52507548  0.02420677  1
  P  P45  1  0.15825985  0.61299994  0.24523495  1
  P  P46  1  0.84325479  0.62170937  0.14827106  1
  P  P47  1  0.65696787  0.98223550  0.21870647  1
  P  P48  1  0.33990007  0.25174533  0.17270841  1
  P  P49  1  0.15373101  0.33558545  0.38749089  1
  P  P50  1  0.84917834  0.34391863  0.29067719  1
  P  P51  1  0.65899124  0.70480436  0.36307007  1
  P  P52  1  0.34502434  0.97503968  0.31678485  1
  P  P53  1  0.82508522  0.06567825  0.43719282  1
  P  P54  1  0.67675726  0.43100245  0.51199255  1
  P  P55  1  0.34833008  0.69264993  0.45957799  1
  S  S56  1  0.26189522  0.99771255  0.07597093  1
  S  S57  1  0.76631792  0.16413882  0.10012292  1
  S  S58  1  0.24134563  0.63456226  0.00048846  1
  S  S59  1  0.18184333  0.53738921  0.06326944  1
  S  S60  1  0.75777804  0.26339014  0.03611807  1
  S  S61  1  0.74704128  0.63306182  0.10725211  1
  S  S62  1  0.29613091  0.88233257  0.13775231  1
  S  S63  1  0.29577856  0.78010898  0.07906707  1
  S  S64  1  0.19936145  0.41705928  0.00588943  1
  S  S65  1  0.76088884  0.37681107  0.09494109  1
  S  S66  1  0.84278411  0.89320178  0.10097556  1
  S  S67  1  0.31979390  0.25403203  0.07452325  1
  S  S68  1  0.64740885  0.52715938  0.02922461  1
  S  S69  1  0.26387303  0.72059285  0.22366467  1
  S  S70  1  0.71063444  0.51917476  0.16917889  1
  S  S71  1  0.78401306  0.87901533  0.24012579  1
  S  S72  1  0.23484531  0.36022929  0.15139086  1
  S  S73  1  0.21054994  0.23777791  0.21151114  1
  S  S74  1  0.76583307  0.99474584  0.17841126  1
  S  S75  1  0.73485428  0.35646835  0.25067480  1
  S  S76  1  0.28753997  0.60019668  0.28413816  1
  S  S77  1  0.73000600  0.73335463  0.16763123  1
  S  S78  1  0.27330218  0.50599146  0.22307255  1
  S  S79  1  0.22404448  0.14560279  0.15022975  1
  S  S80  1  0.77111372  0.09218503  0.23930023  1
  S  S81  1  0.83274621  0.62073376  0.24807919  1
  S  S82  1  0.16954031  0.60866668  0.14829411  1
  S  S83  1  0.33173785  0.97086688  0.21737914  1
  S  S84  1  0.66511095  0.26051270  0.17582598  1
  S  S85  1  0.28603776  0.43855375  0.36674498  1
  S  S86  1  0.72947172  0.23777408  0.31171121  1
  S  S87  1  0.76324698  0.59642168  0.38449159  1
  S  S88  1  0.22989368  0.08052160  0.29503455  1
  S  S89  1  0.22389369  0.96345641  0.35653411  1
  S  S90  1  0.78947966  0.71749870  0.32418627  1
  S  S91  1  0.69879181  0.07495618  0.39785011  1
  S  S92  1  0.24907742  0.32415313  0.42855841  1
  S  S93  1  0.73110500  0.45253415  0.31190281  1
  S  S94  1  0.26766726  0.22402238  0.36814209  1
  S  S95  1  0.23097142  0.86604036  0.29542577  1
  S  S96  1  0.77330316  0.81150354  0.38528432  1
  S  S97  1  0.82740275  0.34781885  0.38722696  1
  S  S98  1  0.17297144  0.33615900  0.28961198  1
  S  S99  1  0.33397588  0.69670425  0.35974068  1
  S  S100  1  0.66847767  0.98246772  0.31893310  1
  S  S101  1  0.73349086  0.95890607  0.45957162  1
  S  S102  1  0.75167163  0.32147352  0.53582138  1
  S  S103  1  0.23076115  0.79177615  0.43527222  1
  S  S104  1  0.23587139  0.69319850  0.49935287  1
  S  S105  1  0.81488130  0.41816206  0.47305555  1
  S  S106  1  0.70183193  0.17658457  0.45660238  1
  S  S107  1  0.23568908  0.57903048  0.44074745  1
  S  S108  1  0.79521140  0.53928652  0.53016648  1
  S  S109  1  0.15287840  0.06270076  0.43431378  1
  S  S110  1  0.34771425  0.42899208  0.50674845  1
  S  S111  1  0.67611691  0.70161235  0.46117692  1
