# generated using pymatgen
data_Li3PS4
_symmetry_space_group_name_H-M   'P 1'
_cell_length_a   6.25995100
_cell_length_b   15.36973200
_cell_length_c   48.21185800
_cell_angle_alpha   90.00000000
_cell_angle_beta   90.00000000
_cell_angle_gamma   90.00000000
_symmetry_Int_Tables_number   1
_chemical_formula_structural   Li3PS4
_chemical_formula_sum   'Li42 P14 S56'
_cell_volume   4638.64457847
_cell_formula_units_Z   14
loop_
 _symmetry_equiv_pos_site_id
 _symmetry_equiv_pos_as_xyz
  1  'x, y, z'
loop_
 _atom_site_type_symbol
 _atom_site_label
 _atom_site_symmetry_multiplicity
 _atom_site_fract_x
 _atom_site_fract_y
 _atom_site_fract_z
 _atom_site_occupancy
  Li  Li0  1  0.13146971  0.63878607  0.11129168  1
  Li  Li1  1  0.40267655  0.28375189  0.03786012  1
  Li  Li2  1  0.57439034  0.49242810  0.08981072  1
  Li  Li3  1  0.62384854  0.61630969  0.00667121  1
  Li  Li4  1  0.39162528  0.10152020  0.11319561  1
  Li  Li5  1  0.15649822  0.66967031  0.05366323  1
  Li  Li6  1  0.89060646  0.01307243  0.08765001  1
  Li  Li7  1  0.57105408  0.75605508  0.12718442  1
  Li  Li8  1  0.93615238  0.38567428  0.05484410  1
  Li  Li9  1  0.06004119  0.24735409  0.12684773  1
  Li  Li10  1  0.92477313  0.85056432  0.16176785  1
  Li  Li11  1  0.12035127  0.34773657  0.25006560  1
  Li  Li12  1  0.38971057  0.99069114  0.17705676  1
  Li  Li13  1  0.58887413  0.20997525  0.23513599  1
  Li  Li14  1  0.62428379  0.36528079  0.15269481  1
  Li  Li15  1  0.38849175  0.83190827  0.25843457  1
  Li  Li16  1  0.08741493  0.46201717  0.18789014  1
  Li  Li17  1  0.87930901  0.72560182  0.22505831  1
  Li  Li18  1  0.55095312  0.47331276  0.27320558  1
  Li  Li19  1  0.94952756  0.11281755  0.20104133  1
  Li  Li20  1  0.97072101  0.95728744  0.28083604  1
  Li  Li21  1  0.44045105  0.60571017  0.19904470  1
  Li  Li22  1  0.90875831  0.57065192  0.30678963  1
  Li  Li23  1  0.07771009  0.06879386  0.39333641  1
  Li  Li24  1  0.41639591  0.70937509  0.31925455  1
  Li  Li25  1  0.61585966  0.92898465  0.37695434  1
  Li  Li26  1  0.59662568  0.09000400  0.29579267  1
  Li  Li27  1  0.37651759  0.55558994  0.40244895  1
  Li  Li28  1  0.10682552  0.19254994  0.33038072  1
  Li  Li29  1  0.90410543  0.45548061  0.36683797  1
  Li  Li30  1  0.43013289  0.16538535  0.42633750  1
  Li  Li31  1  0.06062842  0.80450725  0.35459052  1
  Li  Li32  1  0.94013362  0.67187334  0.42843711  1
  Li  Li33  1  0.53248540  0.31771638  0.35272613  1
  Li  Li34  1  0.86530759  0.28249378  0.44341374  1
  Li  Li35  1  0.42465066  0.42715992  0.46482959  1
  Li  Li36  1  0.59934911  0.63593791  0.51732699  1
  Li  Li37  1  0.60645850  0.81775067  0.44141143  1
  Li  Li38  1  0.37565355  0.30219531  0.54801387  1
  Li  Li39  1  0.10358378  0.90600702  0.46676331  1
  Li  Li40  1  0.84350890  0.24956283  0.50073793  1
  Li  Li41  1  0.06694748  0.53342679  0.49998444  1
  P  P42  1  0.17307503  0.87239784  0.10749974  1
  P  P43  1  0.65348673  0.24388697  0.08561641  1
  P  P44  1  0.32607737  0.50574763  0.03331934  1
  P  P45  1  0.15872542  0.59361919  0.25445995  1
  P  P46  1  0.84303354  0.60231886  0.15753503  1
  P  P47  1  0.65419456  0.96309734  0.22801529  1
  P  P48  1  0.34369750  0.23344948  0.18216226  1
  P  P49  1  0.15207890  0.31854014  0.39745549  1
  P  P50  1  0.84548818  0.32472401  0.30030774  1
  P  P51  1  0.66020869  0.68633657  0.37260117  1
  P  P52  1  0.34259380  0.95597338  0.32635256  1
  P  P53  1  0.82492292  0.04758789  0.44679004  1
  P  P54  1  0.67490341  0.41330448  0.52139668  1
  P  P55  1  0.34697010  0.67607174  0.46948204  1
  S  S56  1  0.26417084  0.97872416  0.08488737  1
  S  S57  1  0.77008539  0.14454967  0.10989344  1
  S  S58  1  0.25140743  0.61506233  0.00939824  1
  S  S59  1  0.18847755  0.51881850  0.07227298  1
  S  S60  1  0.76528518  0.24322004  0.04580641  1
  S  S61  1  0.74673182  0.61367795  0.11650127  1
  S  S62  1  0.29555987  0.76106861  0.08826526  1
  S  S63  1  0.20760909  0.39746712  0.01513605  1
  S  S64  1  0.76704783  0.35749741  0.10436340  1
  S  S65  1  0.84555619  0.87501868  0.11056784  1
  S  S66  1  0.32555343  0.23509501  0.08406118  1
  S  S67  1  0.65524949  0.50737244  0.03853967  1
  S  S68  1  0.26395580  0.70119346  0.23293985  1
  S  S69  1  0.70947483  0.50014262  0.17841808  1
  S  S70  1  0.77259213  0.85816854  0.24979377  1
  S  S71  1  0.23898758  0.34171193  0.16068234  1
  S  S72  1  0.21242235  0.21999924  0.22092836  1
  S  S73  1  0.77372946  0.97522273  0.18819762  1
  S  S74  1  0.73322386  0.33689380  0.26025981  1
  S  S75  1  0.30149827  0.86435743  0.14676508  1
  S  S76  1  0.73163984  0.71423961  0.17686238  1
  S  S77  1  0.27350977  0.48662042  0.23235411  1
  S  S78  1  0.22862747  0.12709833  0.15973376  1
  S  S79  1  0.76770367  0.07223722  0.24929899  1
  S  S80  1  0.83303603  0.60130904  0.25735837  1
  S  S81  1  0.16922456  0.58860696  0.15736768  1
  S  S82  1  0.33086568  0.95411732  0.22602024  1
  S  S83  1  0.66857845  0.24215118  0.18544469  1
  S  S84  1  0.28357070  0.42162028  0.37666875  1
  S  S85  1  0.72423371  0.21902139  0.32142234  1
  S  S86  1  0.76316103  0.57815277  0.39415730  1
  S  S87  1  0.21691670  0.05980384  0.30502261  1
  S  S88  1  0.23178819  0.94399252  0.36657086  1
  S  S89  1  0.79282085  0.69950467  0.33387586  1
  S  S90  1  0.69963326  0.05554600  0.40733878  1
  S  S91  1  0.28731715  0.58081455  0.29345342  1
  S  S92  1  0.72840124  0.43389837  0.32135535  1
  S  S93  1  0.26522461  0.20680918  0.37797877  1
  S  S94  1  0.22912969  0.84581022  0.30569132  1
  S  S95  1  0.77352824  0.79284999  0.39501711  1
  S  S96  1  0.82596579  0.33011925  0.39714597  1
  S  S97  1  0.16936973  0.31656566  0.29947193  1
  S  S98  1  0.33515139  0.67750114  0.36900651  1
  S  S99  1  0.66753115  0.96651025  0.32756891  1
  S  S100  1  0.73145546  0.94146216  0.46939126  1
  S  S101  1  0.74876263  0.30346385  0.54512339  1
  S  S102  1  0.22933240  0.77480678  0.44503464  1
  S  S103  1  0.23602444  0.67693358  0.50930312  1
  S  S104  1  0.81205563  0.40082972  0.48242653  1
  S  S105  1  0.25010220  0.30674170  0.43839513  1
  S  S106  1  0.70141917  0.15893941  0.46588279  1
  S  S107  1  0.23334802  0.56244226  0.45073365  1
  S  S108  1  0.79436736  0.52130569  0.53967502  1
  S  S109  1  0.15272734  0.04491795  0.44422981  1
  S  S110  1  0.34560428  0.41183402  0.51627452  1
  S  S111  1  0.67493551  0.68503460  0.47096109  1
