# generated using pymatgen
data_Li3PS4
_symmetry_space_group_name_H-M   'P 1'
_cell_length_a   8.10679100
_cell_length_b   14.48087000
_cell_length_c   45.15849200
_cell_angle_alpha   90.00000000
_cell_angle_beta   90.00000000
_cell_angle_gamma   90.00000000
_symmetry_Int_Tables_number   1
_chemical_formula_structural   Li3PS4
_chemical_formula_sum   'Li48 P16 S64'
_cell_volume   5301.30830909
_cell_formula_units_Z   16
loop_
 _symmetry_equiv_pos_site_id
 _symmetry_equiv_pos_as_xyz
  1  'x, y, z'
loop_
 _atom_site_type_symbol
 _atom_site_label
 _atom_site_symmetry_multiplicity
 _atom_site_fract_x
 _atom_site_fract_y
 _atom_site_fract_z
 _atom_site_occupancy
  Li  Li0  1  0.96356278  0.67875859  0.09971266  1
  Li  Li1  1  0.03149486  0.98218446  0.11418588  1
  Li  Li2  1  0.01784000  0.36310175  0.07165090  1
  Li  Li3  1  0.74508156  0.22620454  0.12248914  1
  Li  Li4  1  0.44665017  0.98182588  0.12687127  1
  Li  Li5  1  0.51333582  0.67922240  0.10410299  1
  Li  Li6  1  0.46143903  0.36797127  0.07320069  1
  Li  Li7  1  0.54178320  0.88989021  0.07070193  1
  Li  Li8  1  0.95532210  0.49258727  0.22707269  1
  Li  Li9  1  0.02251650  0.80129535  0.24231212  1
  Li  Li10  1  0.02897767  0.44825889  0.14775231  1
  Li  Li11  1  0.96672642  0.02508382  0.20125084  1
  Li  Li12  1  0.53732549  0.02408235  0.20651674  1
  Li  Li13  1  0.46852279  0.44542722  0.14933539  1
  Li  Li14  1  0.45736846  0.79795787  0.24811386  1
  Li  Li15  1  0.52415753  0.48802827  0.23368205  1
  Li  Li16  1  0.05730583  0.74353293  0.16283818  1
  Li  Li17  1  0.03675893  0.22374480  0.18032204  1
  Li  Li18  1  0.45303557  0.22151430  0.18142362  1
  Li  Li19  1  0.54502536  0.73075356  0.18248913  1
  Li  Li20  1  0.95470836  0.30346223  0.35321283  1
  Li  Li21  1  0.02104184  0.61313878  0.36790180  1
  Li  Li22  1  0.02940589  0.26804623  0.27167238  1
  Li  Li23  1  0.96126001  0.84528039  0.32750631  1
  Li  Li24  1  0.52701727  0.83337141  0.32972467  1
  Li  Li25  1  0.46394965  0.25602884  0.27389208  1
  Li  Li26  1  0.45488778  0.60833641  0.37479505  1
  Li  Li27  1  0.52073210  0.29942811  0.35916967  1
  Li  Li28  1  0.04792612  0.55790375  0.29132482  1
  Li  Li29  1  0.93777424  0.06729462  0.29339604  1
  Li  Li30  1  0.43774014  0.03406980  0.30761728  1
  Li  Li31  1  0.54765718  0.54317177  0.31026620  1
  Li  Li32  1  0.93963266  0.11988704  0.47459967  1
  Li  Li33  1  0.01070973  0.42100961  0.49741967  1
  Li  Li34  1  0.03463033  0.07726389  0.39470013  1
  Li  Li35  1  0.96867769  0.65714014  0.45174009  1
  Li  Li36  1  0.53032639  0.65023447  0.45471471  1
  Li  Li37  1  0.46540123  0.07631396  0.40013458  1
  Li  Li38  1  0.45999619  0.41832434  0.50201114  1
  Li  Li39  1  0.52794534  0.11839171  0.48746589  1
  Li  Li40  1  0.04328152  0.36988525  0.41878366  1
  Li  Li41  1  0.95253693  0.88040877  0.41997814  1
  Li  Li42  1  0.53152603  0.87604778  0.42150216  1
  Li  Li43  1  0.55870797  0.35643293  0.43850554  1
  Li  Li44  1  0.24165735  0.87446197  0.47941254  1
  Li  Li45  1  0.51909105  0.73734958  0.52966577  1
  Li  Li46  1  0.03956589  0.20775242  0.53128348  1
  Li  Li47  1  0.96150356  0.73252358  0.52832072  1
  P  P48  1  0.23393561  0.79050076  0.07975065  1
  P  P49  1  0.74473630  0.43066074  0.10528364  1
  P  P50  1  0.24453687  0.22453647  0.12136977  1
  P  P51  1  0.24659538  0.60199287  0.20720225  1
  P  P52  1  0.74990939  0.87421999  0.14416102  1
  P  P53  1  0.74713676  0.24575017  0.22948648  1
  P  P54  1  0.23907940  0.04463341  0.24688080  1
  P  P55  1  0.24498358  0.41454677  0.33273270  1
  P  P56  1  0.74662310  0.68674366  0.26890509  1
  P  P57  1  0.73737150  0.05722860  0.35431822  1
  P  P58  1  0.24543076  0.85526051  0.37183167  1
  P  P59  1  0.24671982  0.22621746  0.45748725  1
  P  P60  1  0.74507501  0.49882312  0.39449372  1
  P  P61  1  0.74255119  0.87647329  0.48012394  1
  P  P62  1  0.24354663  0.66919377  0.49639547  1
  P  P63  1  0.73266699  0.30912800  0.52219292  1
  S  S64  1  0.44119080  0.74652298  0.05737300  1
  S  S65  1  0.53145562  0.50465323  0.09921804  1
  S  S66  1  0.95786447  0.50314682  0.09745411  1
  S  S67  1  0.02139686  0.77093011  0.05823878  1
  S  S68  1  0.26961926  0.93294267  0.08710120  1
  S  S69  1  0.73926251  0.31860129  0.07651015  1
  S  S70  1  0.23598772  0.71501894  0.11952869  1
  S  S71  1  0.73293840  0.95474147  0.10684909  1
  S  S72  1  0.24383310  0.26277942  0.07769267  1
  S  S73  1  0.46474779  0.56684749  0.18667881  1
  S  S74  1  0.54710872  0.89881885  0.17051379  1
  S  S75  1  0.53123965  0.31842018  0.22418889  1
  S  S76  1  0.45582555  0.15120992  0.13088334  1
  S  S77  1  0.03623519  0.14883395  0.13077345  1
  S  S78  1  0.95785507  0.32204307  0.22231965  1
  S  S79  1  0.97176789  0.90606406  0.16364132  1
  S  S80  1  0.03739796  0.57724134  0.18281678  1
  S  S81  1  0.74912073  0.73268343  0.13734600  1
  S  S82  1  0.25385479  0.74475986  0.21167179  1
  S  S83  1  0.24504919  0.33041665  0.15307331  1
  S  S84  1  0.74612120  0.14466539  0.19659359  1
  S  S85  1  0.23653589  0.52747961  0.24582874  1
  S  S86  1  0.73670819  0.75984951  0.23020003  1
  S  S87  1  0.74952346  0.38020962  0.14805537  1
  S  S88  1  0.24961374  0.09334058  0.20393113  1
  S  S89  1  0.46159248  0.37945138  0.31161499  1
  S  S90  1  0.53544030  0.71080366  0.29287470  1
  S  S91  1  0.52163006  0.13063655  0.34992540  1
  S  S92  1  0.44842197  0.96926111  0.25508099  1
  S  S93  1  0.02394501  0.97071294  0.25130419  1
  S  S94  1  0.94654996  0.13265399  0.34601009  1
  S  S95  1  0.96305811  0.72197088  0.29000138  1
  S  S96  1  0.03439665  0.39045280  0.30863605  1
  S  S97  1  0.75468680  0.54348165  0.26463486  1
  S  S98  1  0.25305071  0.55771225  0.33720841  1
  S  S99  1  0.23356747  0.14451561  0.27990214  1
  S  S100  1  0.73220013  0.95705569  0.32134802  1
  S  S101  1  0.23484868  0.34111356  0.37138270  1
  S  S102  1  0.73453782  0.57336913  0.35587269  1
  S  S103  1  0.75000672  0.19734805  0.27212308  1
  S  S104  1  0.24804792  0.90379708  0.32922025  1
  S  S105  1  0.46867067  0.19450513  0.43796456  1
  S  S106  1  0.53609768  0.52325275  0.41892723  1
  S  S107  1  0.53360264  0.95181035  0.47092755  1
  S  S108  1  0.45628289  0.77898129  0.37901088  1
  S  S109  1  0.02943663  0.78269581  0.37726839  1
  S  S110  1  0.95310772  0.95041323  0.47049468  1
  S  S111  1  0.96329053  0.53389534  0.41495406  1
  S  S112  1  0.04402522  0.20192689  0.43104659  1
  S  S113  1  0.75215674  0.35604594  0.38991471  1
  S  S114  1  0.24643916  0.36765583  0.46434626  1
  S  S115  1  0.24413740  0.95650054  0.40471364  1
  S  S116  1  0.74229583  0.77052450  0.44847272  1
  S  S117  1  0.22955387  0.14504595  0.49465559  1
  S  S118  1  0.73346118  0.38393497  0.48228667  1
  S  S119  1  0.74803054  0.00861101  0.39725731  1
  S  S120  1  0.25044419  0.72028916  0.45371870  1
  S  S121  1  0.52169299  0.33019147  0.54404564  1
  S  S122  1  0.45529418  0.59573143  0.50447272  1
  S  S123  1  0.02890690  0.59603120  0.50201379  1
  S  S124  1  0.94184939  0.35237596  0.54413004  1
  S  S125  1  0.76570300  0.16643027  0.51493146  1
  S  S126  1  0.23915790  0.78115670  0.52524317  1
  S  S127  1  0.74370945  0.83810837  0.52378897  1
