# generated using pymatgen
data_Li3PS4
_symmetry_space_group_name_H-M   'P 1'
_cell_length_a   13.05789500
_cell_length_b   10.24241400
_cell_length_c   49.54702600
_cell_angle_alpha   90.00000000
_cell_angle_beta   90.00000000
_cell_angle_gamma   90.00000000
_symmetry_Int_Tables_number   1
_chemical_formula_structural   Li3PS4
_chemical_formula_sum   'Li60 P20 S80'
_cell_volume   6626.63560723
_cell_formula_units_Z   20
loop_
 _symmetry_equiv_pos_site_id
 _symmetry_equiv_pos_as_xyz
  1  'x, y, z'
loop_
 _atom_site_type_symbol
 _atom_site_label
 _atom_site_symmetry_multiplicity
 _atom_site_fract_x
 _atom_site_fract_y
 _atom_site_fract_z
 _atom_site_occupancy
  Li  Li0  1  0.15947030  0.67957925  0.08777167  1
  Li  Li1  1  0.67204985  0.72604132  0.08289353  1
  Li  Li2  1  0.30854211  0.17506682  0.08940687  1
  Li  Li3  1  0.84560472  0.21326171  0.07949422  1
  Li  Li4  1  0.48442860  0.64658843  0.11287924  1
  Li  Li5  1  0.49087089  0.21666563  0.05867479  1
  Li  Li6  1  0.02389454  0.12786379  0.11155127  1
  Li  Li7  1  0.17080031  0.31662007  0.19282890  1
  Li  Li8  1  0.85005350  0.57056411  0.10415619  1
  Li  Li9  1  0.33093921  0.43893646  0.13460152  1
  Li  Li10  1  0.66988890  0.42679460  0.16172767  1
  Li  Li11  1  0.66564567  0.07029611  0.10366962  1
  Li  Li12  1  0.33840488  0.81933589  0.18933913  1
  Li  Li13  1  0.82510521  0.94338573  0.15991665  1
  Li  Li14  1  0.17276812  0.94484557  0.13570292  1
  Li  Li15  1  0.01235021  0.41513911  0.14884088  1
  Li  Li16  1  0.49511981  0.26710395  0.21088336  1
  Li  Li17  1  0.50467423  0.99913813  0.14772431  1
  Li  Li18  1  0.98742746  0.74989667  0.18517128  1
  Li  Li19  1  0.16867970  0.94162628  0.29479435  1
  Li  Li20  1  0.83717698  0.19659722  0.20795571  1
  Li  Li21  1  0.32420303  0.08883783  0.23565082  1
  Li  Li22  1  0.67313891  0.04834608  0.26341092  1
  Li  Li23  1  0.67001580  0.70117706  0.20431129  1
  Li  Li24  1  0.33589939  0.44810116  0.29099414  1
  Li  Li25  1  0.82961671  0.56443452  0.26141759  1
  Li  Li26  1  0.16484073  0.60434511  0.23316280  1
  Li  Li27  1  0.00837810  0.01588227  0.25041876  1
  Li  Li28  1  0.50624017  0.88273539  0.29189669  1
  Li  Li29  1  0.50852103  0.60802222  0.24742715  1
  Li  Li30  1  0.99380256  0.37765547  0.28776269  1
  Li  Li31  1  0.17063568  0.56796126  0.39473452  1
  Li  Li32  1  0.83769458  0.81855216  0.30909979  1
  Li  Li33  1  0.33356086  0.72573928  0.33456730  1
  Li  Li34  1  0.67116845  0.68663046  0.36254820  1
  Li  Li35  1  0.66320271  0.32406677  0.30697788  1
  Li  Li36  1  0.32620681  0.06674139  0.39476446  1
  Li  Li37  1  0.82884664  0.19131592  0.36156824  1
  Li  Li38  1  0.16593397  0.22940529  0.33388989  1
  Li  Li39  1  0.00861337  0.64163070  0.35097096  1
  Li  Li40  1  0.50416383  0.50426503  0.38833517  1
  Li  Li41  1  0.48831150  0.14892582  0.35131427  1
  Li  Li42  1  0.99390856  0.00693518  0.38754715  1
  Li  Li43  1  0.15111653  0.19870748  0.49874837  1
  Li  Li44  1  0.83439017  0.44939598  0.40893402  1
  Li  Li45  1  0.32941902  0.33623721  0.43732848  1
  Li  Li46  1  0.67063401  0.32606135  0.46355049  1
  Li  Li47  1  0.66307383  0.95143046  0.40827575  1
  Li  Li48  1  0.33319166  0.69921700  0.49322617  1
  Li  Li49  1  0.83162505  0.84024547  0.46167098  1
  Li  Li50  1  0.16042045  0.84309617  0.43692463  1
  Li  Li51  1  0.00178441  0.26815380  0.45197022  1
  Li  Li52  1  0.51260287  0.11820671  0.48449407  1
  Li  Li53  1  0.49743057  0.77332547  0.45062148  1
  Li  Li54  1  0.97591383  0.64146368  0.48563538  1
  Li  Li55  1  0.83897903  0.08630893  0.51207174  1
  Li  Li56  1  0.32860350  0.03719196  0.51613742  1
  Li  Li57  1  0.69211872  0.59588511  0.50798482  1
  Li  Li58  1  0.15588763  0.55570582  0.51664331  1
  Li  Li59  1  0.50944561  0.55552456  0.53907822  1
  P  P60  1  0.08697644  0.40420857  0.08730404  1
  P  P61  1  0.40694222  0.91034617  0.08978167  1
  P  P62  1  0.08745296  0.03903060  0.18947876  1
  P  P63  1  0.91204205  0.84824452  0.10542659  1
  P  P64  1  0.41176265  0.53764006  0.18923129  1
  P  P65  1  0.59103491  0.34669423  0.10470876  1
  P  P66  1  0.08984281  0.66895846  0.28971918  1
  P  P67  1  0.91124781  0.47438484  0.20755468  1
  P  P68  1  0.41100625  0.16768004  0.28933894  1
  P  P69  1  0.58744943  0.97561756  0.20871658  1
  P  P70  1  0.08876742  0.29663538  0.39000670  1
  P  P71  1  0.91150214  0.10021814  0.30810799  1
  P  P72  1  0.40906654  0.79657444  0.39033597  1
  P  P73  1  0.58965463  0.60463233  0.30830859  1
  P  P74  1  0.08786201  0.92343399  0.49414615  1
  P  P75  1  0.90888630  0.73155612  0.40796103  1
  P  P76  1  0.40941753  0.42263182  0.49354078  1
  P  P77  1  0.58743282  0.23277807  0.40870360  1
  P  P78  1  0.91562820  0.36122522  0.51012351  1
  P  P79  1  0.59471100  0.86092929  0.50829248  1
  S  S80  1  0.13604052  0.22022447  0.07787702  1
  S  S81  1  0.66184132  0.25988336  0.07167836  1
  S  S82  1  0.35075497  0.72958293  0.08319818  1
  S  S83  1  0.84764824  0.75848391  0.07294303  1
  S  S84  1  0.06286984  0.88696953  0.09763827  1
  S  S85  1  0.44082325  0.37788733  0.09352164  1
  S  S86  1  0.08539962  0.52721081  0.05640313  1
  S  S87  1  0.39234187  0.02497528  0.05643053  1
  S  S88  1  0.15379018  0.86116893  0.18108648  1
  S  S89  1  0.84702694  0.03221743  0.11379569  1
  S  S90  1  0.34368037  0.00862823  0.12256723  1
  S  S91  1  0.64912619  0.89093860  0.17483708  1
  S  S92  1  0.65433515  0.52707496  0.11452325  1
  S  S93  1  0.35229856  0.35570461  0.18173750  1
  S  S94  1  0.84722487  0.37784643  0.17533796  1
  S  S95  1  0.15925187  0.48975078  0.12054831  1
  S  S96  1  0.06143158  0.51368394  0.19553304  1
  S  S97  1  0.93903278  0.36752836  0.10405012  1
  S  S98  1  0.43790950  0.02087809  0.19787256  1
  S  S99  1  0.55904959  0.87989757  0.10316763  1
  S  S100  1  0.10992556  0.16144287  0.15711566  1
  S  S101  1  0.88456753  0.73647049  0.13942114  1
  S  S102  1  0.38964384  0.65173226  0.15584944  1
  S  S103  1  0.61011682  0.23040983  0.13784735  1
  S  S104  1  0.15637781  0.49564713  0.27795582  1
  S  S105  1  0.84949795  0.65505551  0.21538793  1
  S  S106  1  0.34850259  0.63444167  0.22153667  1
  S  S107  1  0.65260781  0.51276395  0.27529435  1
  S  S108  1  0.65520227  0.14960211  0.21925107  1
  S  S109  1  0.34428635  0.99092026  0.27993303  1
  S  S110  1  0.84848939  0.99984502  0.27605432  1
  S  S111  1  0.14542452  0.12954801  0.22312834  1
  S  S112  1  0.06151976  0.13996122  0.29626029  1
  S  S113  1  0.93622268  0.99598995  0.19900155  1
  S  S114  1  0.43965197  0.64763716  0.29639996  1
  S  S115  1  0.56377948  0.50301533  0.20026673  1
  S  S116  1  0.10592182  0.79689248  0.25815818  1
  S  S117  1  0.89577612  0.35871909  0.24100664  1
  S  S118  1  0.39583778  0.28932762  0.25666964  1
  S  S119  1  0.60345186  0.84854032  0.24071499  1
  S  S120  1  0.15492459  0.12275399  0.37827485  1
  S  S121  1  0.84757820  0.27996748  0.31532600  1
  S  S122  1  0.34993754  0.25933787  0.32237886  1
  S  S123  1  0.65195962  0.13794350  0.37613663  1
  S  S124  1  0.65279999  0.78305015  0.31727608  1
  S  S125  1  0.34415459  0.62169534  0.37893372  1
  S  S126  1  0.84616020  0.63212493  0.37570180  1
  S  S127  1  0.15014140  0.75046496  0.32406852  1
  S  S128  1  0.06100744  0.76637909  0.39725506  1
  S  S129  1  0.94006179  0.62078142  0.30019644  1
  S  S130  1  0.43519250  0.26598680  0.39782170  1
  S  S131  1  0.56072359  0.12224279  0.30053505  1
  S  S132  1  0.10525700  0.42363388  0.35821810  1
  S  S133  1  0.89537031  0.98491257  0.34153069  1
  S  S134  1  0.39325363  0.92325273  0.35847649  1
  S  S135  1  0.60355667  0.48349892  0.34086654  1
  S  S136  1  0.15248356  0.74209767  0.48316328  1
  S  S137  1  0.84828270  0.91387353  0.41433804  1
  S  S138  1  0.34578603  0.87636772  0.42444335  1
  S  S139  1  0.66083016  0.76689447  0.47535578  1
  S  S140  1  0.64747809  0.41367937  0.41653759  1
  S  S141  1  0.34500135  0.24130338  0.48479641  1
  S  S142  1  0.84057279  0.26906061  0.47793148  1
  S  S143  1  0.15014670  0.37724372  0.42417508  1
  S  S144  1  0.06143868  0.39843257  0.49264740  1
  S  S145  1  0.93850401  0.25072918  0.40036044  1
  S  S146  1  0.44201554  0.88739426  0.49490660  1
  S  S147  1  0.55947373  0.75182374  0.40083559  1
  S  S148  1  0.11211219  0.04341849  0.46130155  1
  S  S149  1  0.88669567  0.61836766  0.44129634  1
  S  S150  1  0.38944808  0.53588787  0.45998237  1
  S  S151  1  0.60922670  0.11614047  0.44174413  1
  S  S152  1  0.86429532  0.54461953  0.51906896  1
  S  S153  1  0.33836058  0.51274664  0.52615298  1
  S  S154  1  0.64665178  0.04337402  0.51518659  1
  S  S155  1  0.15455359  0.00219034  0.52759644  1
  S  S156  1  0.93718340  0.88149550  0.50167673  1
  S  S157  1  0.55998860  0.39366389  0.50449694  1
  S  S158  1  0.92132429  0.24112923  0.54157391  1
  S  S159  1  0.61064461  0.74494362  0.54139778  1
