# generated using pymatgen
data_Li3PS4
_symmetry_space_group_name_H-M   'P 1'
_cell_length_a   13.05789500
_cell_length_b   14.91536200
_cell_length_c   47.63368400
_cell_angle_alpha   90.00000000
_cell_angle_beta   90.00000000
_cell_angle_gamma   90.00000000
_symmetry_Int_Tables_number   1
_chemical_formula_structural   Li3PS4
_chemical_formula_sum   'Li84 P28 S112'
_cell_volume   9277.29019470
_cell_formula_units_Z   28
loop_
 _symmetry_equiv_pos_site_id
 _symmetry_equiv_pos_as_xyz
  1  'x, y, z'
loop_
 _atom_site_type_symbol
 _atom_site_label
 _atom_site_symmetry_multiplicity
 _atom_site_fract_x
 _atom_site_fract_y
 _atom_site_fract_z
 _atom_site_occupancy
  Li  Li0  1  0.15126758  0.29141094  0.12577483  1
  Li  Li1  1  0.19725353  0.64280469  0.04629544  1
  Li  Li2  1  0.83470843  0.54109261  0.05192304  1
  Li  Li3  1  0.84549777  0.15034231  0.14584205  1
  Li  Li4  1  0.31345762  0.42867267  0.08177003  1
  Li  Li5  1  0.67014565  0.41312718  0.10201885  1
  Li  Li6  1  0.65155511  0.66695900  0.04267473  1
  Li  Li7  1  0.67493748  0.88767568  0.08523817  1
  Li  Li8  1  0.33923858  0.40683477  0.00231358  1
  Li  Li9  1  0.33145630  0.96775836  0.08087208  1
  Li  Li10  1  0.83335780  0.71202863  0.13495505  1
  Li  Li11  1  0.76955118  0.19334565  0.09042528  1
  Li  Li12  1  0.16605231  0.76929907  0.10889920  1
  Li  Li13  1  0.99630636  0.44594451  0.08801188  1
  Li  Li14  1  0.00590818  0.69338731  0.01945010  1
  Li  Li15  1  0.47292412  0.57468903  0.06867354  1
  Li  Li16  1  0.51115586  0.26457320  0.11625396  1
  Li  Li17  1  0.50451564  0.78260044  0.12485599  1
  Li  Li18  1  0.53284915  0.15099700  0.05903780  1
  Li  Li19  1  0.04364388  0.28328122  0.03430992  1
  Li  Li20  1  0.99688355  0.92663952  0.08895047  1
  Li  Li21  1  0.16065939  0.60181049  0.26327633  1
  Li  Li22  1  0.17490526  0.94977768  0.19071024  1
  Li  Li23  1  0.82621437  0.85897624  0.19519605  1
  Li  Li24  1  0.84089364  0.50479437  0.27186687  1
  Li  Li25  1  0.32519866  0.75571684  0.21874885  1
  Li  Li26  1  0.33617885  0.11607167  0.14611576  1
  Li  Li27  1  0.67484650  0.70729668  0.24430351  1
  Li  Li28  1  0.65608864  0.04234094  0.17214950  1
  Li  Li29  1  0.65622376  0.53161867  0.16485061  1
  Li  Li30  1  0.66741726  0.17596359  0.23794603  1
  Li  Li31  1  0.33307320  0.62660552  0.15793400  1
  Li  Li32  1  0.33131000  0.27005801  0.23164880  1
  Li  Li33  1  0.84152308  0.02411173  0.28002405  1
  Li  Li34  1  0.82569118  0.38449983  0.20847345  1
  Li  Li35  1  0.17217152  0.42621598  0.18409786  1
  Li  Li36  1  0.15736216  0.08599547  0.25591070  1
  Li  Li37  1  0.98938792  0.76422951  0.23426566  1
  Li  Li38  1  0.01282164  0.02959857  0.15374249  1
  Li  Li39  1  0.48703536  0.89720780  0.20460009  1
  Li  Li40  1  0.50717677  0.56104870  0.25829289  1
  Li  Li41  1  0.49153547  0.02672202  0.26639283  1
  Li  Li42  1  0.49138861  0.36921175  0.19572099  1
  Li  Li43  1  0.00391494  0.56993221  0.17037456  1
  Li  Li44  1  0.99061035  0.23642520  0.22030843  1
  Li  Li45  1  0.15411271  0.95764626  0.38985419  1
  Li  Li46  1  0.17517378  0.24962909  0.34059381  1
  Li  Li47  1  0.82339510  0.16075869  0.34457053  1
  Li  Li48  1  0.84708473  0.81778505  0.40998423  1
  Li  Li49  1  0.34547427  0.06655283  0.36363776  1
  Li  Li50  1  0.33359771  0.40956857  0.29173484  1
  Li  Li51  1  0.66261132  0.99391422  0.38902609  1
  Li  Li52  1  0.67141858  0.36179338  0.31623611  1
  Li  Li53  1  0.66908764  0.83634378  0.30469698  1
  Li  Li54  1  0.66473553  0.47894875  0.37841224  1
  Li  Li55  1  0.32492482  0.92825984  0.30002256  1
  Li  Li56  1  0.34562905  0.57179367  0.37221336  1
  Li  Li57  1  0.83453271  0.33907972  0.42705889  1
  Li  Li58  1  0.82872499  0.67860227  0.35137233  1
  Li  Li59  1  0.17365337  0.72143043  0.32694741  1
  Li  Li60  1  0.16536453  0.39239066  0.40145762  1
  Li  Li61  1  0.98571240  0.08066006  0.38223038  1
  Li  Li62  1  0.01119708  0.34538284  0.30191280  1
  Li  Li63  1  0.51174359  0.21233411  0.32868732  1
  Li  Li64  1  0.48858369  0.84303330  0.41906311  1
  Li  Li65  1  0.49606987  0.32156755  0.41105958  1
  Li  Li66  1  0.50785293  0.73126364  0.33993223  1
  Li  Li67  1  0.00766860  0.87336429  0.31643185  1
  Li  Li68  1  0.99667853  0.53742287  0.36659805  1
  Li  Li69  1  0.16487202  0.56791727  0.48352540  1
  Li  Li70  1  0.80519985  0.46709389  0.48924487  1
  Li  Li71  1  0.34660678  0.44022775  0.49306998  1
  Li  Li72  1  0.33000156  0.69415924  0.43358949  1
  Li  Li73  1  0.68578289  0.68022692  0.45444688  1
  Li  Li74  1  0.66868323  0.13980955  0.45458766  1
  Li  Li75  1  0.66581320  0.69237649  0.53325942  1
  Li  Li76  1  0.32557628  0.21965473  0.45163887  1
  Li  Li77  1  0.23283085  0.91312632  0.44547403  1
  Li  Li78  1  0.99360010  0.41314788  0.51674681  1
  Li  Li79  1  0.00128308  0.67233012  0.44811869  1
  Li  Li80  1  0.52585498  0.53016935  0.46680482  1
  Li  Li81  1  0.46849128  0.95540377  0.47673573  1
  Li  Li82  1  0.00316936  0.18032090  0.44809080  1
  Li  Li83  1  0.95603694  0.82659566  0.50169823  1
  P  P84  1  0.09843464  0.46955316  0.02674042  1
  P  P85  1  0.08749341  0.11813393  0.09819126  1
  P  P86  1  0.90782868  0.72301210  0.07440140  1
  P  P87  1  0.40552221  0.44272177  0.13886895  1
  P  P88  1  0.42006552  0.79409109  0.06237079  1
  P  P89  1  0.58174480  0.39928997  0.04081061  1
  P  P90  1  0.59468007  0.05974984  0.11098034  1
  P  P91  1  0.08489949  0.77195656  0.17060139  1
  P  P92  1  0.08796407  0.42068266  0.24268417  1
  P  P93  1  0.90641347  0.38264975  0.14890662  1
  P  P94  1  0.91237214  0.03336175  0.21859519  1
  P  P95  1  0.41107791  0.75186449  0.27783970  1
  P  P96  1  0.40966186  0.09847242  0.20782041  1
  P  P97  1  0.58704648  0.71126138  0.18588324  1
  P  P98  1  0.59076405  0.35861184  0.25736880  1
  P  P99  1  0.08575967  0.07562608  0.31732984  1
  P  P100  1  0.09457744  0.72568111  0.38674123  1
  P  P101  1  0.91438949  0.68622606  0.29289865  1
  P  P102  1  0.91321663  0.33720430  0.36502214  1
  P  P103  1  0.40472616  0.04792520  0.42497380  1
  P  P104  1  0.41265186  0.39665167  0.35047568  1
  P  P105  1  0.58829800  0.00803251  0.32762759  1
  P  P106  1  0.59540036  0.66486575  0.39707349  1
  P  P107  1  0.09156144  0.38445285  0.46185237  1
  P  P108  1  0.91221843  0.98998124  0.43755826  1
  P  P109  1  0.90314728  0.64036688  0.50916076  1
  P  P110  1  0.41738701  0.70718927  0.49480953  1
  P  P111  1  0.58206150  0.31383875  0.47368430  1
  S  S112  1  0.16679163  0.36299232  0.00677420  1
  S  S113  1  0.14616224  0.01513041  0.07535847  1
  S  S114  1  0.84699047  0.82733479  0.09713468  1
  S  S115  1  0.34265659  0.81445315  0.10039832  1
  S  S116  1  0.62764975  0.37310733  0.00275670  1
  S  S117  1  0.67009247  0.05153799  0.07321513  1
  S  S118  1  0.65131869  0.51085700  0.06138605  1
  S  S119  1  0.65845361  0.16350947  0.13446016  1
  S  S120  1  0.33860952  0.33112505  0.12103794  1
  S  S121  1  0.37464580  0.68184169  0.04094855  1
  S  S122  1  0.84542877  0.35709692  0.11005452  1
  S  S123  1  0.83604031  0.70209661  0.03588818  1
  S  S124  1  0.15788004  0.49750032  0.06630096  1
  S  S125  1  0.14989949  0.13175543  0.13814000  1
  S  S126  1  0.05673978  0.42314891  0.14196134  1
  S  S127  1  0.05698273  0.76199349  0.06456722  1
  S  S128  1  0.94993873  0.42602705  0.03404884  1
  S  S129  1  0.93361692  0.08190941  0.10508109  1
  S  S130  1  0.42760774  0.43237768  0.04310268  1
  S  S131  1  0.44498624  0.10053799  0.10253917  1
  S  S132  1  0.56887362  0.75963637  0.07597833  1
  S  S133  1  0.10571225  0.23998433  0.07944158  1
  S  S134  1  0.11728057  0.58165690  0.00258718  1
  S  S135  1  0.89466564  0.60884222  0.09774197  1
  S  S136  1  0.38179364  0.55248298  0.11409680  1
  S  S137  1  0.41376522  0.90685016  0.03973926  1
  S  S138  1  0.61031133  0.29460871  0.06997032  1
  S  S139  1  0.60810425  0.94377124  0.13301131  1
  S  S140  1  0.14851362  0.66475975  0.15017940  1
  S  S141  1  0.15443440  0.31513071  0.22138404  1
  S  S142  1  0.83922558  0.48977714  0.16942459  1
  S  S143  1  0.85263927  0.13775364  0.24116526  1
  S  S144  1  0.35038820  0.47213444  0.17806853  1
  S  S145  1  0.34345704  0.11373797  0.24678929  1
  S  S146  1  0.64814190  0.68746438  0.14702349  1
  S  S147  1  0.65396198  0.32884787  0.21887683  1
  S  S148  1  0.65172431  0.81777888  0.20716344  1
  S  S149  1  0.65444853  0.46797476  0.27697602  1
  S  S150  1  0.34483826  0.64724027  0.25632365  1
  S  S151  1  0.35192787  0.99640137  0.18361252  1
  S  S152  1  0.85208024  0.66209645  0.25400678  1
  S  S153  1  0.84533505  0.01507556  0.17910522  1
  S  S154  1  0.14867500  0.79942829  0.20931027  1
  S  S155  1  0.15081793  0.44513519  0.28142060  1
  S  S156  1  0.06374580  0.72763272  0.28481879  1
  S  S157  1  0.06251624  0.06896166  0.21044747  1
  S  S158  1  0.93443872  0.73489821  0.17902743  1
  S  S159  1  0.93823943  0.37994622  0.25066115  1
  S  S160  1  0.43688229  0.75144763  0.17759749  1
  S  S161  1  0.44004659  0.39556690  0.24880137  1
  S  S162  1  0.55850652  0.40677644  0.14471012  1
  S  S163  1  0.55970297  0.05780156  0.21640580  1
  S  S164  1  0.10125851  0.53445005  0.21887303  1
  S  S165  1  0.10451164  0.88299193  0.14552133  1
  S  S166  1  0.89002551  0.91810774  0.24099930  1
  S  S167  1  0.89176873  0.27328461  0.17488400  1
  S  S168  1  0.39271880  0.86722188  0.25426276  1
  S  S169  1  0.39599888  0.21452204  0.18549038  1
  S  S170  1  0.60335519  0.59842170  0.20997151  1
  S  S171  1  0.60853388  0.24704076  0.28201552  1
  S  S172  1  0.14411413  0.97108060  0.29444398  1
  S  S173  1  0.16204724  0.61816047  0.36663019  1
  S  S174  1  0.84651193  0.79094958  0.31426936  1
  S  S175  1  0.85050828  0.44417282  0.38577415  1
  S  S176  1  0.34686238  0.77554145  0.31650083  1
  S  S177  1  0.35063623  0.41568327  0.38961134  1
  S  S178  1  0.65654739  0.99117178  0.28884196  1
  S  S179  1  0.65103095  0.63480575  0.35794382  1
  S  S180  1  0.64541518  0.11164695  0.35121176  1
  S  S181  1  0.66118595  0.77696046  0.41491058  1
  S  S182  1  0.34128413  0.94459881  0.40122316  1
  S  S183  1  0.34748756  0.29257283  0.32796490  1
  S  S184  1  0.84917474  0.97693521  0.39765543  1
  S  S185  1  0.84860209  0.31150772  0.32629260  1
  S  S186  1  0.15405941  0.09305160  0.35664230  1
  S  S187  1  0.15543477  0.75218513  0.42557246  1
  S  S188  1  0.06582786  0.02626343  0.43073236  1
  S  S189  1  0.06442591  0.37306277  0.35683281  1
  S  S190  1  0.93555033  0.04026251  0.32562106  1
  S  S191  1  0.94382886  0.68636866  0.39359073  1
  S  S192  1  0.43816954  0.04711194  0.31865462  1
  S  S193  1  0.44224589  0.70001133  0.39097586  1
  S  S194  1  0.56107761  0.71366153  0.28567511  1
  S  S195  1  0.56271491  0.35449204  0.35844863  1
  S  S196  1  0.11030495  0.83451850  0.36052776  1
  S  S197  1  0.10792282  0.19066692  0.29486899  1
  S  S198  1  0.89307745  0.22591307  0.38996379  1
  S  S199  1  0.90200931  0.57211051  0.31643301  1
  S  S200  1  0.38994921  0.16443126  0.40327892  1
  S  S201  1  0.40178528  0.51078463  0.32737249  1
  S  S202  1  0.60258532  0.89260602  0.35028660  1
  S  S203  1  0.61933299  0.55551755  0.42197024  1
  S  S204  1  0.15247828  0.27872714  0.43970577  1
  S  S205  1  0.85317678  0.09210964  0.46067567  1
  S  S206  1  0.83434652  0.74596350  0.52945844  1
  S  S207  1  0.33017651  0.05484930  0.46289892  1
  S  S208  1  0.36847703  0.73355632  0.53252754  1
  S  S209  1  0.65822743  0.29354720  0.43547000  1
  S  S210  1  0.62832884  0.42638799  0.49477718  1
  S  S211  1  0.34840762  0.59588002  0.47396371  1
  S  S212  1  0.84290921  0.61300834  0.46964716  1
  S  S213  1  0.16313399  0.40650981  0.50033460  1
  S  S214  1  0.05135841  0.68447327  0.50166634  1
  S  S215  1  0.94210177  0.34578936  0.47174026  1
  S  S216  1  0.43277221  0.34801375  0.46031162  1
  S  S217  1  0.55479726  0.00745325  0.43307883  1
  S  S218  1  0.57136727  0.67305844  0.49306279  1
  S  S219  1  0.10430500  0.49761659  0.43818957  1
  S  S220  1  0.88422704  0.52786132  0.53316455  1
  S  S221  1  0.89418442  0.86772450  0.45628817  1
  S  S222  1  0.39138106  0.81210288  0.46549132  1
  S  S223  1  0.58891927  0.20103325  0.49625611  1
