# generated using pymatgen
data_Li3PS4
_symmetry_space_group_name_H-M   'P 1'
_cell_length_a   8.10679100
_cell_length_b   14.48087000
_cell_length_c   45.15849200
_cell_angle_alpha   90.00000000
_cell_angle_beta   90.00000000
_cell_angle_gamma   90.00000000
_symmetry_Int_Tables_number   1
_chemical_formula_structural   Li3PS4
_chemical_formula_sum   'Li48 P16 S64'
_cell_volume   5301.30830909
_cell_formula_units_Z   16
loop_
 _symmetry_equiv_pos_site_id
 _symmetry_equiv_pos_as_xyz
  1  'x, y, z'
loop_
 _atom_site_type_symbol
 _atom_site_label
 _atom_site_symmetry_multiplicity
 _atom_site_fract_x
 _atom_site_fract_y
 _atom_site_fract_z
 _atom_site_occupancy
  Li  Li0  1  0.96458801  0.71796416  0.07348319  1
  Li  Li1  1  0.03138600  0.02137459  0.08824879  1
  Li  Li2  1  0.02816783  0.48742730  0.12175479  1
  Li  Li3  1  0.01687338  0.40228658  0.04599067  1
  Li  Li4  1  0.74100234  0.26509611  0.09592491  1
  Li  Li5  1  0.46837815  0.48234941  0.12380138  1
  Li  Li6  1  0.44480111  0.01980069  0.10008516  1
  Li  Li7  1  0.51395691  0.71921304  0.07801782  1
  Li  Li8  1  0.45934842  0.40874955  0.04700613  1
  Li  Li9  1  0.54132738  0.93101133  0.04427086  1
  Li  Li10  1  0.95217437  0.53088315  0.20102902  1
  Li  Li11  1  0.02086398  0.83906872  0.21556353  1
  Li  Li12  1  0.03017239  0.30588356  0.24542454  1
  Li  Li13  1  0.96613237  0.06373304  0.17548166  1
  Li  Li14  1  0.53834692  0.06070103  0.18035201  1
  Li  Li15  1  0.46497982  0.29398109  0.24805252  1
  Li  Li16  1  0.45618794  0.83732398  0.22241198  1
  Li  Li17  1  0.52055126  0.52504361  0.20808297  1
  Li  Li18  1  0.05943898  0.78363168  0.13687364  1
  Li  Li19  1  0.03485034  0.26173665  0.15413220  1
  Li  Li20  1  0.45169750  0.25799004  0.15559551  1
  Li  Li21  1  0.54795668  0.76783694  0.15633038  1
  Li  Li22  1  0.95524049  0.34352732  0.32722234  1
  Li  Li23  1  0.02076863  0.65191229  0.34192642  1
  Li  Li24  1  0.03643265  0.11790555  0.36869758  1
  Li  Li25  1  0.96642153  0.88523953  0.30081516  1
  Li  Li26  1  0.53119949  0.87336256  0.30398845  1
  Li  Li27  1  0.46627559  0.11493975  0.37397487  1
  Li  Li28  1  0.45275814  0.64798525  0.34806074  1
  Li  Li29  1  0.52078301  0.34009609  0.33317099  1
  Li  Li30  1  0.04601402  0.59600538  0.26529478  1
  Li  Li31  1  0.93899124  0.10726233  0.26771311  1
  Li  Li32  1  0.44072468  0.07152069  0.28172453  1
  Li  Li33  1  0.54304934  0.58286565  0.28374563  1
  Li  Li34  1  0.94482825  0.15874459  0.44933872  1
  Li  Li35  1  0.01230572  0.46004916  0.47128548  1
  Li  Li36  1  0.24220088  0.91363825  0.45274018  1
  Li  Li37  1  0.96787910  0.69509169  0.42616061  1
  Li  Li38  1  0.52837828  0.69096498  0.42761252  1
  Li  Li39  1  0.52087658  0.77669886  0.50313920  1
  Li  Li40  1  0.46213635  0.45888673  0.47610188  1
  Li  Li41  1  0.53127631  0.15744401  0.46141020  1
  Li  Li42  1  0.04316964  0.40971781  0.39313744  1
  Li  Li43  1  0.95166035  0.92021494  0.39368647  1
  Li  Li44  1  0.53183739  0.91540149  0.39552562  1
  Li  Li45  1  0.55201011  0.39774358  0.41263871  1
  Li  Li46  1  0.04172547  0.24883297  0.50572177  1
  Li  Li47  1  0.96494332  0.77292721  0.50287296  1
  P  P48  1  0.23461833  0.82959875  0.05332316  1
  P  P49  1  0.74856378  0.91266368  0.11793342  1
  P  P50  1  0.74273921  0.46966872  0.07931357  1
  P  P51  1  0.24253974  0.26319028  0.09528593  1
  P  P52  1  0.24519995  0.64043792  0.18115145  1
  P  P53  1  0.74528939  0.72548640  0.24287409  1
  P  P54  1  0.74601262  0.28397436  0.20354773  1
  P  P55  1  0.23937640  0.08268084  0.22095829  1
  P  P56  1  0.24456725  0.45308480  0.30654240  1
  P  P57  1  0.74336863  0.53802361  0.36813656  1
  P  P58  1  0.73887816  0.09658151  0.32832923  1
  P  P59  1  0.24622512  0.89465962  0.34567726  1
  P  P60  1  0.24817800  0.26551171  0.43145364  1
  P  P61  1  0.73413273  0.34852730  0.49603355  1
  P  P62  1  0.74461483  0.91553461  0.45398146  1
  P  P63  1  0.24504011  0.70885803  0.47010015  1
  S  S64  1  0.44335615  0.78634378  0.03125053  1
  S  S65  1  0.52944559  0.54391404  0.07375546  1
  S  S66  1  0.45328920  0.18918553  0.10479301  1
  S  S67  1  0.03356918  0.18772378  0.10431885  1
  S  S68  1  0.95582514  0.54233726  0.07159024  1
  S  S69  1  0.02308252  0.80824668  0.03167784  1
  S  S70  1  0.74960539  0.77119084  0.11111700  1
  S  S71  1  0.26755858  0.97247871  0.06037478  1
  S  S72  1  0.73697130  0.35848046  0.05017600  1
  S  S73  1  0.23675919  0.75500940  0.09329239  1
  S  S74  1  0.73334160  0.99314794  0.08057998  1
  S  S75  1  0.74909555  0.41797794  0.12192272  1
  S  S76  1  0.24313875  0.30252240  0.05170679  1
  S  S77  1  0.46359671  0.60477658  0.16083112  1
  S  S78  1  0.54418897  0.93673427  0.14389807  1
  S  S79  1  0.52941095  0.35592112  0.19821041  1
  S  S80  1  0.44903061  0.00752388  0.22922480  1
  S  S81  1  0.02416402  0.00893612  0.22553489  1
  S  S82  1  0.95638594  0.36042875  0.19622402  1
  S  S83  1  0.96918600  0.94510261  0.13781494  1
  S  S84  1  0.03612763  0.61647763  0.15671946  1
  S  S85  1  0.75192059  0.58213964  0.23859268  1
  S  S86  1  0.25386673  0.78314595  0.18566044  1
  S  S87  1  0.24304174  0.36832654  0.12721341  1
  S  S88  1  0.74510367  0.18284509  0.17064955  1
  S  S89  1  0.23357826  0.56570445  0.21975181  1
  S  S90  1  0.73472212  0.79833765  0.20410681  1
  S  S91  1  0.75008645  0.23576851  0.24620413  1
  S  S92  1  0.24969752  0.13060094  0.17791080  1
  S  S93  1  0.46133489  0.41822375  0.28550226  1
  S  S94  1  0.53535043  0.75044966  0.26707067  1
  S  S95  1  0.52317175  0.16991640  0.32384352  1
  S  S96  1  0.45673022  0.81832551  0.35307345  1
  S  S97  1  0.02996305  0.82239548  0.35084892  1
  S  S98  1  0.94793637  0.17227938  0.32010406  1
  S  S99  1  0.96263135  0.76047067  0.26365869  1
  S  S100  1  0.03450112  0.42846525  0.28234088  1
  S  S101  1  0.75134247  0.39526964  0.36380249  1
  S  S102  1  0.25151887  0.59641042  0.31080422  1
  S  S103  1  0.23433813  0.18293225  0.25388145  1
  S  S104  1  0.73427348  0.99658385  0.29528494  1
  S  S105  1  0.23447002  0.38039833  0.34530989  1
  S  S106  1  0.73400684  0.61229062  0.32946753  1
  S  S107  1  0.74925597  0.04770097  0.37123261  1
  S  S108  1  0.25107725  0.94288472  0.30301048  1
  S  S109  1  0.46936121  0.23370049  0.41178285  1
  S  S110  1  0.53368429  0.56301876  0.39234525  1
  S  S111  1  0.53540332  0.99091599  0.44491920  1
  S  S112  1  0.45762786  0.63570334  0.47778483  1
  S  S113  1  0.03111051  0.63570524  0.47637648  1
  S  S114  1  0.95506959  0.98945544  0.44429643  1
  S  S115  1  0.96104137  0.57320538  0.38887454  1
  S  S116  1  0.04408249  0.24112734  0.40542040  1
  S  S117  1  0.76867947  0.20573746  0.48915361  1
  S  S118  1  0.24810545  0.40723170  0.43817911  1
  S  S119  1  0.24481303  0.99597257  0.37850211  1
  S  S120  1  0.74404509  0.80981778  0.42227208  1
  S  S121  1  0.23268537  0.18557228  0.46892470  1
  S  S122  1  0.73481898  0.42274907  0.45603682  1
  S  S123  1  0.74599861  0.87736050  0.49766018  1
  S  S124  1  0.24911191  0.75943285  0.42730384  1
  S  S125  1  0.52263894  0.36898861  0.51781102  1
  S  S126  1  0.94215951  0.39318319  0.51806042  1
  S  S127  1  0.24210186  0.82124556  0.49877522  1
