# generated using pymatgen
data_Li3PS4
_symmetry_space_group_name_H-M   'P 1'
_cell_length_a   6.25995100
_cell_length_b   20.81799400
_cell_length_c   50.84910000
_cell_angle_alpha   90.00000000
_cell_angle_beta   90.00000000
_cell_angle_gamma   90.00000000
_symmetry_Int_Tables_number   1
_chemical_formula_structural   Li3PS4
_chemical_formula_sum   'Li60 P20 S80'
_cell_volume   6626.63550926
_cell_formula_units_Z   20
loop_
 _symmetry_equiv_pos_site_id
 _symmetry_equiv_pos_as_xyz
  1  'x, y, z'
loop_
 _atom_site_type_symbol
 _atom_site_label
 _atom_site_symmetry_multiplicity
 _atom_site_fract_x
 _atom_site_fract_y
 _atom_site_fract_z
 _atom_site_occupancy
  Li  Li0  1  0.87656841  0.75166530  0.13202228  1
  Li  Li1  1  0.07948625  0.33353596  0.15789735  1
  Li  Li2  1  0.06350863  0.64454432  0.06322402  1
  Li  Li3  1  0.41174325  0.15426613  0.06741716  1
  Li  Li4  1  0.37461130  0.83381464  0.16205799  1
  Li  Li5  1  0.56964656  0.25242418  0.13219183  1
  Li  Li6  1  0.61178142  0.41689454  0.08015465  1
  Li  Li7  1  0.62496088  0.11571645  0.17701554  1
  Li  Li8  1  0.42278472  0.96361232  0.11811408  1
  Li  Li9  1  0.13292489  0.46339237  0.11479992  1
  Li  Li10  1  0.91956269  0.62058384  0.17718994  1
  Li  Li11  1  0.96373639  0.93625101  0.08409491  1
  Li  Li12  1  0.42913559  0.37029580  0.20044422  1
  Li  Li13  1  0.43534164  0.66805707  0.10328313  1
  Li  Li14  1  0.93426407  0.21546469  0.08819923  1
  Li  Li15  1  0.93092464  0.90940402  0.19335157  1
  Li  Li16  1  0.07249168  0.06376394  0.14005049  1
  Li  Li17  1  0.56628449  0.52613537  0.15422106  1
  Li  Li18  1  0.56571892  0.81079652  0.05992138  1
  Li  Li19  1  0.87352001  0.14251796  0.33336746  1
  Li  Li20  1  0.86922677  0.44571227  0.23247684  1
  Li  Li21  1  0.08095609  0.72675213  0.35960935  1
  Li  Li22  1  0.08390407  0.03072936  0.25939305  1
  Li  Li23  1  0.37035591  0.52840144  0.26187887  1
  Li  Li24  1  0.37113426  0.22593411  0.36265087  1
  Li  Li25  1  0.58169271  0.94478320  0.23562952  1
  Li  Li26  1  0.58297497  0.64040030  0.33544257  1
  Li  Li27  1  0.62601116  0.81035098  0.27771803  1
  Li  Li28  1  0.62287094  0.50547605  0.37793096  1
  Li  Li29  1  0.41701060  0.65808393  0.21710750  1
  Li  Li30  1  0.41395745  0.35426956  0.31821648  1
  Li  Li31  1  0.12917139  0.86113980  0.31794366  1
  Li  Li32  1  0.12394399  0.16543948  0.21745993  1
  Li  Li33  1  0.91880120  0.01339663  0.37827956  1
  Li  Li34  1  0.91112967  0.31662429  0.27701113  1
  Li  Li35  1  0.43043442  0.76188900  0.40199505  1
  Li  Li36  1  0.43460020  0.06819994  0.30123666  1
  Li  Li37  1  0.93464268  0.60283565  0.29419872  1
  Li  Li38  1  0.92865838  0.30069292  0.39503171  1
  Li  Li39  1  0.06297282  0.75015668  0.24107786  1
  Li  Li40  1  0.06330051  0.44545117  0.34157027  1
  Li  Li41  1  0.56826311  0.92110405  0.35457345  1
  Li  Li42  1  0.55709116  0.22515045  0.25343117  1
  Li  Li43  1  0.90628606  0.51724059  0.52770707  1
  Li  Li44  1  0.87531353  0.83742981  0.43370290  1
  Li  Li45  1  0.06777731  0.41907831  0.46309955  1
  Li  Li46  1  0.38108687  0.91963689  0.46345234  1
  Li  Li47  1  0.57530658  0.33742805  0.43774458  1
  Li  Li48  1  0.56376381  0.02610019  0.53254430  1
  Li  Li49  1  0.63642938  0.20655769  0.48067840  1
  Li  Li50  1  0.41896447  0.05065288  0.41822168  1
  Li  Li51  1  0.46324710  0.73481587  0.51134509  1
  Li  Li52  1  0.11546633  0.25413215  0.51455972  1
  Li  Li53  1  0.12205275  0.55586189  0.41818670  1
  Li  Li54  1  0.91980278  0.70728129  0.47732290  1
  Li  Li55  1  0.43202698  0.45573605  0.50721290  1
  Li  Li56  1  0.93765311  0.00308058  0.49213467  1
  Li  Li57  1  0.06637898  0.14609461  0.44075728  1
  Li  Li58  1  0.06804640  0.85981374  0.53559539  1
  Li  Li59  1  0.56904498  0.60782243  0.45499635  1
  P  P60  1  0.15846512  0.49996449  0.18967670  1
  P  P61  1  0.16992538  0.80515284  0.08774988  1
  P  P62  1  0.84044290  0.58241456  0.10427153  1
  P  P63  1  0.66459931  0.08378711  0.10498323  1
  P  P64  1  0.32282935  0.30612282  0.08562819  1
  P  P65  1  0.34139140  0.00056639  0.19013397  1
  P  P66  1  0.16102253  0.89274552  0.39129833  1
  P  P67  1  0.15628762  0.19665788  0.29045853  1
  P  P68  1  0.84271944  0.97447170  0.30511988  1
  P  P69  1  0.83691663  0.27827602  0.20401077  1
  P  P70  1  0.65992175  0.77867705  0.20418563  1
  P  P71  1  0.65655726  0.47461548  0.30472305  1
  P  P72  1  0.34041904  0.69692297  0.29006528  1
  P  P73  1  0.33595973  0.39276612  0.39128717  1
  P  P74  1  0.16212172  0.58753581  0.49026367  1
  P  P75  1  0.82203239  0.36502740  0.50965740  1
  P  P76  1  0.83907412  0.67074330  0.40509758  1
  P  P77  1  0.65861293  0.17111528  0.40565609  1
  P  P78  1  0.67173775  0.86561912  0.50810542  1
  P  P79  1  0.34222632  0.08823840  0.49116872  1
  S  S80  1  0.29433788  0.58761641  0.18120288  1
  S  S81  1  0.32142924  0.89137930  0.07964739  1
  S  S82  1  0.74439428  0.49087764  0.11382283  1
  S  S83  1  0.79232164  0.99667552  0.11699856  1
  S  S84  1  0.23626636  0.39914798  0.07736369  1
  S  S85  1  0.23890166  0.09227902  0.18179043  1
  S  S86  1  0.19327300  0.26958524  0.12020265  1
  S  S87  1  0.76128701  0.81931491  0.16926798  1
  S  S88  1  0.77570595  0.11444171  0.06956510  1
  S  S89  1  0.70008270  0.61867444  0.07114427  1
  S  S90  1  0.70224155  0.31713283  0.17083528  1
  S  S91  1  0.26609840  0.76483434  0.12265004  1
  S  S92  1  0.73663878  0.64081928  0.13514500  1
  S  S93  1  0.26847645  0.43889361  0.16028296  1
  S  S94  1  0.25174637  0.74531817  0.05713443  1
  S  S95  1  0.21851018  0.24774416  0.05602709  1
  S  S96  1  0.23141858  0.94317055  0.15938607  1
  S  S97  1  0.76339307  0.14775631  0.13375726  1
  S  S98  1  0.83337736  0.51058485  0.19224758  1
  S  S99  1  0.84779358  0.82431004  0.09136940  1
  S  S100  1  0.16647214  0.57821385  0.09903678  1
  S  S101  1  0.33769765  0.07303426  0.10161563  1
  S  S102  1  0.65223035  0.30635661  0.09052716  1
  S  S103  1  0.66590865  0.00468623  0.19476886  1
  S  S104  1  0.29519209  0.98014614  0.38264638  1
  S  S105  1  0.28835856  0.28450834  0.28192665  1
  S  S106  1  0.74176077  0.88267467  0.31379085  1
  S  S107  1  0.73735289  0.18659278  0.21312291  1
  S  S108  1  0.79403639  0.69117247  0.21267335  1
  S  S109  1  0.78978297  0.38684869  0.31322216  1
  S  S110  1  0.23950915  0.78882176  0.28160714  1
  S  S111  1  0.23579866  0.48431139  0.38211470  1
  S  S112  1  0.20736220  0.65790375  0.32337516  1
  S  S113  1  0.20596264  0.96097413  0.22320901  1
  S  S114  1  0.75969559  0.21119463  0.37081332  1
  S  S115  1  0.75795487  0.51482059  0.26986928  1
  S  S116  1  0.70882277  0.01351331  0.27185932  1
  S  S117  1  0.70461408  0.71023178  0.37195258  1
  S  S118  1  0.25845055  0.45984054  0.22457318  1
  S  S119  1  0.25908086  0.15669761  0.32532405  1
  S  S120  1  0.73049045  0.03136133  0.33588666  1
  S  S121  1  0.72501324  0.33527554  0.23481487  1
  S  S122  1  0.27119712  0.83144954  0.36196573  1
  S  S123  1  0.26990762  0.13555414  0.26111930  1
  S  S124  1  0.22757569  0.63997318  0.25938540  1
  S  S125  1  0.22575925  0.33567234  0.36041121  1
  S  S126  1  0.77023267  0.83977362  0.23356748  1
  S  S127  1  0.76925641  0.53555134  0.33414290  1
  S  S128  1  0.83585574  0.90264981  0.39382809  1
  S  S129  1  0.83095110  0.20549413  0.29259488  1
  S  S130  1  0.16797486  0.97124163  0.30076049  1
  S  S131  1  0.16226214  0.27475610  0.19956468  1
  S  S132  1  0.33467919  0.76874927  0.20178316  1
  S  S133  1  0.33117963  0.46519701  0.30256514  1
  S  S134  1  0.66584694  0.69993593  0.29420713  1
  S  S135  1  0.66084347  0.39622150  0.39595090  1
  S  S136  1  0.28937283  0.67491716  0.47851746  1
  S  S137  1  0.73857795  0.27173321  0.51795536  1
  S  S138  1  0.73631745  0.57907636  0.41346061  1
  S  S139  1  0.79434715  0.08350639  0.41421489  1
  S  S140  1  0.82187693  0.77922449  0.51626127  1
  S  S141  1  0.24713741  0.17966953  0.48126685  1
  S  S142  1  0.20079071  0.05252860  0.52431348  1
  S  S143  1  0.19976844  0.35413916  0.42444296  1
  S  S144  1  0.76949668  0.90589915  0.47321108  1
  S  S145  1  0.69140287  0.40155650  0.47514684  1
  S  S146  1  0.26269091  0.85222866  0.42623372  1
  S  S147  1  0.27179947  0.55666977  0.52570146  1
  S  S148  1  0.71722051  0.42323043  0.53929466  1
  S  S149  1  0.72902152  0.72811671  0.43586323  1
  S  S150  1  0.26202340  0.52396321  0.46142807  1
  S  S151  1  0.23934598  0.02971750  0.46035580  1
  S  S152  1  0.76733108  0.23221180  0.43511503  1
  S  S153  1  0.75336036  0.92538756  0.53873087  1
  S  S154  1  0.83484502  0.59807970  0.49342756  1
  S  S155  1  0.15145518  0.36518864  0.50459608  1
  S  S156  1  0.16374912  0.66658887  0.40054126  1
  S  S157  1  0.33360856  0.16040897  0.40287917  1
  S  S158  1  0.34969093  0.84681714  0.50417567  1
  S  S159  1  0.66799513  0.09238712  0.49667492  1
