# generated using pymatgen
data_Li3PS4
_symmetry_space_group_name_H-M   'P 1'
_cell_length_a   13.05789500
_cell_length_b   10.24241400
_cell_length_c   49.54702600
_cell_angle_alpha   90.00000000
_cell_angle_beta   90.00000000
_cell_angle_gamma   90.00000000
_symmetry_Int_Tables_number   1
_chemical_formula_structural   Li3PS4
_chemical_formula_sum   'Li60 P20 S80'
_cell_volume   6626.63560723
_cell_formula_units_Z   20
loop_
 _symmetry_equiv_pos_site_id
 _symmetry_equiv_pos_as_xyz
  1  'x, y, z'
loop_
 _atom_site_type_symbol
 _atom_site_label
 _atom_site_symmetry_multiplicity
 _atom_site_fract_x
 _atom_site_fract_y
 _atom_site_fract_z
 _atom_site_occupancy
  Li  Li0  1  0.15946056  0.78659250  0.05915879  1
  Li  Li1  1  0.84929365  0.67563891  0.07519202  1
  Li  Li2  1  0.67126981  0.83308165  0.05366212  1
  Li  Li3  1  0.66614046  0.17621357  0.07430822  1
  Li  Li4  1  0.30734526  0.28201289  0.06001444  1
  Li  Li5  1  0.84523063  0.31852611  0.05045735  1
  Li  Li6  1  0.48373875  0.75510641  0.08441260  1
  Li  Li7  1  0.49119233  0.32419061  0.02951070  1
  Li  Li8  1  0.02319454  0.23486573  0.08238259  1
  Li  Li9  1  0.16962531  0.42380042  0.16357384  1
  Li  Li10  1  0.83746181  0.30210292  0.17980123  1
  Li  Li11  1  0.33091175  0.54295542  0.10554649  1
  Li  Li12  1  0.67093935  0.53402521  0.13259890  1
  Li  Li13  1  0.67058947  0.80857818  0.17575725  1
  Li  Li14  1  0.33763744  0.92537379  0.16073551  1
  Li  Li15  1  0.82499875  0.04905502  0.13082676  1
  Li  Li16  1  0.17301176  0.05086525  0.10659856  1
  Li  Li17  1  0.01189004  0.51770608  0.12015217  1
  Li  Li18  1  0.49368260  0.37480644  0.18168626  1
  Li  Li19  1  0.50432392  0.10737334  0.11867403  1
  Li  Li20  1  0.98732014  0.85576954  0.15638946  1
  Li  Li21  1  0.17069331  0.05091177  0.26427210  1
  Li  Li22  1  0.83119057  0.92881473  0.27634527  1
  Li  Li23  1  0.32476407  0.19659952  0.20637745  1
  Li  Li24  1  0.66911150  0.15833671  0.23406352  1
  Li  Li25  1  0.66600958  0.42789179  0.27825427  1
  Li  Li26  1  0.33349418  0.55272147  0.26267377  1
  Li  Li27  1  0.83365387  0.66952208  0.23243817  1
  Li  Li28  1  0.16422261  0.70849418  0.20455110  1
  Li  Li29  1  0.00816085  0.12442913  0.22080124  1
  Li  Li30  1  0.50641916  0.98877731  0.26313316  1
  Li  Li31  1  0.50844771  0.70841124  0.21869067  1
  Li  Li32  1  0.99500182  0.48748699  0.26341093  1
  Li  Li33  1  0.16470712  0.67512276  0.36190444  1
  Li  Li34  1  0.83118438  0.55886532  0.37674206  1
  Li  Li35  1  0.33587309  0.83322588  0.30553407  1
  Li  Li36  1  0.67283616  0.79200700  0.33337527  1
  Li  Li37  1  0.66322943  0.05614098  0.37943496  1
  Li  Li38  1  0.32856435  0.17298823  0.36585612  1
  Li  Li39  1  0.83884496  0.27640029  0.33562644  1
  Li  Li40  1  0.16325568  0.31875962  0.30767376  1
  Li  Li41  1  0.99456483  0.85070304  0.32025870  1
  Li  Li42  1  0.50602563  0.60901511  0.35892305  1
  Li  Li43  1  0.49031931  0.25709001  0.32217871  1
  Li  Li44  1  0.01285654  0.12667133  0.38395331  1
  Li  Li45  1  0.15039756  0.30548250  0.46473220  1
  Li  Li46  1  0.83983523  0.19585800  0.48199400  1
  Li  Li47  1  0.33134070  0.44531388  0.40799387  1
  Li  Li48  1  0.66964646  0.43825011  0.43463517  1
  Li  Li49  1  0.69077241  0.69952268  0.48032184  1
  Li  Li50  1  0.33350833  0.80431251  0.46564014  1
  Li  Li51  1  0.82644101  0.93234664  0.43394867  1
  Li  Li52  1  0.17396491  0.93207767  0.40953785  1
  Li  Li53  1  0.98750263  0.46092719  0.42079147  1
  Li  Li54  1  0.51622280  0.22497680  0.45619330  1
  Li  Li55  1  0.49573408  0.87566747  0.42217605  1
  Li  Li56  1  0.97556342  0.74801690  0.45838884  1
  Li  Li57  1  0.32779100  0.14980865  0.48711590  1
  Li  Li58  1  0.15602795  0.65979593  0.49007561  1
  Li  Li59  1  0.50953972  0.65835426  0.51098326  1
  P  P60  1  0.08620399  0.51121796  0.05849196  1
  P  P61  1  0.91148739  0.95395317  0.07651507  1
  P  P62  1  0.40640795  0.01807979  0.06079291  1
  P  P63  1  0.59055501  0.45328498  0.07564962  1
  P  P64  1  0.08777869  0.14520911  0.16038798  1
  P  P65  1  0.91166836  0.57984985  0.17888416  1
  P  P66  1  0.41077344  0.64457824  0.16039159  1
  P  P67  1  0.58696778  0.08300502  0.17963105  1
  P  P68  1  0.08884665  0.77890097  0.26078832  1
  P  P69  1  0.91142380  0.20254953  0.27898825  1
  P  P70  1  0.40995833  0.27333754  0.26058536  1
  P  P71  1  0.59029685  0.70961566  0.27924691  1
  P  P72  1  0.08935022  0.40172685  0.36224651  1
  P  P73  1  0.91164640  0.83683439  0.38007873  1
  P  P74  1  0.41193223  0.90090556  0.36133697  1
  P  P75  1  0.58973881  0.33711220  0.37981108  1
  P  P76  1  0.08768739  0.02757127  0.46404062  1
  P  P77  1  0.91240960  0.47080748  0.48242673  1
  P  P78  1  0.41025059  0.52826092  0.46479994  1
  P  P79  1  0.59317295  0.96434259  0.48006351  1
  S  S80  1  0.13480874  0.32754087  0.04857964  1
  S  S81  1  0.84626201  0.13801210  0.08479360  1
  S  S82  1  0.34336294  0.11712500  0.09350519  1
  S  S83  1  0.66167836  0.36685362  0.04259817  1
  S  S84  1  0.65337271  0.63410816  0.08539300  1
  S  S85  1  0.35009646  0.83711779  0.05442942  1
  S  S86  1  0.84717422  0.86425390  0.04402965  1
  S  S87  1  0.15879964  0.59524697  0.09180781  1
  S  S88  1  0.06217896  0.99354100  0.06866902  1
  S  S89  1  0.93837461  0.47312840  0.07525095  1
  S  S90  1  0.44024694  0.48434600  0.06446703  1
  S  S91  1  0.55853939  0.98720300  0.07409068  1
  S  S92  1  0.08430871  0.63535265  0.02778429  1
  S  S93  1  0.39208787  0.13219503  0.02733110  1
  S  S94  1  0.15387554  0.96731093  0.15197693  1
  S  S95  1  0.84958441  0.76075015  0.18656253  1
  S  S96  1  0.34798094  0.74041791  0.19287746  1
  S  S97  1  0.64886053  0.99767274  0.14588282  1
  S  S98  1  0.65405364  0.25783788  0.18989362  1
  S  S99  1  0.35154661  0.46246090  0.15294102  1
  S  S100  1  0.84744907  0.48227175  0.14680266  1
  S  S101  1  0.14595324  0.23604910  0.19398137  1
  S  S102  1  0.06143104  0.62025740  0.16656731  1
  S  S103  1  0.93648902  0.10226266  0.16987136  1
  S  S104  1  0.43735256  0.12796013  0.16872405  1
  S  S105  1  0.56320952  0.61058065  0.17117890  1
  S  S106  1  0.11025277  0.26767777  0.12801977  1
  S  S107  1  0.88427172  0.84238405  0.11051513  1
  S  S108  1  0.38745014  0.75826639  0.12702489  1
  S  S109  1  0.61045629  0.33687206  0.10871287  1
  S  S110  1  0.15430238  0.60409739  0.24981840  1
  S  S111  1  0.84764342  0.37896917  0.28907344  1
  S  S112  1  0.34628494  0.36135931  0.29373418  1
  S  S113  1  0.65476299  0.61827649  0.24642489  1
  S  S114  1  0.65249035  0.88861001  0.28836476  1
  S  S115  1  0.34587461  0.09611483  0.25045983  1
  S  S116  1  0.84686085  0.11415202  0.24557941  1
  S  S117  1  0.15370911  0.86474607  0.29430251  1
  S  S118  1  0.06132615  0.24587779  0.26763159  1
  S  S119  1  0.93925097  0.73398470  0.27180452  1
  S  S120  1  0.44009706  0.75140194  0.26739501  1
  S  S121  1  0.55997148  0.22929212  0.27186422  1
  S  S122  1  0.10391299  0.90343214  0.22861493  1
  S  S123  1  0.89873114  0.46506666  0.21245748  1
  S  S124  1  0.39543012  0.39669198  0.22817116  1
  S  S125  1  0.60281762  0.95664308  0.21173533  1
  S  S126  1  0.15083434  0.22117382  0.35372015  1
  S  S127  1  0.84688996  0.01529073  0.38859097  1
  S  S128  1  0.35064070  0.98244007  0.39561270  1
  S  S129  1  0.65392302  0.24192777  0.34732861  1
  S  S130  1  0.64891958  0.51921941  0.38730295  1
  S  S131  1  0.34559534  0.72710625  0.34995300  1
  S  S132  1  0.85145156  0.74805823  0.34641330  1
  S  S133  1  0.15385192  0.49512419  0.39488341  1
  S  S134  1  0.06326045  0.87735530  0.37038312  1
  S  S135  1  0.93895877  0.36110166  0.37443804  1
  S  S136  1  0.43751668  0.37091779  0.36891131  1
  S  S137  1  0.56202795  0.85496179  0.37183186  1
  S  S138  1  0.09985791  0.51768335  0.32910393  1
  S  S139  1  0.89716630  0.07938399  0.31129516  1
  S  S140  1  0.39596228  0.02883447  0.32971331  1
  S  S141  1  0.60469873  0.58879388  0.31188106  1
  S  S142  1  0.15265127  0.84327716  0.45585159  1
  S  S143  1  0.86318056  0.65450652  0.49197764  1
  S  S144  1  0.33911925  0.61521675  0.49777828  1
  S  S145  1  0.65629678  0.86627683  0.44722957  1
  S  S146  1  0.64885997  0.14564548  0.48638991  1
  S  S147  1  0.34730019  0.34729704  0.45521490  1
  S  S148  1  0.84036529  0.38532885  0.44915677  1
  S  S149  1  0.15147180  0.11852760  0.49643413  1
  S  S150  1  0.06021598  0.50779401  0.46561220  1
  S  S151  1  0.93688901  0.98854220  0.47190092  1
  S  S152  1  0.44069488  0.99415362  0.46694939  1
  S  S153  1  0.56045511  0.49786896  0.47600416  1
  S  S154  1  0.11501257  0.13857573  0.42993894  1
  S  S155  1  0.88934553  0.71429561  0.41239021  1
  S  S156  1  0.39043884  0.64395598  0.43162803  1
  S  S157  1  0.61231712  0.22303422  0.41317834  1
  S  S158  1  0.91405056  0.34788141  0.51334378  1
  S  S159  1  0.60865141  0.84993786  0.51341724  1
