# generated using pymatgen
data_Li3PS4
_symmetry_space_group_name_H-M   'P 1'
_cell_length_a   8.10679100
_cell_length_b   13.05789500
_cell_length_c   43.81965800
_cell_angle_alpha   90.00000000
_cell_angle_beta   90.00000000
_cell_angle_gamma   90.00000000
_symmetry_Int_Tables_number   1
_chemical_formula_structural   Li3PS4
_chemical_formula_sum   'Li36 P12 S48'
_cell_volume   4638.64495333
_cell_formula_units_Z   12
loop_
 _symmetry_equiv_pos_site_id
 _symmetry_equiv_pos_as_xyz
  1  'x, y, z'
loop_
 _atom_site_type_symbol
 _atom_site_label
 _atom_site_symmetry_multiplicity
 _atom_site_fract_x
 _atom_site_fract_y
 _atom_site_fract_z
 _atom_site_occupancy
  Li  Li0  1  0.96601172  0.82209777  0.11755676  1
  Li  Li1  1  0.03824820  0.17467956  0.08381892  1
  Li  Li2  1  0.08108223  0.64943969  0.05439085  1
  Li  Li3  1  0.40968109  0.64389438  0.05010203  1
  Li  Li4  1  0.46861958  0.19663670  0.08874155  1
  Li  Li5  1  0.52452375  0.81519081  0.12005925  1
  Li  Li6  1  0.03753607  0.47601633  0.11853961  1
  Li  Li7  1  0.48849661  0.47841518  0.11493175  1
  Li  Li8  1  0.54701747  0.99754358  0.05594550  1
  Li  Li9  1  0.96320776  0.84158132  0.26357774  1
  Li  Li10  1  0.03281279  0.15605996  0.23708715  1
  Li  Li11  1  0.03522684  0.66977854  0.19339940  1
  Li  Li12  1  0.96352104  0.31452735  0.16596246  1
  Li  Li13  1  0.53859759  0.32341272  0.16783943  1
  Li  Li14  1  0.47457270  0.66045584  0.19817368  1
  Li  Li15  1  0.46371946  0.15903943  0.23633636  1
  Li  Li16  1  0.53274345  0.84392734  0.26293120  1
  Li  Li17  1  0.02433689  0.99133155  0.16961990  1
  Li  Li18  1  0.95639391  0.50535889  0.24210440  1
  Li  Li19  1  0.45670221  0.49474199  0.25788006  1
  Li  Li20  1  0.46893241  0.99128146  0.16913109  1
  Li  Li21  1  0.96868097  0.80294133  0.41123718  1
  Li  Li22  1  0.02447279  0.18471250  0.37997362  1
  Li  Li23  1  0.03857565  0.67659170  0.33213570  1
  Li  Li24  1  0.97455514  0.33931221  0.30167798  1
  Li  Li25  1  0.53526092  0.33010756  0.30659783  1
  Li  Li26  1  0.46367159  0.68528262  0.33406535  1
  Li  Li27  1  0.46603163  0.17809101  0.38254814  1
  Li  Li28  1  0.53834366  0.82576557  0.41627058  1
  Li  Li29  1  0.96874048  0.00862552  0.33086938  1
  Li  Li30  1  0.98850132  0.52124541  0.38501605  1
  Li  Li31  1  0.53745589  0.52388081  0.38146877  1
  Li  Li32  1  0.52248146  0.00956444  0.33054295  1
  Li  Li33  1  0.90960278  0.35602885  0.44992502  1
  Li  Li34  1  0.58054519  0.35128781  0.44586653  1
  Li  Li35  1  0.04706066  0.00232385  0.44402741  1
  P  P36  1  0.24702102  0.90146864  0.08034233  1
  P  P37  1  0.74727210  0.08803007  0.12469575  1
  P  P38  1  0.24982422  0.44844671  0.06163318  1
  P  P39  1  0.24788598  0.91111466  0.22489472  1
  P  P40  1  0.74759929  0.08877636  0.27509476  1
  P  P41  1  0.75305276  0.58171733  0.15910518  1
  P  P42  1  0.24599735  0.40203980  0.20273497  1
  P  P43  1  0.24737769  0.91189469  0.37534058  1
  P  P44  1  0.74697752  0.09855679  0.41971196  1
  P  P45  1  0.74606711  0.59803485  0.29724738  1
  P  P46  1  0.25267167  0.41798551  0.34075286  1
  P  P47  1  0.75000420  0.55150037  0.43835427  1
  S  S48  1  0.46124222  0.82740736  0.06483072  1
  S  S49  1  0.53733609  0.64313476  0.14350668  1
  S  S50  1  0.46884829  0.37191729  0.06728567  1
  S  S51  1  0.04448688  0.36461927  0.07210726  1
  S  S52  1  0.95904893  0.64677594  0.14031086  1
  S  S53  1  0.03769271  0.83549588  0.06339581  1
  S  S54  1  0.26724117  0.05124744  0.06502938  1
  S  S55  1  0.25696254  0.57192608  0.09234623  1
  S  S56  1  0.75340915  0.42990485  0.14348539  1
  S  S57  1  0.24693916  0.88859402  0.12758780  1
  S  S58  1  0.74574397  0.11040840  0.07812621  1
  S  S59  1  0.23383428  0.52690407  0.02093250  1
  S  S60  1  0.46042449  0.84734523  0.20755784  1
  S  S61  1  0.53756961  0.15385432  0.14257323  1
  S  S62  1  0.53196039  0.66259295  0.28070146  1
  S  S63  1  0.45850321  0.34215956  0.22082361  1
  S  S64  1  0.03200092  0.33754530  0.21932979  1
  S  S65  1  0.95834422  0.65813758  0.27913334  1
  S  S66  1  0.96583112  0.14890290  0.13996240  1
  S  S67  1  0.03260710  0.84923240  0.20808708  1
  S  S68  1  0.74483652  0.93660203  0.13966263  1
  S  S69  1  0.24867432  0.06123842  0.20805637  1
  S  S70  1  0.24149518  0.55379460  0.21739536  1
  S  S71  1  0.74150079  0.44626750  0.28256305  1
  S  S72  1  0.24830461  0.90168577  0.27112337  1
  S  S73  1  0.74832573  0.09826022  0.22885780  1
  S  S74  1  0.75822678  0.59741470  0.20555193  1
  S  S75  1  0.25012188  0.38088001  0.15622837  1
  S  S76  1  0.46594183  0.85117738  0.36006907  1
  S  S77  1  0.53218579  0.15081865  0.29181692  1
  S  S78  1  0.54479562  0.63545155  0.42786805  1
  S  S79  1  0.45858892  0.35311551  0.35963679  1
  S  S80  1  0.03701045  0.35635132  0.35628230  1
  S  S81  1  0.96927595  0.62777054  0.43267075  1
  S  S82  1  0.96014560  0.15250448  0.29245577  1
  S  S83  1  0.03770538  0.84611408  0.35744901  1
  S  S84  1  0.74821551  0.93876546  0.29197592  1
  S  S85  1  0.24490198  0.06339125  0.36040275  1
  S  S86  1  0.25307603  0.56982525  0.35639668  1
  S  S87  1  0.75689942  0.42783662  0.40768944  1
  S  S88  1  0.24567924  0.88943624  0.42190361  1
  S  S89  1  0.74677622  0.11140093  0.37246418  1
  S  S90  1  0.75035525  0.61899768  0.34378018  1
  S  S91  1  0.25840641  0.40236421  0.29430182  1
  S  S92  1  0.53796606  0.16474094  0.43670671  1
  S  S93  1  0.96141686  0.17248750  0.43518492  1
  S  S94  1  0.76720249  0.94875132  0.43500239  1
  S  S95  1  0.73422799  0.47334085  0.47913109  1
