# generated using pymatgen
data_Li3PS4
_symmetry_space_group_name_H-M   'P 1'
_cell_length_a   8.10679100
_cell_length_b   14.48087000
_cell_length_c   45.15849200
_cell_angle_alpha   90.00000000
_cell_angle_beta   90.00000000
_cell_angle_gamma   90.00000000
_symmetry_Int_Tables_number   1
_chemical_formula_structural   Li3PS4
_chemical_formula_sum   'Li48 P16 S64'
_cell_volume   5301.30830909
_cell_formula_units_Z   16
loop_
 _symmetry_equiv_pos_site_id
 _symmetry_equiv_pos_as_xyz
  1  'x, y, z'
loop_
 _atom_site_type_symbol
 _atom_site_label
 _atom_site_symmetry_multiplicity
 _atom_site_fract_x
 _atom_site_fract_y
 _atom_site_fract_z
 _atom_site_occupancy
  Li  Li0  1  0.96005639  0.74939118  0.05352397  1
  Li  Li1  1  0.03068226  0.05253771  0.06754462  1
  Li  Li2  1  0.02800482  0.51802507  0.10089329  1
  Li  Li3  1  0.01781034  0.43150341  0.02531592  1
  Li  Li4  1  0.74061519  0.29450628  0.07494266  1
  Li  Li5  1  0.46786046  0.51399851  0.10314500  1
  Li  Li6  1  0.44423286  0.05127463  0.08020819  1
  Li  Li7  1  0.51083011  0.74821522  0.05837270  1
  Li  Li8  1  0.46037872  0.43936024  0.02589111  1
  Li  Li9  1  0.54107635  0.95967920  0.02420537  1
  Li  Li10  1  0.95197636  0.56242339  0.18066186  1
  Li  Li11  1  0.02192790  0.86933173  0.19638792  1
  Li  Li12  1  0.03090399  0.33608443  0.22517661  1
  Li  Li13  1  0.96628707  0.09415256  0.15504172  1
  Li  Li14  1  0.53782103  0.09396178  0.16043487  1
  Li  Li15  1  0.46472423  0.32574025  0.22758545  1
  Li  Li16  1  0.45620385  0.86582852  0.20192781  1
  Li  Li17  1  0.52094162  0.55789506  0.18823679  1
  Li  Li18  1  0.05284665  0.81241415  0.11693764  1
  Li  Li19  1  0.02499745  0.29579044  0.13309602  1
  Li  Li20  1  0.44985983  0.29059389  0.13556557  1
  Li  Li21  1  0.54225677  0.79956751  0.13636036  1
  Li  Li22  1  0.95794572  0.37189204  0.30699310  1
  Li  Li23  1  0.02213898  0.68361095  0.32139839  1
  Li  Li24  1  0.03726413  0.14737595  0.34895492  1
  Li  Li25  1  0.96522164  0.91571221  0.28109036  1
  Li  Li26  1  0.53051063  0.90186635  0.28374843  1
  Li  Li27  1  0.46560066  0.14437679  0.35385078  1
  Li  Li28  1  0.45480220  0.67710078  0.32833079  1
  Li  Li29  1  0.52373049  0.36974867  0.31296020  1
  Li  Li30  1  0.04747419  0.62642478  0.24522087  1
  Li  Li31  1  0.93832492  0.13719139  0.24725317  1
  Li  Li32  1  0.44078374  0.10144368  0.26164293  1
  Li  Li33  1  0.54865166  0.61288252  0.26416596  1
  Li  Li34  1  0.94347855  0.18909302  0.42905670  1
  Li  Li35  1  0.01456809  0.48802447  0.45175396  1
  Li  Li36  1  0.24033952  0.94269159  0.43352957  1
  Li  Li37  1  0.96874498  0.72411166  0.40596541  1
  Li  Li38  1  0.53069780  0.72000394  0.40858580  1
  Li  Li39  1  0.51648589  0.80833399  0.48345265  1
  Li  Li40  1  0.46359539  0.48827817  0.45584661  1
  Li  Li41  1  0.53096701  0.18567418  0.44133643  1
  Li  Li42  1  0.04666196  0.44038306  0.37266829  1
  Li  Li43  1  0.95171181  0.94872285  0.37390080  1
  Li  Li44  1  0.53241356  0.94556158  0.37540031  1
  Li  Li45  1  0.55968445  0.42508998  0.39234768  1
  Li  Li46  1  0.04135434  0.27750573  0.48486213  1
  Li  Li47  1  0.95983790  0.79839881  0.48227312  1
  P  P48  1  0.23339616  0.85961911  0.03351227  1
  P  P49  1  0.74750930  0.94400780  0.09787027  1
  P  P50  1  0.74336912  0.50007894  0.05855165  1
  P  P51  1  0.24286445  0.29422278  0.07504273  1
  P  P52  1  0.24515647  0.67032344  0.16092748  1
  P  P53  1  0.74577751  0.75590776  0.22278179  1
  P  P54  1  0.74661275  0.31567458  0.18333352  1
  P  P55  1  0.23892064  0.11299096  0.20072622  1
  P  P56  1  0.24677701  0.48357861  0.28637390  1
  P  P57  1  0.74676467  0.56838658  0.34814593  1
  P  P58  1  0.73907265  0.12655444  0.30828223  1
  P  P59  1  0.24669076  0.92446020  0.32576841  1
  P  P60  1  0.24841064  0.29558352  0.41120242  1
  P  P61  1  0.73378061  0.37763214  0.47617070  1
  P  P62  1  0.74385543  0.94454936  0.43413314  1
  P  P63  1  0.24426297  0.73727967  0.45040971  1
  S  S64  1  0.44188244  0.81538552  0.01154666  1
  S  S65  1  0.54449245  0.96862431  0.12411944  1
  S  S66  1  0.52963342  0.57399525  0.05294094  1
  S  S67  1  0.45315825  0.22036956  0.08484225  1
  S  S68  1  0.03338088  0.21880627  0.08389216  1
  S  S69  1  0.95618259  0.57284709  0.05075996  1
  S  S70  1  0.96946565  0.97574568  0.11727195  1
  S  S71  1  0.02213517  0.83912573  0.01168925  1
  S  S72  1  0.74658391  0.80225006  0.09122744  1
  S  S73  1  0.26811567  0.00242708  0.04042508  1
  S  S74  1  0.24202738  0.39970229  0.10681895  1
  S  S75  1  0.73759997  0.38886903  0.02939508  1
  S  S76  1  0.23360316  0.78522427  0.07347772  1
  S  S77  1  0.73142237  0.02429085  0.06046548  1
  S  S78  1  0.74886676  0.44845219  0.10118872  1
  S  S79  1  0.24473433  0.33277167  0.03138728  1
  S  S80  1  0.46398895  0.63534230  0.14065638  1
  S  S81  1  0.53448964  0.78000130  0.24671269  1
  S  S82  1  0.53054659  0.38817397  0.17798103  1
  S  S83  1  0.44813136  0.03728004  0.20890046  1
  S  S84  1  0.02342867  0.03924840  0.20523683  1
  S  S85  1  0.95683298  0.39210837  0.17609732  1
  S  S86  1  0.96187179  0.79070070  0.24402386  1
  S  S87  1  0.03666450  0.64572971  0.13633374  1
  S  S88  1  0.75377583  0.61265674  0.21851455  1
  S  S89  1  0.25212063  0.81303450  0.16554072  1
  S  S90  1  0.23453500  0.21300552  0.23377388  1
  S  S91  1  0.74539346  0.21457442  0.15040884  1
  S  S92  1  0.23329428  0.59584165  0.19955205  1
  S  S93  1  0.73624576  0.82875751  0.18402475  1
  S  S94  1  0.75012409  0.26694208  0.22592502  1
  S  S95  1  0.24864834  0.16224759  0.15789580  1
  S  S96  1  0.46365043  0.44894783  0.26529316  1
  S  S97  1  0.53846738  0.59272193  0.37276838  1
  S  S98  1  0.52392231  0.20031855  0.30377532  1
  S  S99  1  0.45664853  0.84764820  0.33306329  1
  S  S100  1  0.02973845  0.85268560  0.33086922  1
  S  S101  1  0.94902997  0.20127939  0.29996755  1
  S  S102  1  0.96551846  0.60362413  0.36840749  1
  S  S103  1  0.03642132  0.45865629  0.26226437  1
  S  S104  1  0.75442799  0.42570789  0.34353873  1
  S  S105  1  0.25371177  0.62685980  0.29072971  1
  S  S106  1  0.24541856  0.02519918  0.35880069  1
  S  S107  1  0.73343596  0.02620371  0.27532719  1
  S  S108  1  0.23732000  0.41044773  0.32507910  1
  S  S109  1  0.73523277  0.64316354  0.30956577  1
  S  S110  1  0.74954278  0.07793048  0.35124391  1
  S  S111  1  0.25102613  0.97328296  0.28317960  1
  S  S112  1  0.46944789  0.26317158  0.39153267  1
  S  S113  1  0.52171118  0.39836250  0.49774632  1
  S  S114  1  0.53394789  0.01938808  0.42510797  1
  S  S115  1  0.45748653  0.66541652  0.45864040  1
  S  S116  1  0.03102736  0.66278947  0.45596203  1
  S  S117  1  0.95363161  0.01903744  0.42448002  1
  S  S118  1  0.94178828  0.42093759  0.49844169  1
  S  S119  1  0.04415629  0.27184897  0.38514284  1
  S  S120  1  0.76756020  0.23494389  0.46899862  1
  S  S121  1  0.24895828  0.43701489  0.41818878  1
  S  S122  1  0.23644941  0.84924379  0.47927567  1
  S  S123  1  0.74435810  0.83901754  0.40234579  1
  S  S124  1  0.23208278  0.21470948  0.44847551  1
  S  S125  1  0.73631276  0.45241592  0.43624744  1
  S  S126  1  0.74524732  0.90590805  0.47776730  1
  S  S127  1  0.25043947  0.78834526  0.40771801  1
