# generated using pymatgen
data_Li3PS4
_symmetry_space_group_name_H-M   'P 1'
_cell_length_a   10.24241400
_cell_length_b   18.09023381
_cell_length_c   43.41558100
_cell_angle_alpha   90.00000000
_cell_angle_beta   90.00000000
_cell_angle_gamma   64.97678698
_symmetry_Int_Tables_number   1
_chemical_formula_structural   Li3PS4
_chemical_formula_sum   'Li72 P24 S96'
_cell_volume   7289.29864782
_cell_formula_units_Z   24
loop_
 _symmetry_equiv_pos_site_id
 _symmetry_equiv_pos_as_xyz
  1  'x, y, z'
loop_
 _atom_site_type_symbol
 _atom_site_label
 _atom_site_symmetry_multiplicity
 _atom_site_fract_x
 _atom_site_fract_y
 _atom_site_fract_z
 _atom_site_occupancy
  Li  Li0  1  0.84945375  0.78739580  0.03845634  1
  Li  Li1  1  0.81499090  0.98922377  0.07645582  1
  Li  Li2  1  0.04152468  0.57673038  0.08064395  1
  Li  Li3  1  0.71679091  0.24694482  0.08138469  1
  Li  Li4  1  0.45736320  0.29510220  0.02640298  1
  Li  Li5  1  0.37403669  0.10961853  0.03742970  1
  Li  Li6  1  0.30988786  0.66334829  0.08406083  1
  Li  Li7  1  0.85098638  0.39005630  0.05752376  1
  Li  Li8  1  0.37271695  0.46421639  0.02331863  1
  Li  Li9  1  0.33458753  0.86982421  0.05771844  1
  Li  Li10  1  0.63347474  0.58313765  0.12607083  1
  Li  Li11  1  0.57969350  0.81401946  0.17462657  1
  Li  Li12  1  0.65976793  0.36763101  0.14669606  1
  Li  Li13  1  0.55565703  0.01956184  0.15224410  1
  Li  Li14  1  0.23410871  0.10047296  0.11094551  1
  Li  Li15  1  0.22386922  0.42456066  0.11345523  1
  Li  Li16  1  0.14741208  0.91796320  0.11960424  1
  Li  Li17  1  0.05668403  0.48151453  0.18004826  1
  Li  Li18  1  0.68258372  0.79247060  0.10422359  1
  Li  Li19  1  0.63670631  0.16837254  0.15891278  1
  Li  Li20  1  0.15726417  0.28111810  0.10189954  1
  Li  Li21  1  0.08286589  0.71801690  0.13540734  1
  Li  Li22  1  0.40081776  0.39261241  0.21572684  1
  Li  Li23  1  0.34084755  0.63277127  0.26624552  1
  Li  Li24  1  0.40231844  0.18343761  0.23879959  1
  Li  Li25  1  0.33250460  0.83692182  0.24245662  1
  Li  Li26  1  0.99750975  0.92668519  0.20281641  1
  Li  Li27  1  0.97272068  0.29837681  0.18579428  1
  Li  Li28  1  0.91650544  0.73487800  0.21204401  1
  Li  Li29  1  0.82523402  0.28964892  0.27045169  1
  Li  Li30  1  0.44123471  0.60808638  0.19623395  1
  Li  Li31  1  0.39512079  0.98853186  0.25004718  1
  Li  Li32  1  0.03669304  0.11350222  0.19628001  1
  Li  Li33  1  0.88127215  0.50399269  0.25086219  1
  Li  Li34  1  0.16303741  0.21376972  0.30675818  1
  Li  Li35  1  0.10325656  0.45447632  0.35352002  1
  Li  Li36  1  0.16593504  0.00732493  0.33189982  1
  Li  Li37  1  0.09996100  0.66185380  0.33593234  1
  Li  Li38  1  0.76105113  0.73908885  0.29581117  1
  Li  Li39  1  0.73912172  0.10808037  0.27814061  1
  Li  Li40  1  0.65773528  0.55406390  0.30630816  1
  Li  Li41  1  0.58264658  0.10585525  0.36246231  1
  Li  Li42  1  0.30811108  0.41889846  0.28459823  1
  Li  Li43  1  0.10975109  0.85419080  0.32555541  1
  Li  Li44  1  0.77122556  0.92655549  0.28691752  1
  Li  Li45  1  0.65359623  0.31413173  0.34281222  1
  Li  Li46  1  0.92296052  0.03266755  0.39936223  1
  Li  Li47  1  0.87162783  0.26527676  0.44622617  1
  Li  Li48  1  0.94339250  0.82666571  0.42170411  1
  Li  Li49  1  0.84360899  0.47984825  0.42614331  1
  Li  Li50  1  0.52830343  0.54700215  0.38919930  1
  Li  Li51  1  0.50376811  0.91811179  0.37045732  1
  Li  Li52  1  0.43382123  0.36865337  0.39645997  1
  Li  Li53  1  0.35523975  0.92996280  0.45395075  1
  Li  Li54  1  0.06830817  0.23956554  0.37691923  1
  Li  Li55  1  0.86434819  0.67766341  0.41487309  1
  Li  Li56  1  0.46371701  0.73241062  0.37723199  1
  Li  Li57  1  0.41889082  0.12834531  0.43882569  1
  Li  Li58  1  0.68749877  0.85657990  0.49751205  1
  Li  Li59  1  0.65446190  0.05761973  0.53577558  1
  Li  Li60  1  0.77866096  0.60049835  0.49281116  1
  Li  Li61  1  0.46768852  0.26750744  0.49369036  1
  Li  Li62  1  0.27051503  0.41883601  0.46401681  1
  Li  Li63  1  0.26665581  0.74664139  0.46261436  1
  Li  Li64  1  0.19191582  0.18490661  0.48939833  1
  Li  Li65  1  0.12894640  0.73678479  0.53733991  1
  Li  Li66  1  0.82464395  0.05382707  0.46975425  1
  Li  Li67  1  0.64961080  0.45570003  0.51695114  1
  Li  Li68  1  0.34101058  0.56548532  0.47256674  1
  Li  Li69  1  0.16686781  0.97797124  0.51602474  1
  Li  Li70  1  0.04542456  0.54954931  0.54769915  1
  Li  Li71  1  0.13256870  0.38003547  0.54975128  1
  P  P72  1  0.11539893  0.79823179  0.04713841  1
  P  P73  1  0.55634860  0.95252188  0.06547503  1
  P  P74  1  0.52528387  0.42427941  0.08340816  1
  P  P75  1  0.15525262  0.34441649  0.03510700  1
  P  P76  1  0.87487023  0.62480383  0.14201240  1
  P  P77  1  0.33660256  0.77074946  0.15735121  1
  P  P78  1  0.29126883  0.23682755  0.17343439  1
  P  P79  1  0.92538989  0.15206907  0.12694315  1
  P  P80  1  0.63804788  0.44012995  0.23355120  1
  P  P81  1  0.10372850  0.58648724  0.25021407  1
  P  P82  1  0.05812555  0.05150961  0.26637966  1
  P  P83  1  0.68187390  0.97315205  0.21659472  1
  P  P84  1  0.40330849  0.25677840  0.32492476  1
  P  P85  1  0.85972059  0.40561383  0.34063346  1
  P  P86  1  0.82024679  0.87217437  0.35746744  1
  P  P87  1  0.44102325  0.79290056  0.30715315  1
  P  P88  1  0.16555148  0.07679029  0.41632933  1
  P  P89  1  0.62708225  0.22124677  0.43142090  1
  P  P90  1  0.57454877  0.69554179  0.44690210  1
  P  P91  1  0.20903682  0.60894036  0.40100418  1
  P  P92  1  0.94676636  0.89379104  0.50850216  1
  P  P93  1  0.38573080  0.05026925  0.52678299  1
  P  P94  1  0.34831015  0.50034959  0.53990117  1
  P  P95  1  0.97250074  0.42436504  0.49002394  1
  S  S96  1  0.33432345  0.74023467  0.04304109  1
  S  S97  1  0.33372885  0.01064383  0.06806535  1
  S  S98  1  0.34030865  0.52435161  0.07228654  1
  S  S99  1  0.32344030  0.24469226  0.05613810  1
  S  S100  1  0.00659819  0.31396362  0.01662615  1
  S  S101  1  0.00911708  0.81313468  0.00746760  1
  S  S102  1  0.59827087  0.83675374  0.04996429  1
  S  S103  1  0.07088348  0.91140198  0.06757642  1
  S  S104  1  0.05767670  0.42403975  0.07228362  1
  S  S105  1  0.61496810  0.36028775  0.04274410  1
  S  S106  1  0.04373642  0.72890742  0.07737275  1
  S  S107  1  0.62666673  0.01749997  0.03702083  1
  S  S108  1  0.24704557  0.39138267  0.00281044  1
  S  S109  1  0.09792306  0.56649647  0.13824050  1
  S  S110  1  0.11590751  0.83172814  0.16035470  1
  S  S111  1  0.13198368  0.34273670  0.15460690  1
  S  S112  1  0.09718226  0.05313066  0.14440551  1
  S  S113  1  0.76821067  0.12200478  0.10913635  1
  S  S114  1  0.68510517  0.45011234  0.10215117  1
  S  S115  1  0.66314089  0.93603623  0.10720044  1
  S  S116  1  0.78311741  0.63976314  0.09906389  1
  S  S117  1  0.37510465  0.65663785  0.13941249  1
  S  S118  1  0.83358699  0.74103271  0.15826887  1
  S  S119  1  0.82991847  0.22835363  0.16457169  1
  S  S120  1  0.38503292  0.16072783  0.13669224  1
  S  S121  1  0.80171033  0.56003573  0.16957201  1
  S  S122  1  0.41123863  0.83830682  0.13094852  1
  S  S123  1  0.48604748  0.34829902  0.11313099  1
  S  S124  1  0.98825976  0.20813904  0.09266958  1
  S  S125  1  0.85926444  0.37999135  0.23152905  1
  S  S126  1  0.88311541  0.64437987  0.25260017  1
  S  S127  1  0.89539667  0.15226009  0.24750183  1
  S  S128  1  0.85276685  0.87332409  0.23428670  1
  S  S129  1  0.51944943  0.94878440  0.19833832  1
  S  S130  1  0.45172658  0.25672426  0.19518327  1
  S  S131  1  0.44136530  0.74658199  0.19916937  1
  S  S132  1  0.53864302  0.45865718  0.19113762  1
  S  S133  1  0.14850601  0.47001862  0.23345715  1
  S  S134  1  0.59409632  0.55520754  0.25096216  1
  S  S135  1  0.58763880  0.04735134  0.25479871  1
  S  S136  1  0.15941206  0.97754309  0.22909280  1
  S  S137  1  0.56648307  0.37042543  0.25987313  1
  S  S138  1  0.17511468  0.65388811  0.22290001  1
  S  S139  1  0.19709602  0.19336622  0.20617628  1
  S  S140  1  0.75988169  0.02366466  0.18336911  1
  S  S141  1  0.62425917  0.19395768  0.32332058  1
  S  S142  1  0.63910269  0.45836069  0.34479999  1
  S  S143  1  0.65087973  0.97049636  0.33887269  1
  S  S144  1  0.60393820  0.69229326  0.32621545  1
  S  S145  1  0.28170752  0.76955466  0.28641524  1
  S  S146  1  0.21557783  0.07521062  0.28796486  1
  S  S147  1  0.20658305  0.56727701  0.29232072  1
  S  S148  1  0.30367458  0.27962159  0.28268165  1
  S  S149  1  0.91065401  0.28821214  0.32432249  1
  S  S150  1  0.36420081  0.37185008  0.34225516  1
  S  S151  1  0.34137148  0.86752315  0.34465866  1
  S  S152  1  0.91732107  0.79713534  0.31970865  1
  S  S153  1  0.32637443  0.19032958  0.35137812  1
  S  S154  1  0.92227306  0.47621885  0.31289461  1
  S  S155  1  0.97000493  0.00199023  0.29861215  1
  S  S156  1  0.52904894  0.84173930  0.27513283  1
  S  S157  1  0.38614882  0.01535862  0.41295551  1
  S  S158  1  0.40509373  0.27860487  0.43643930  1
  S  S159  1  0.40339277  0.79451065  0.42931768  1
  S  S160  1  0.36759475  0.50413373  0.42057691  1
  S  S161  1  0.04998339  0.58783573  0.37922846  1
  S  S162  1  0.98107630  0.89765126  0.37617563  1
  S  S163  1  0.96788686  0.39005068  0.38194069  1
  S  S164  1  0.05942076  0.10106299  0.37479617  1
  S  S165  1  0.66979387  0.10512020  0.41547045  1
  S  S166  1  0.12883147  0.19095486  0.43406631  1
  S  S167  1  0.11431683  0.68608802  0.43746713  1
  S  S168  1  0.66981771  0.61904321  0.40933629  1
  S  S169  1  0.09163675  0.00952734  0.44316237  1
  S  S170  1  0.69515436  0.28961163  0.40379441  1
  S  S171  1  0.74090200  0.82234900  0.39070904  1
  S  S172  1  0.30447396  0.65170245  0.36830256  1
  S  S173  1  0.16920611  0.83541922  0.50599996  1
  S  S174  1  0.16661228  0.10840094  0.53048926  1
  S  S175  1  0.18109195  0.60092261  0.51896241  1
  S  S176  1  0.16125324  0.32470128  0.49985045  1
  S  S177  1  0.81375362  0.39796424  0.47122869  1
  S  S178  1  0.73211181  0.72499675  0.46486473  1
  S  S179  1  0.72380674  0.20741046  0.47368105  1
  S  S180  1  0.83938554  0.91077094  0.46686776  1
  S  S181  1  0.43104696  0.93715348  0.50621151  1
  S  S182  1  0.90505002  0.00967301  0.52410010  1
  S  S183  1  0.88570757  0.48531534  0.53128177  1
  S  S184  1  0.44499603  0.42146521  0.50244460  1
  S  S185  1  0.87569884  0.82930825  0.53702344  1
  S  S186  1  0.45848391  0.11949399  0.49665992  1
  S  S187  1  0.51060690  0.63958811  0.48109847  1
  S  S188  1  0.01063830  0.50179076  0.46096330  1
  S  S189  1  0.49778907  0.52930212  0.55880244  1
  S  S190  1  0.49036094  0.03573287  0.56664320  1
  S  S191  1  0.25451890  0.45298787  0.57159792  1
