# generated using pymatgen
data_Li3PS4
_symmetry_space_group_name_H-M   'P 1'
_cell_length_a   6.25995100
_cell_length_b   15.36973200
_cell_length_c   48.21185800
_cell_angle_alpha   90.00000000
_cell_angle_beta   90.00000000
_cell_angle_gamma   90.00000000
_symmetry_Int_Tables_number   1
_chemical_formula_structural   Li3PS4
_chemical_formula_sum   'Li42 P14 S56'
_cell_volume   4638.64457847
_cell_formula_units_Z   14
loop_
 _symmetry_equiv_pos_site_id
 _symmetry_equiv_pos_as_xyz
  1  'x, y, z'
loop_
 _atom_site_type_symbol
 _atom_site_label
 _atom_site_symmetry_multiplicity
 _atom_site_fract_x
 _atom_site_fract_y
 _atom_site_fract_z
 _atom_site_occupancy
  Li  Li0  1  0.12880310  0.66178978  0.08886961  1
  Li  Li1  1  0.61387627  0.37889862  0.00930307  1
  Li  Li2  1  0.59532767  0.51273001  0.07402541  1
  Li  Li3  1  0.58237312  0.40000185  0.13549778  1
  Li  Li4  1  0.39357478  0.13802699  0.10097158  1
  Li  Li5  1  0.97168922  0.62230050  0.02403249  1
  Li  Li6  1  0.04518600  0.14961070  0.05644329  1
  Li  Li7  1  0.53335598  0.78339670  0.11323596  1
  Li  Li8  1  0.09904016  0.38266062  0.04672574  1
  Li  Li9  1  0.93786829  0.26090176  0.12627764  1
  Li  Li10  1  0.55081219  0.91239089  0.06107569  1
  Li  Li11  1  0.90493453  0.88186291  0.14588978  1
  Li  Li12  1  0.12675815  0.37950815  0.23434767  1
  Li  Li13  1  0.41494292  0.01857411  0.16002058  1
  Li  Li14  1  0.62772012  0.23971102  0.21742831  1
  Li  Li15  1  0.57988565  0.12472435  0.28022153  1
  Li  Li16  1  0.37019303  0.86327216  0.24165200  1
  Li  Li17  1  0.07853251  0.49696102  0.16993720  1
  Li  Li18  1  0.86905970  0.75605076  0.20815061  1
  Li  Li19  1  0.56550255  0.50942440  0.25465699  1
  Li  Li20  1  0.06616512  0.11037040  0.19607844  1
  Li  Li21  1  0.93095604  0.97979694  0.27020650  1
  Li  Li22  1  0.43059143  0.63847596  0.18065469  1
  Li  Li23  1  0.91653090  0.60104953  0.29085292  1
  Li  Li24  1  0.13401543  0.09553989  0.38035447  1
  Li  Li25  1  0.41538914  0.73843958  0.30247382  1
  Li  Li26  1  0.62707447  0.96050089  0.36055932  1
  Li  Li27  1  0.58734306  0.84018067  0.42316045  1
  Li  Li28  1  0.37122377  0.58529903  0.38585602  1
  Li  Li29  1  0.08454876  0.21644595  0.31592107  1
  Li  Li30  1  0.87957634  0.47458830  0.35336530  1
  Li  Li31  1  0.57676041  0.23053662  0.39913420  1
  Li  Li32  1  0.06758246  0.82828317  0.33996933  1
  Li  Li33  1  0.92683422  0.69709567  0.41293603  1
  Li  Li34  1  0.43661296  0.36049631  0.32547607  1
  Li  Li35  1  0.90971993  0.32763701  0.43635724  1
  Li  Li36  1  0.42550498  0.46510903  0.44906337  1
  Li  Li37  1  0.38868550  0.60070538  0.51310839  1
  Li  Li38  1  0.04601008  0.91100934  0.45434758  1
  Li  Li39  1  0.03856791  0.36090512  0.50378057  1
  Li  Li40  1  0.89490843  0.60313351  0.48051385  1
  Li  Li41  1  0.44363956  0.09836617  0.46106140  1
  P  P42  1  0.15106844  0.90878678  0.09174586  1
  P  P43  1  0.83389924  0.63608576  0.13920614  1
  P  P44  1  0.66382383  0.26783108  0.07097858  1
  P  P45  1  0.35864465  0.53737678  0.01856429  1
  P  P46  1  0.15581814  0.62418480  0.23722145  1
  P  P47  1  0.84155369  0.35615321  0.28509156  1
  P  P48  1  0.65691420  0.99444866  0.21297846  1
  P  P49  1  0.34155271  0.26409195  0.16750771  1
  P  P50  1  0.16311515  0.34234307  0.38354287  1
  P  P51  1  0.83712051  0.07580940  0.43080090  1
  P  P52  1  0.65700558  0.71441277  0.35548847  1
  P  P53  1  0.33829664  0.98454959  0.31060299  1
  P  P54  1  0.64711039  0.44181031  0.50655956  1
  P  P55  1  0.32902009  0.70402930  0.45193307  1
  S  S56  1  0.26779332  0.01636918  0.07052352  1
  S  S57  1  0.77271053  0.16058664  0.09246153  1
  S  S58  1  0.28373651  0.64607572  0.99817158  1
  S  S59  1  0.21310031  0.53642187  0.05836663  1
  S  S60  1  0.81307654  0.26420175  0.03279675  1
  S  S61  1  0.73072076  0.64831007  0.09882540  1
  S  S62  1  0.27797996  0.89837440  0.13123547  1
  S  S63  1  0.27058701  0.80362450  0.06987105  1
  S  S64  1  0.25799759  0.42310524  0.00076887  1
  S  S65  1  0.77168441  0.37778723  0.09165756  1
  S  S66  1  0.82583559  0.91327323  0.09661410  1
  S  S67  1  0.16003516  0.62339875  0.13856326  1
  S  S68  1  0.33682199  0.26358342  0.06937989  1
  S  S69  1  0.68521704  0.52224806  0.02570483  1
  S  S70  1  0.25571778  0.73227809  0.21553674  1
  S  S71  1  0.70255550  0.53314592  0.16032794  1
  S  S72  1  0.75760588  0.88642769  0.23459720  1
  S  S73  1  0.20738486  0.36622556  0.14622699  1
  S  S74  1  0.24028154  0.25036402  0.20792053  1
  S  S75  1  0.79075050  0.00842561  0.17430386  1
  S  S76  1  0.73978399  0.36889741  0.24465594  1
  S  S77  1  0.29098573  0.61070780  0.27583790  1
  S  S78  1  0.71996679  0.74596393  0.16006242  1
  S  S79  1  0.26719584  0.51774132  0.21474755  1
  S  S80  1  0.22896209  0.15346064  0.14719815  1
  S  S81  1  0.76969877  0.10063411  0.23551700  1
  S  S82  1  0.83052479  0.63305286  0.24120057  1
  S  S83  1  0.16677794  0.34117460  0.28425919  1
  S  S84  1  0.33147157  0.98567739  0.20916330  1
  S  S85  1  0.66659474  0.27878469  0.16810809  1
  S  S86  1  0.26648194  0.44919044  0.36158761  1
  S  S87  1  0.70762449  0.25357856  0.30624684  1
  S  S88  1  0.75873400  0.60691206  0.37724662  1
  S  S89  1  0.20283726  0.08742702  0.28987478  1
  S  S90  1  0.23898039  0.96958655  0.35111307  1
  S  S91  1  0.79236964  0.72936488  0.31695236  1
  S  S92  1  0.74570721  0.08757693  0.38991599  1
  S  S93  1  0.29515976  0.32967058  0.42242796  1
  S  S94  1  0.73110464  0.46663603  0.30554876  1
  S  S95  1  0.27186161  0.23486045  0.36130558  1
  S  S96  1  0.22742359  0.87472562  0.28980235  1
  S  S97  1  0.76767790  0.82111985  0.37798160  1
  S  S98  1  0.83712763  0.35340710  0.38688647  1
  S  S99  1  0.16023588  0.04839002  0.43078997  1
  S  S100  1  0.33236581  0.70377246  0.35130812  1
  S  S101  1  0.66338997  0.00012573  0.31139184  1
  S  S102  1  0.68690607  0.97420444  0.45120466  1
  S  S103  1  0.71788422  0.33199370  0.52679983  1
  S  S104  1  0.21604337  0.80389820  0.42698783  1
  S  S105  1  0.18956760  0.71267447  0.49007956  1
  S  S106  1  0.80437754  0.44613745  0.46758004  1
  S  S107  1  0.74865839  0.18682840  0.45155753  1
  S  S108  1  0.22225641  0.59194900  0.43222526  1
  S  S109  1  0.73825461  0.55525069  0.52556874  1
  S  S110  1  0.32482492  0.45534082  0.49702950  1
  S  S111  1  0.65596998  0.71672155  0.45450943  1
