# generated using pymatgen
data_Li3PS4
_symmetry_space_group_name_H-M   'P 1'
_cell_length_a   8.10679100
_cell_length_b   13.05789500
_cell_length_c   43.81965800
_cell_angle_alpha   90.00000000
_cell_angle_beta   90.00000000
_cell_angle_gamma   90.00000000
_symmetry_Int_Tables_number   1
_chemical_formula_structural   Li3PS4
_chemical_formula_sum   'Li42 P14 S56'
_cell_volume   4638.64495333
_cell_formula_units_Z   14
loop_
 _symmetry_equiv_pos_site_id
 _symmetry_equiv_pos_as_xyz
  1  'x, y, z'
loop_
 _atom_site_type_symbol
 _atom_site_label
 _atom_site_symmetry_multiplicity
 _atom_site_fract_x
 _atom_site_fract_y
 _atom_site_fract_z
 _atom_site_occupancy
  Li  Li0  1  0.04745028  0.14907265  0.11918426  1
  Li  Li1  1  0.03577976  0.66724422  0.07326309  1
  Li  Li2  1  0.90349146  0.39678434  0.06545484  1
  Li  Li3  1  0.47625596  0.42945612  0.03794612  1
  Li  Li4  1  0.48931809  0.64551537  0.08441464  1
  Li  Li5  1  0.46527483  0.18450853  0.12149201  1
  Li  Li6  1  0.67717876  0.75922055  0.01276578  1
  Li  Li7  1  0.98888504  0.50456793  0.13340645  1
  Li  Li8  1  0.46018908  0.48487024  0.14260496  1
  Li  Li9  1  0.55822066  0.00139166  0.08832501  1
  Li  Li10  1  0.96724577  0.83724158  0.14797796  1
  Li  Li11  1  0.03701219  0.17405082  0.26393153  1
  Li  Li12  1  0.03446333  0.66887109  0.21894341  1
  Li  Li13  1  0.98448855  0.33097946  0.18637980  1
  Li  Li14  1  0.54948141  0.33125891  0.19701233  1
  Li  Li15  1  0.46806116  0.66614345  0.22453532  1
  Li  Li16  1  0.46816002  0.15939655  0.26279603  1
  Li  Li17  1  0.52856554  0.82169716  0.14856808  1
  Li  Li18  1  0.94749138  0.00835560  0.21495894  1
  Li  Li19  1  0.94279568  0.50378020  0.26811155  1
  Li  Li20  1  0.44343736  0.49624756  0.28759167  1
  Li  Li21  1  0.44201418  0.98994525  0.19634032  1
  Li  Li22  1  0.96689791  0.82704701  0.29151371  1
  Li  Li23  1  0.02190142  0.17002178  0.40310411  1
  Li  Li24  1  0.04562372  0.66706092  0.36134985  1
  Li  Li25  1  0.96810366  0.33963941  0.33261619  1
  Li  Li26  1  0.53481722  0.32604886  0.33549085  1
  Li  Li27  1  0.47564722  0.67353493  0.36613697  1
  Li  Li28  1  0.46192927  0.17404567  0.41200564  1
  Li  Li29  1  0.53444413  0.84077687  0.29342187  1
  Li  Li30  1  0.05434974  0.99206613  0.34055736  1
  Li  Li31  1  0.97074248  0.51493141  0.41506948  1
  Li  Li32  1  0.53681740  0.50471875  0.41423642  1
  Li  Li33  1  0.55744074  0.01450363  0.35983775  1
  Li  Li34  1  0.96097719  0.82184115  0.43176990  1
  Li  Li35  1  0.19156824  0.23797835  0.54799336  1
  Li  Li36  1  0.95514913  0.54554320  0.53014758  1
  Li  Li37  1  0.98958055  0.35183407  0.47345273  1
  Li  Li38  1  0.53826530  0.33585976  0.48373225  1
  Li  Li39  1  0.40085718  0.59660559  0.49080470  1
  Li  Li40  1  0.54583828  0.84632438  0.43922176  1
  Li  Li41  1  0.05819227  0.00101718  0.46664793  1
  P  P42  1  0.25455409  0.90661021  0.11002091  1
  P  P43  1  0.74599034  0.57282380  0.03657617  1
  P  P44  1  0.24005973  0.40698636  0.08825990  1
  P  P45  1  0.24455313  0.91139155  0.25479631  1
  P  P46  1  0.74465339  0.08916367  0.15791546  1
  P  P47  1  0.74702835  0.58842689  0.18423504  1
  P  P48  1  0.25019037  0.41034539  0.22937908  1
  P  P49  1  0.25686283  0.91204519  0.39786280  1
  P  P50  1  0.75913674  0.08873263  0.30078676  1
  P  P51  1  0.74910437  0.58886373  0.32640262  1
  P  P52  1  0.25197727  0.41264889  0.37136484  1
  P  P53  1  0.74900483  0.09553116  0.44584678  1
  P  P54  1  0.74692642  0.59597163  0.46764115  1
  P  P55  1  0.24526375  0.42260458  0.52106601  1
  S  S56  1  0.46790160  0.83401725  0.09396750  1
  S  S57  1  0.50905243  0.62861875  0.02874279  1
  S  S58  1  0.47034321  0.35264207  0.09827672  1
  S  S59  1  0.04943621  0.33611294  0.11159084  1
  S  S60  1  0.91925346  0.67077095  0.01885863  1
  S  S61  1  0.04142756  0.84755267  0.09343076  1
  S  S62  1  0.27865045  0.05756544  0.09506475  1
  S  S63  1  0.24190397  0.55828492  0.10476353  1
  S  S64  1  0.75394059  0.42830610  0.01921186  1
  S  S65  1  0.75062031  0.11217027  0.11134704  1
  S  S66  1  0.77715976  0.57124210  0.08380039  1
  S  S67  1  0.18789986  0.40021741  0.04334638  1
  S  S68  1  0.45876568  0.85031617  0.23785151  1
  S  S69  1  0.53433997  0.15659148  0.17497280  1
  S  S70  1  0.52756653  0.64899864  0.16913697  1
  S  S71  1  0.45407281  0.34671498  0.24970786  1
  S  S72  1  0.02929823  0.34556693  0.24230850  1
  S  S73  1  0.95331740  0.65561885  0.16572125  1
  S  S74  1  0.96099551  0.14565348  0.17491706  1
  S  S75  1  0.03220928  0.84557031  0.23782803  1
  S  S76  1  0.73682155  0.93744617  0.17190894  1
  S  S77  1  0.24080881  0.06154774  0.23884281  1
  S  S78  1  0.24149212  0.56046591  0.24533971  1
  S  S79  1  0.74829031  0.43813981  0.16841730  1
  S  S80  1  0.25239212  0.89302122  0.15692526  1
  S  S81  1  0.75575034  0.10477164  0.25426463  1
  S  S82  1  0.75338079  0.60491788  0.23074430  1
  S  S83  1  0.26649076  0.39424245  0.18295591  1
  S  S84  1  0.47653628  0.85197623  0.38311603  1
  S  S85  1  0.54324536  0.14812963  0.31771910  1
  S  S86  1  0.53598686  0.65829612  0.31130493  1
  S  S87  1  0.46141439  0.34560409  0.38882364  1
  S  S88  1  0.03525767  0.35149849  0.38747944  1
  S  S89  1  0.96142714  0.64784840  0.30802965  1
  S  S90  1  0.96971710  0.15643414  0.31775572  1
  S  S91  1  0.05039918  0.84767676  0.37858836  1
  S  S92  1  0.76395447  0.93881909  0.31684605  1
  S  S93  1  0.25662523  0.06385262  0.38385630  1
  S  S94  1  0.25371162  0.56281854  0.38722164  1
  S  S95  1  0.73909889  0.43916308  0.31031936  1
  S  S96  1  0.24684117  0.89546937  0.30130743  1
  S  S97  1  0.73889764  0.11113669  0.39896261  1
  S  S98  1  0.75740383  0.60463238  0.37312566  1
  S  S99  1  0.25476230  0.39573749  0.32483441  1
  S  S100  1  0.54178633  0.15392107  0.46512774  1
  S  S101  1  0.54703657  0.66040301  0.44538558  1
  S  S102  1  0.42572802  0.32985112  0.53892412  1
  S  S103  1  0.01201173  0.35904606  0.52995320  1
  S  S104  1  0.96921593  0.65411825  0.45457402  1
  S  S105  1  0.96770923  0.16748140  0.45900830  1
  S  S106  1  0.77780485  0.94430887  0.46019457  1
  S  S107  1  0.24532188  0.56767868  0.53799620  1
  S  S108  1  0.74948200  0.44286489  0.45232900  1
  S  S109  1  0.24968907  0.88861314  0.44429001  1
  S  S110  1  0.69635126  0.60567778  0.51279810  1
  S  S111  1  0.27532319  0.42521808  0.47418243  1
