# generated using pymatgen
data_Li3PS4
_symmetry_space_group_name_H-M   'P 1'
_cell_length_a   6.25995100
_cell_length_b   8.10679100
_cell_length_c   52.23157800
_cell_angle_alpha   90.00000000
_cell_angle_beta   90.00000000
_cell_angle_gamma   90.00000000
_symmetry_Int_Tables_number   1
_chemical_formula_structural   Li3PS4
_chemical_formula_sum   'Li18 P6 S24'
_cell_volume   2650.65409706
_cell_formula_units_Z   6
loop_
 _symmetry_equiv_pos_site_id
 _symmetry_equiv_pos_as_xyz
  1  'x, y, z'
loop_
 _atom_site_type_symbol
 _atom_site_label
 _atom_site_symmetry_multiplicity
 _atom_site_fract_x
 _atom_site_fract_y
 _atom_site_fract_z
 _atom_site_occupancy
  Li  Li0  1  0.10744822  0.96792195  0.16771136  1
  Li  Li1  1  0.60894426  0.03677433  0.12618942  1
  Li  Li2  1  0.41157128  0.97596838  0.04868815  1
  Li  Li3  1  0.41503566  0.52387676  0.04914476  1
  Li  Li4  1  0.60860271  0.46386732  0.12622312  1
  Li  Li5  1  0.10764363  0.53206327  0.16775250  1
  Li  Li6  1  0.50047207  0.99902107  0.20954009  1
  Li  Li7  1  0.97532103  0.98969364  0.08502997  1
  Li  Li8  1  0.98028756  0.50799174  0.08471979  1
  Li  Li9  1  0.50014407  0.50100485  0.20951849  1
  Li  Li10  1  0.89201399  0.03279451  0.25181111  1
  Li  Li11  1  0.58809719  0.02475947  0.37134881  1
  Li  Li12  1  0.39201651  0.96280302  0.29367475  1
  Li  Li13  1  0.39184288  0.53705157  0.29368881  1
  Li  Li14  1  0.58798582  0.47530680  0.37134846  1
  Li  Li15  1  0.89194354  0.46788630  0.25176120  1
  Li  Li16  1  0.01836620  0.00614507  0.33543523  1
  Li  Li17  1  0.01828702  0.49392946  0.33539772  1
  P  P18  1  0.84579602  0.25014001  0.18722468  1
  P  P19  1  0.15476023  0.75011260  0.23229550  1
  P  P20  1  0.34484814  0.75044382  0.10698599  1
  P  P21  1  0.66638337  0.24961201  0.06188139  1
  P  P22  1  0.33417293  0.75010389  0.35851650  1
  P  P23  1  0.65432582  0.24998072  0.31275223  1
  S  S24  1  0.72782546  0.46358584  0.17117682  1
  S  S25  1  0.27305614  0.53703226  0.24836360  1
  S  S26  1  0.22692024  0.53703010  0.12263688  1
  S  S27  1  0.78032615  0.45991218  0.04520191  1
  S  S28  1  0.77843424  0.03839814  0.04530284  1
  S  S29  1  0.22679601  0.96376157  0.12262072  1
  S  S30  1  0.27327612  0.96309864  0.24836186  1
  S  S31  1  0.72760699  0.03683329  0.17116824  1
  S  S32  1  0.27250920  0.75008142  0.19476418  1
  S  S33  1  0.72746616  0.25011592  0.22468113  1
  S  S34  1  0.78147178  0.25000374  0.09984739  1
  S  S35  1  0.22674369  0.74992350  0.06927860  1
  S  S36  1  0.17083847  0.25001980  0.18420361  1
  S  S37  1  0.82951720  0.75023607  0.23522013  1
  S  S38  1  0.67069351  0.75023219  0.10991310  1
  S  S39  1  0.33775021  0.25004603  0.06046053  1
  S  S40  1  0.22133606  0.53927191  0.37511600  1
  S  S41  1  0.77305372  0.46333988  0.29711334  1
  S  S42  1  0.77324255  0.03664588  0.29712560  1
  S  S43  1  0.22159425  0.96101684  0.37513040  1
  S  S44  1  0.77257293  0.25007011  0.35050924  1
  S  S45  1  0.21875741  0.75008025  0.32050789  1
  S  S46  1  0.66301542  0.75005107  0.35978090  1
  S  S47  1  0.32888597  0.24996079  0.30987804  1
