# generated using pymatgen
data_Li3PS4
_symmetry_space_group_name_H-M   'P 1'
_cell_length_a   8.10679100
_cell_length_b   13.05789500
_cell_length_c   43.81965800
_cell_angle_alpha   90.00000000
_cell_angle_beta   90.00000000
_cell_angle_gamma   90.00000000
_symmetry_Int_Tables_number   1
_chemical_formula_structural   Li3PS4
_chemical_formula_sum   'Li42 P14 S56'
_cell_volume   4638.64495333
_cell_formula_units_Z   14
loop_
 _symmetry_equiv_pos_site_id
 _symmetry_equiv_pos_as_xyz
  1  'x, y, z'
loop_
 _atom_site_type_symbol
 _atom_site_label
 _atom_site_symmetry_multiplicity
 _atom_site_fract_x
 _atom_site_fract_y
 _atom_site_fract_z
 _atom_site_occupancy
  Li  Li0  1  0.97297861  0.83106653  0.13841800  1
  Li  Li1  1  0.04533197  0.18866795  0.11129175  1
  Li  Li2  1  0.06625522  0.63672827  0.05198325  1
  Li  Li3  1  0.88215576  0.43393994  0.04990509  1
  Li  Li4  1  0.43872914  0.51095410  0.00676761  1
  Li  Li5  1  0.49355968  0.67779523  0.06680753  1
  Li  Li6  1  0.45101165  0.20340845  0.10952262  1
  Li  Li7  1  0.53169326  0.82872816  0.13893492  1
  Li  Li8  1  0.97608651  0.01102609  0.07214476  1
  Li  Li9  1  0.07276928  0.50463660  0.13139534  1
  Li  Li10  1  0.57508056  0.50609645  0.10680479  1
  Li  Li11  1  0.52877783  0.02822098  0.07060297  1
  Li  Li12  1  0.97685840  0.83608979  0.28359791  1
  Li  Li13  1  0.04325988  0.17219537  0.25464737  1
  Li  Li14  1  0.02814077  0.66472311  0.21332997  1
  Li  Li15  1  0.96224982  0.33533490  0.18183693  1
  Li  Li16  1  0.53460009  0.34376471  0.17797561  1
  Li  Li17  1  0.46431494  0.66884383  0.20635339  1
  Li  Li18  1  0.47610999  0.16391640  0.24816288  1
  Li  Li19  1  0.54469600  0.82807678  0.27670723  1
  Li  Li20  1  0.95849198  0.00947556  0.20290109  1
  Li  Li21  1  0.05204748  0.49164142  0.27508395  1
  Li  Li22  1  0.55203761  0.50823760  0.25692198  1
  Li  Li23  1  0.44760748  0.99665213  0.18523503  1
  Li  Li24  1  0.95098543  0.79681072  0.42240023  1
  Li  Li25  1  0.03209644  0.16941258  0.39367133  1
  Li  Li26  1  0.03452758  0.65619235  0.35398138  1
  Li  Li27  1  0.96080201  0.32970482  0.32598801  1
  Li  Li28  1  0.52616067  0.33506432  0.31834376  1
  Li  Li29  1  0.46197099  0.66465026  0.35006656  1
  Li  Li30  1  0.47277096  0.16888480  0.39361096  1
  Li  Li31  1  0.54484865  0.81121133  0.42063275  1
  Li  Li32  1  0.94752665  0.00327896  0.34649753  1
  Li  Li33  1  0.07508781  0.49380396  0.42518207  1
  Li  Li34  1  0.57360363  0.49531916  0.39962825  1
  Li  Li35  1  0.45783554  0.99008173  0.32890257  1
  Li  Li36  1  0.93818424  0.49082657  0.52520683  1
  Li  Li37  1  0.99250964  0.32225232  0.46529905  1
  Li  Li38  1  0.56589576  0.36464590  0.48011548  1
  Li  Li39  1  0.38179275  0.56710355  0.48164047  1
  Li  Li40  1  0.02753768  0.97137379  0.46173747  1
  Li  Li41  1  0.47551919  0.98861453  0.45989247  1
  P  P42  1  0.25823803  0.91717472  0.10222729  1
  P  P43  1  0.73828846  0.61681524  0.02158980  1
  P  P44  1  0.25301599  0.42646477  0.07262070  1
  P  P45  1  0.25277729  0.91222575  0.24295153  1
  P  P46  1  0.74921935  0.09197994  0.14514385  1
  P  P47  1  0.75285659  0.58957975  0.17185939  1
  P  P48  1  0.25365907  0.41014730  0.21753837  1
  P  P49  1  0.24840429  0.90792553  0.38679457  1
  P  P50  1  0.75233721  0.08753643  0.28879104  1
  P  P51  1  0.75349307  0.58985886  0.31429098  1
  P  P52  1  0.25203278  0.40941512  0.36005310  1
  P  P53  1  0.75723983  0.08255485  0.42999887  1
  P  P54  1  0.75242856  0.57336324  0.45901206  1
  P  P55  1  0.23742426  0.38509902  0.51037403  1
  S  S56  1  0.47723801  0.86072090  0.08552710  1
  S  S57  1  0.51364413  0.68547562  0.01393526  1
  S  S58  1  0.47159265  0.35035229  0.07900203  1
  S  S59  1  0.05286697  0.36066510  0.09499630  1
  S  S60  1  0.93095503  0.69950906  0.00716200  1
  S  S61  1  0.05645832  0.84557626  0.08455330  1
  S  S62  1  0.25147142  0.07200545  0.08687090  1
  S  S63  1  0.27751009  0.57038602  0.09296107  1
  S  S64  1  0.72518791  0.46981025  0.00474959  1
  S  S65  1  0.75741671  0.11504050  0.09760766  1
  S  S66  1  0.77278099  0.60123684  0.07051068  1
  S  S67  1  0.18052453  0.44432813  0.02878422  1
  S  S68  1  0.46114916  0.85072199  0.22349960  1
  S  S69  1  0.53607254  0.15924718  0.16052556  1
  S  S70  1  0.54409389  0.65015073  0.15288258  1
  S  S71  1  0.47009624  0.34476168  0.23272145  1
  S  S72  1  0.04250233  0.34877309  0.23595207  1
  S  S73  1  0.97097569  0.65689422  0.15850497  1
  S  S74  1  0.95919349  0.15441562  0.16303335  1
  S  S75  1  0.03521259  0.84770351  0.22839067  1
  S  S76  1  0.74615309  0.94230305  0.16014818  1
  S  S77  1  0.24580046  0.06313388  0.22722397  1
  S  S78  1  0.26013681  0.56030282  0.23348342  1
  S  S79  1  0.76016196  0.44053319  0.15514883  1
  S  S80  1  0.25361806  0.90168444  0.14870948  1
  S  S81  1  0.76319593  0.10449417  0.24234522  1
  S  S82  1  0.74262443  0.60327880  0.21859231  1
  S  S83  1  0.24583164  0.39437064  0.17107764  1
  S  S84  1  0.45859344  0.84560777  0.36894453  1
  S  S85  1  0.53467334  0.15186532  0.30336462  1
  S  S86  1  0.54261208  0.65156007  0.29587351  1
  S  S87  1  0.47093051  0.34254523  0.37323906  1
  S  S88  1  0.04434997  0.34836200  0.37927099  1
  S  S89  1  0.97007581  0.65515145  0.29915024  1
  S  S90  1  0.96077609  0.14912011  0.30812662  1
  S  S91  1  0.03541058  0.84061602  0.37135745  1
  S  S92  1  0.74589031  0.93666354  0.30455501  1
  S  S93  1  0.24553021  0.05759483  0.37179466  1
  S  S94  1  0.25951485  0.55867293  0.37662605  1
  S  S95  1  0.75952188  0.43966014  0.29841724  1
  S  S96  1  0.26417264  0.89501078  0.28936647  1
  S  S97  1  0.75377640  0.09813278  0.38350807  1
  S  S98  1  0.74563956  0.60567717  0.36076797  1
  S  S99  1  0.24047893  0.39544648  0.31335506  1
  S  S100  1  0.55525886  0.15414873  0.44756587  1
  S  S101  1  0.55261076  0.63874691  0.43644585  1
  S  S102  1  0.43002882  0.30282428  0.52504378  1
  S  S103  1  0.01295103  0.31627781  0.51820312  1
  S  S104  1  0.97096850  0.64962913  0.45279279  1
  S  S105  1  0.97586497  0.13890019  0.44699520  1
  S  S106  1  0.75056505  0.92765513  0.44526163  1
  S  S107  1  0.22420141  0.53252966  0.52687968  1
  S  S108  1  0.77734296  0.42944522  0.43875623  1
  S  S109  1  0.25614073  0.88497230  0.43432852  1
  S  S110  1  0.67950467  0.55595135  0.50285540  1
  S  S111  1  0.27223624  0.39926872  0.46147425  1
