# generated using pymatgen
data_Li3PS4
_symmetry_space_group_name_H-M   'P 1'
_cell_length_a   14.91536200
_cell_length_b   14.48087041
_cell_length_c   46.09462300
_cell_angle_alpha   90.00000000
_cell_angle_beta   90.00000000
_cell_angle_gamma   68.72383501
_symmetry_Int_Tables_number   1
_chemical_formula_structural   Li3PS4
_chemical_formula_sum   'Li84 P28 S112'
_cell_volume   9277.29004457
_cell_formula_units_Z   28
loop_
 _symmetry_equiv_pos_site_id
 _symmetry_equiv_pos_as_xyz
  1  'x, y, z'
loop_
 _atom_site_type_symbol
 _atom_site_label
 _atom_site_symmetry_multiplicity
 _atom_site_fract_x
 _atom_site_fract_y
 _atom_site_fract_z
 _atom_site_occupancy
  Li  Li0  1  0.31361242  0.72771246  0.11493837  1
  Li  Li1  1  0.63151709  0.91161192  0.01719775  1
  Li  Li2  1  0.29824266  0.04416414  0.13296021  1
  Li  Li3  1  0.62950651  0.10889852  0.06250529  1
  Li  Li4  1  0.90370103  0.64894449  0.04609776  1
  Li  Li5  1  0.48675593  0.57981469  0.09330551  1
  Li  Li6  1  0.37635620  0.23660252  0.10418375  1
  Li  Li7  1  0.85163218  0.34554717  0.02739426  1
  Li  Li8  1  0.28377254  0.31603744  0.02778288  1
  Li  Li9  1  0.90467700  0.22055652  0.11929351  1
  Li  Li10  1  0.15844795  0.43365993  0.07107073  1
  Li  Li11  1  0.07673351  0.16759968  0.06304370  1
  Li  Li12  1  0.75843364  0.05117764  0.12807054  1
  Li  Li13  1  0.12403572  0.72170711  0.07580445  1
  Li  Li14  1  0.84760136  0.71359222  0.12726520  1
  Li  Li15  1  0.52207288  0.90078624  0.08927779  1
  Li  Li16  1  0.48616327  0.37673196  0.10994583  1
  Li  Li17  1  0.89783399  0.42629345  0.08702479  1
  Li  Li18  1  0.30968621  0.98687813  0.04002956  1
  Li  Li19  1  0.95286463  0.91571804  0.10427056  1
  Li  Li20  1  0.66342619  0.59403060  0.26281812  1
  Li  Li21  1  0.98398527  0.66414831  0.19365551  1
  Li  Li22  1  0.63773305  0.91948891  0.28333833  1
  Li  Li23  1  0.97291577  0.97221003  0.20813254  1
  Li  Li24  1  0.22649399  0.53416940  0.15264429  1
  Li  Li25  1  0.89419512  0.46211368  0.22649200  1
  Li  Li26  1  0.73436402  0.10194853  0.24840417  1
  Li  Li27  1  0.05090579  0.16840196  0.17922797  1
  Li  Li28  1  0.57540571  0.16957765  0.18808966  1
  Li  Li29  1  0.25759679  0.09658786  0.25729191  1
  Li  Li30  1  0.38029814  0.46855552  0.21507107  1
  Li  Li31  1  0.70490175  0.54781492  0.14354571  1
  Li  Li32  1  0.45412937  0.98034625  0.19819163  1
  Li  Li33  1  0.11127427  0.92830514  0.27321695  1
  Li  Li34  1  0.49942614  0.65920582  0.20091170  1
  Li  Li35  1  0.18810421  0.58614072  0.27249782  1
  Li  Li36  1  0.77474543  0.79813536  0.23419772  1
  Li  Li37  1  0.17738458  0.84632974  0.16617126  1
  Li  Li38  1  0.81413187  0.26869507  0.24823865  1
  Li  Li39  1  0.13343758  0.33495356  0.17405258  1
  Li  Li40  1  0.67684388  0.35955597  0.16858205  1
  Li  Li41  1  0.28799319  0.28449721  0.23405447  1
  Li  Li42  1  0.65009000  0.84869563  0.15360004  1
  Li  Li43  1  0.31162491  0.78583758  0.24862864  1
  Li  Li44  1  0.00156590  0.46913093  0.41359703  1
  Li  Li45  1  0.32708285  0.54420993  0.33796270  1
  Li  Li46  1  0.98614100  0.78669607  0.43028252  1
  Li  Li47  1  0.31785776  0.84910288  0.35198337  1
  Li  Li48  1  0.56827659  0.41127015  0.29800458  1
  Li  Li49  1  0.24918761  0.34621917  0.36702830  1
  Li  Li50  1  0.07398322  0.97951868  0.39310830  1
  Li  Li51  1  0.40648478  0.05228574  0.31971970  1
  Li  Li52  1  0.92098178  0.04536333  0.33125362  1
  Li  Li53  1  0.59515166  0.96704309  0.40226386  1
  Li  Li54  1  0.72515508  0.34334585  0.35821177  1
  Li  Li55  1  0.04362142  0.41804151  0.28926526  1
  Li  Li56  1  0.79988213  0.85569610  0.34509284  1
  Li  Li57  1  0.45525101  0.79965176  0.41849921  1
  Li  Li58  1  0.84747379  0.53381555  0.34802528  1
  Li  Li59  1  0.54247580  0.46199776  0.41753943  1
  Li  Li60  1  0.12334621  0.66719656  0.37986549  1
  Li  Li61  1  0.52698518  0.71518556  0.31154186  1
  Li  Li62  1  0.16789584  0.17943246  0.37169364  1
  Li  Li63  1  0.48644458  0.24495102  0.29766940  1
  Li  Li64  1  0.01072065  0.22913828  0.31175960  1
  Li  Li65  1  0.62270813  0.15609306  0.37754073  1
  Li  Li66  1  0.98932771  0.72836714  0.29734443  1
  Li  Li67  1  0.65128031  0.66374327  0.39302466  1
  Li  Li68  1  0.67116165  0.40311720  0.48339004  1
  Li  Li69  1  0.66786999  0.60126411  0.52823543  1
  Li  Li70  1  0.92426582  0.27682259  0.44213150  1
  Li  Li71  1  0.44943126  0.16795538  0.51902307  1
  Li  Li72  1  0.39691134  0.86501581  0.49992941  1
  Li  Li73  1  0.81207695  0.93339950  0.45200803  1
  Li  Li74  1  0.14180260  0.08040917  0.47484021  1
  Li  Li75  1  0.01712843  0.19704565  0.51842751  1
  Li  Li76  1  0.39460725  0.29404827  0.42685736  1
  Li  Li77  1  0.17613655  0.79372024  0.47036153  1
  Li  Li78  1  0.22262906  0.34685810  0.48336420  1
  Li  Li79  1  0.77839627  0.61288687  0.45717163  1
  Li  Li80  1  0.81389395  0.13638556  0.43643633  1
  Li  Li81  1  0.40233988  0.08566152  0.45927157  1
  Li  Li82  1  0.34805540  0.59828275  0.44128545  1
  Li  Li83  1  0.99127428  0.52685104  0.50729715  1
  P  P84  1  0.79805344  0.84463862  0.07325625  1
  P  P85  1  0.46211890  0.06261474  0.03907578  1
  P  P86  1  0.12899038  0.99164321  0.10978267  1
  P  P87  1  0.28609173  0.53316608  0.08813820  1
  P  P88  1  0.03050403  0.37556185  0.03538863  1
  P  P89  1  0.69835277  0.31518135  0.09851692  1
  P  P90  1  0.14845545  0.71474109  0.21971689  1
  P  P91  1  0.46879418  0.78258887  0.14494544  1
  P  P92  1  0.80781156  0.92408860  0.18183565  1
  P  P93  1  0.48662438  0.85998293  0.25489432  1
  P  P94  1  0.58968431  0.38009736  0.23324546  1
  P  P95  1  0.91117138  0.44458106  0.16184657  1
  P  P96  1  0.36332565  0.25627444  0.16927763  1
  P  P97  1  0.04423613  0.19347641  0.24374658  1
  P  P98  1  0.49324940  0.58981962  0.36403030  1
  P  P99  1  0.81425415  0.65423074  0.29129277  1
  P  P100  1  0.15200335  0.79954245  0.32612285  1
  P  P101  1  0.83099735  0.73150582  0.40107017  1
  P  P102  1  0.93723887  0.25738744  0.37693714  1
  P  P103  1  0.25705543  0.32095088  0.30268187  1
  P  P104  1  0.71163437  0.13380068  0.31307141  1
  P  P105  1  0.38903826  0.06990160  0.38425679  1
  P  P106  1  0.83871712  0.45082734  0.50719280  1
  P  P107  1  0.17103501  0.52268129  0.43674171  1
  P  P108  1  0.50216134  0.66901743  0.47264030  1
  P  P109  1  0.27042743  0.13766203  0.51091121  1
  P  P110  1  0.60113435  0.19825574  0.44760695  1
  P  P111  1  0.01469175  0.98149654  0.45807244  1
  S  S112  1  0.93584832  0.75214877  0.08699635  1
  S  S113  1  0.32376296  0.14072966  0.02600340  1
  S  S114  1  0.99602738  0.06819899  0.09315732  1
  S  S115  1  0.29488678  0.63364882  0.05903647  1
  S  S116  1  0.86145057  0.53935818  0.12698833  1
  S  S117  1  0.06778378  0.33280690  0.07801733  1
  S  S118  1  0.74690957  0.22280439  0.13404987  1
  S  S119  1  0.01754309  0.25598688  0.01476582  1
  S  S120  1  0.60294061  0.28569017  0.07276996  1
  S  S121  1  0.36688794  0.53955547  0.12395655  1
  S  S122  1  0.48501558  0.08504843  0.08244419  1
  S  S123  1  0.79113885  0.80902039  0.03061451  1
  S  S124  1  0.46173967  0.75383114  0.10136595  1
  S  S125  1  0.14343709  0.84324222  0.11072772  1
  S  S126  1  0.48022787  0.91288605  0.03596065  1
  S  S127  1  0.78953201  0.98882497  0.07816629  1
  S  S128  1  0.89431906  0.48823490  0.03590633  1
  S  S129  1  0.62391929  0.45306396  0.11720259  1
  S  S130  1  0.33852559  0.38848663  0.07227065  1
  S  S131  1  0.99500021  0.30700164  0.14607092  1
  S  S132  1  0.70373838  0.80440232  0.09828972  1
  S  S133  1  0.22571281  0.03073508  0.08558336  1
  S  S134  1  0.56468024  0.08876962  0.01492226  1
  S  S135  1  0.14688258  0.56833517  0.10290377  1
  S  S136  1  0.12476543  0.43441582  0.01862430  1
  S  S137  1  0.82077218  0.30594718  0.07629161  1
  S  S138  1  0.28257653  0.63305510  0.23614111  1
  S  S139  1  0.59873281  0.70397227  0.16422450  1
  S  S140  1  0.67184720  0.00478283  0.16682798  1
  S  S141  1  0.35526859  0.93617230  0.23645242  1
  S  S142  1  0.53687279  0.47328939  0.19857042  1
  S  S143  1  0.19526709  0.41444866  0.26870277  1
  S  S144  1  0.41593064  0.16278837  0.20392170  1
  S  S145  1  0.10593203  0.09936459  0.27757760  1
  S  S146  1  0.26842262  0.22256504  0.14294679  1
  S  S147  1  0.95207813  0.15000811  0.21895091  1
  S  S148  1  0.67899825  0.42077614  0.26036384  1
  S  S149  1  0.00013276  0.48704834  0.18858935  1
  S  S150  1  0.82753788  0.94376968  0.22523277  1
  S  S151  1  0.15248042  0.02056831  0.15240774  1
  S  S152  1  0.13150979  0.69258547  0.17639360  1
  S  S153  1  0.80535358  0.62586756  0.24774912  1
  S  S154  1  0.50026532  0.71184479  0.25268580  1
  S  S155  1  0.82142380  0.77615548  0.17811587  1
  S  S156  1  0.46044305  0.92911872  0.14642201  1
  S  S157  1  0.13693142  0.86230945  0.22277427  1
  S  S158  1  0.27970616  0.39209068  0.18788097  1
  S  S159  1  0.95744744  0.32613629  0.26272359  1
  S  S160  1  0.67626697  0.24595583  0.21493722  1
  S  S161  1  0.34390445  0.18824929  0.28366720  1
  S  S162  1  0.36507909  0.75157011  0.16738165  1
  S  S163  1  0.04653200  0.68013396  0.24231699  1
  S  S164  1  0.58804511  0.89686554  0.23282676  1
  S  S165  1  0.90709319  0.96140674  0.15891054  1
  S  S166  1  0.47491559  0.37630947  0.25705412  1
  S  S167  1  0.79424125  0.44645821  0.18565184  1
  S  S168  1  0.48021113  0.25362982  0.14566929  1
  S  S169  1  0.15420795  0.20052444  0.21776664  1
  S  S170  1  0.62907605  0.50863028  0.37904922  1
  S  S171  1  0.94572439  0.57848104  0.30972373  1
  S  S172  1  0.01763960  0.88143228  0.30989145  1
  S  S173  1  0.70101825  0.80999075  0.38183524  1
  S  S174  1  0.88444464  0.35117230  0.34236374  1
  S  S175  1  0.55250706  0.29135667  0.41221660  1
  S  S176  1  0.76425033  0.04075136  0.34776438  1
  S  S177  1  0.43904672  0.97462598  0.41896298  1
  S  S178  1  0.62281711  0.09286947  0.28583282  1
  S  S179  1  0.30059915  0.02688647  0.35745826  1
  S  S180  1  0.03224907  0.29095277  0.40322897  1
  S  S181  1  0.34889278  0.36477757  0.32744260  1
  S  S182  1  0.16985116  0.82112764  0.36944534  1
  S  S183  1  0.49557322  0.88810945  0.29843793  1
  S  S184  1  0.47342992  0.57013858  0.32066453  1
  S  S185  1  0.14734809  0.49320854  0.39415985  1
  S  S186  1  0.83972232  0.58490231  0.39969455  1
  S  S187  1  0.16330708  0.65201411  0.32300297  1
  S  S188  1  0.80047958  0.80237571  0.29336137  1
  S  S189  1  0.48009701  0.73746923  0.36777332  1
  S  S190  1  0.62442981  0.26774806  0.33137668  1
  S  S191  1  0.30460786  0.20719853  0.40005735  1
  S  S192  1  0.02086520  0.12184643  0.35820024  1
  S  S193  1  0.67577983  0.06111435  0.42854301  1
  S  S194  1  0.71307452  0.61714422  0.31340090  1
  S  S195  1  0.39367767  0.55273760  0.38695636  1
  S  S196  1  0.93467394  0.76251631  0.37855814  1
  S  S197  1  0.25348961  0.83440547  0.30339833  1
  S  S198  1  0.82043021  0.25973244  0.40056120  1
  S  S199  1  0.14684896  0.31361282  0.32852949  1
  S  S200  1  0.82630415  0.13821357  0.28929052  1
  S  S201  1  0.50578674  0.06875547  0.36047343  1
  S  S202  1  0.97678065  0.37273344  0.52053786  1
  S  S203  1  0.30416421  0.44633351  0.45328696  1
  S  S204  1  0.36509551  0.76210055  0.45865325  1
  S  S205  1  0.23326105  0.18094913  0.46830479  1
  S  S206  1  0.00752100  0.88157993  0.48752174  1
  S  S207  1  0.93327925  0.97452335  0.42240442  1
  S  S208  1  0.28321015  0.25707159  0.53167719  1
  S  S209  1  0.69676361  0.22707305  0.47346561  1
  S  S210  1  0.50830474  0.70423490  0.51535293  1
  S  S211  1  0.83861571  0.75997289  0.44464271  1
  S  S212  1  0.81616457  0.42858025  0.46377574  1
  S  S213  1  0.51091450  0.52486264  0.46749980  1
  S  S214  1  0.15649695  0.67111070  0.43554488  1
  S  S215  1  0.82034131  0.60063275  0.51044662  1
  S  S216  1  0.96184606  0.12635828  0.47384111  1
  S  S217  1  0.40669015  0.02508618  0.51054042  1
  S  S218  1  0.07435015  0.48394222  0.46109685  1
  S  S219  1  0.73572440  0.42430849  0.53104909  1
  S  S220  1  0.59759112  0.70902340  0.44794755  1
  S  S221  1  0.17607642  0.07845373  0.52741081  1
  S  S222  1  0.47895725  0.20663631  0.46976011  1
  S  S223  1  0.15333241  0.94678769  0.44282654  1
