# generated using pymatgen
data_Li3PS4
_symmetry_space_group_name_H-M   'P 1'
_cell_length_a   13.05789500
_cell_length_b   10.24241400
_cell_length_c   49.54702600
_cell_angle_alpha   90.00000000
_cell_angle_beta   90.00000000
_cell_angle_gamma   90.00000000
_symmetry_Int_Tables_number   1
_chemical_formula_structural   Li3PS4
_chemical_formula_sum   'Li60 P20 S80'
_cell_volume   6626.63560723
_cell_formula_units_Z   20
loop_
 _symmetry_equiv_pos_site_id
 _symmetry_equiv_pos_as_xyz
  1  'x, y, z'
loop_
 _atom_site_type_symbol
 _atom_site_label
 _atom_site_symmetry_multiplicity
 _atom_site_fract_x
 _atom_site_fract_y
 _atom_site_fract_z
 _atom_site_occupancy
  Li  Li0  1  0.15966080  0.82265984  0.05005404  1
  Li  Li1  1  0.84871906  0.71095905  0.06708038  1
  Li  Li2  1  0.32873831  0.58220985  0.09669822  1
  Li  Li3  1  0.67182513  0.86750306  0.04466599  1
  Li  Li4  1  0.66577424  0.21271504  0.06602149  1
  Li  Li5  1  0.30929140  0.31734020  0.05177544  1
  Li  Li6  1  0.84364770  0.35735663  0.04180782  1
  Li  Li7  1  0.17197653  0.08559235  0.09769327  1
  Li  Li8  1  0.48468366  0.79163008  0.07533147  1
  Li  Li9  1  0.49049452  0.35825935  0.02074212  1
  Li  Li10  1  0.02289120  0.26983240  0.07340974  1
  Li  Li11  1  0.16893270  0.45739534  0.15527287  1
  Li  Li12  1  0.83518556  0.33615691  0.17002007  1
  Li  Li13  1  0.32332626  0.22512373  0.19774055  1
  Li  Li14  1  0.66858712  0.57144620  0.12369699  1
  Li  Li15  1  0.66899599  0.84320034  0.16604386  1
  Li  Li16  1  0.33656667  0.96106268  0.15097319  1
  Li  Li17  1  0.82517780  0.08466582  0.12188831  1
  Li  Li18  1  0.16334944  0.74425414  0.19552114  1
  Li  Li19  1  0.01188261  0.55214425  0.11133806  1
  Li  Li20  1  0.49354224  0.40813503  0.17271685  1
  Li  Li21  1  0.50418115  0.14105562  0.10981991  1
  Li  Li22  1  0.98614665  0.88946082  0.14719407  1
  Li  Li23  1  0.16611441  0.08339282  0.25708502  1
  Li  Li24  1  0.83785538  0.96073853  0.27137750  1
  Li  Li25  1  0.32920234  0.86564893  0.29681207  1
  Li  Li26  1  0.66874793  0.18476031  0.22576867  1
  Li  Li27  1  0.66288725  0.46471959  0.26838048  1
  Li  Li28  1  0.33540738  0.58882034  0.25296434  1
  Li  Li29  1  0.82815199  0.70420709  0.22322243  1
  Li  Li30  1  0.16499898  0.36918162  0.29582611  1
  Li  Li31  1  0.00610735  0.15770518  0.21252394  1
  Li  Li32  1  0.49902096  0.02598738  0.26089271  1
  Li  Li33  1  0.50783285  0.75806997  0.20967699  1
  Li  Li34  1  0.99135920  0.51918712  0.24996458  1
  Li  Li35  1  0.17115876  0.70789941  0.35663638  1
  Li  Li36  1  0.83651844  0.58897771  0.37140980  1
  Li  Li37  1  0.33234837  0.47643660  0.39929977  1
  Li  Li38  1  0.67231083  0.82245645  0.32488349  1
  Li  Li39  1  0.66468443  0.09146741  0.37026548  1
  Li  Li40  1  0.32876343  0.20798641  0.35630093  1
  Li  Li41  1  0.82899685  0.33182716  0.32398311  1
  Li  Li42  1  0.16278101  0.98612137  0.39902366  1
  Li  Li43  1  0.00868214  0.78053820  0.31311840  1
  Li  Li44  1  0.50438495  0.64282308  0.35073569  1
  Li  Li45  1  0.49015608  0.29412309  0.31319067  1
  Li  Li46  1  0.99663314  0.14627756  0.35006151  1
  Li  Li47  1  0.15437171  0.34149956  0.46072655  1
  Li  Li48  1  0.84157093  0.22942905  0.47400808  1
  Li  Li49  1  0.33104656  0.18102923  0.47886400  1
  Li  Li50  1  0.67238999  0.46901623  0.42562079  1
  Li  Li51  1  0.69378429  0.74011203  0.46960338  1
  Li  Li52  1  0.33388766  0.84164814  0.45560885  1
  Li  Li53  1  0.83354641  0.97940021  0.42360335  1
  Li  Li54  1  0.15824667  0.69773543  0.47852430  1
  Li  Li55  1  0.00408917  0.40984282  0.41393200  1
  Li  Li56  1  0.51601594  0.26249724  0.44711926  1
  Li  Li57  1  0.49791493  0.91665878  0.41269038  1
  Li  Li58  1  0.97780105  0.78335013  0.44779714  1
  Li  Li59  1  0.51085091  0.69787362  0.50089544  1
  P  P60  1  0.08674432  0.54742801  0.04974368  1
  P  P61  1  0.91153574  0.98926729  0.06766199  1
  P  P62  1  0.40612916  0.05248866  0.05185787  1
  P  P63  1  0.58970620  0.48847721  0.06681928  1
  P  P64  1  0.08633263  0.17967388  0.15158787  1
  P  P65  1  0.90973413  0.61479290  0.16960189  1
  P  P66  1  0.41025813  0.68035909  0.15148978  1
  P  P67  1  0.58702255  0.11631586  0.17044672  1
  P  P68  1  0.08779913  0.81023757  0.25182456  1
  P  P69  1  0.90996028  0.24169029  0.27037998  1
  P  P70  1  0.40900815  0.30836302  0.25170821  1
  P  P71  1  0.58914492  0.74512739  0.27066595  1
  P  P72  1  0.09016023  0.43620716  0.35207800  1
  P  P73  1  0.91032635  0.87070770  0.37014961  1
  P  P74  1  0.41091396  0.93612803  0.35210894  1
  P  P75  1  0.58941572  0.37227929  0.37092357  1
  P  P76  1  0.09000961  0.06606393  0.45613484  1
  P  P77  1  0.91761535  0.50356965  0.47194334  1
  P  P78  1  0.41146477  0.56495674  0.45550301  1
  P  P79  1  0.59605653  0.00339110  0.47040754  1
  S  S80  1  0.13690108  0.36396872  0.04029926  1
  S  S81  1  0.84625522  0.17346486  0.07584899  1
  S  S82  1  0.34323965  0.15018365  0.08477144  1
  S  S83  1  0.66084899  0.40197740  0.03379606  1
  S  S84  1  0.65286679  0.66941903  0.07640669  1
  S  S85  1  0.35040947  0.87124536  0.04548881  1
  S  S86  1  0.84798646  0.89807124  0.03530266  1
  S  S87  1  0.15761901  0.63376136  0.08308480  1
  S  S88  1  0.06214467  0.02923060  0.05981291  1
  S  S89  1  0.93894071  0.50903108  0.06644045  1
  S  S90  1  0.43955136  0.51902476  0.05567485  1
  S  S91  1  0.55878260  0.02269667  0.06485346  1
  S  S92  1  0.08487692  0.67014799  0.01881230  1
  S  S93  1  0.39023532  0.16719502  0.01854866  1
  S  S94  1  0.15202192  0.00169095  0.14301160  1
  S  S95  1  0.84794888  0.79550324  0.17742333  1
  S  S96  1  0.34658765  0.77748722  0.18371192  1
  S  S97  1  0.64884640  0.03355384  0.13636096  1
  S  S98  1  0.65401169  0.29001344  0.18153150  1
  S  S99  1  0.35034309  0.49870429  0.14396209  1
  S  S100  1  0.84538599  0.51808408  0.13745259  1
  S  S101  1  0.14500145  0.26911790  0.18529166  1
  S  S102  1  0.06003115  0.65399107  0.15770015  1
  S  S103  1  0.93511204  0.13674754  0.16113617  1
  S  S104  1  0.43725119  0.16228341  0.15972991  1
  S  S105  1  0.56217354  0.64568742  0.16245043  1
  S  S106  1  0.10898140  0.30244404  0.11928972  1
  S  S107  1  0.88411679  0.87804153  0.10173765  1
  S  S108  1  0.38838296  0.79408252  0.11800125  1
  S  S109  1  0.60969546  0.37283334  0.10000226  1
  S  S110  1  0.15485591  0.63684753  0.24037320  1
  S  S111  1  0.84616306  0.42135227  0.27776679  1
  S  S112  1  0.34838882  0.40112318  0.28468956  1
  S  S113  1  0.65066796  0.65493746  0.23730865  1
  S  S114  1  0.65373675  0.92238460  0.28011236  1
  S  S115  1  0.34298007  0.13073642  0.24280114  1
  S  S116  1  0.84618499  0.14168988  0.23840447  1
  S  S117  1  0.14716354  0.89257955  0.28626579  1
  S  S118  1  0.05966876  0.28172575  0.25829331  1
  S  S119  1  0.93793555  0.76211252  0.26214820  1
  S  S120  1  0.43904572  0.78930350  0.25912286  1
  S  S121  1  0.55911529  0.26394791  0.26303730  1
  S  S122  1  0.10431266  0.93801153  0.22031590  1
  S  S123  1  0.89433661  0.49891041  0.20303848  1
  S  S124  1  0.39391093  0.42825512  0.21885677  1
  S  S125  1  0.60256144  0.98871228  0.20222744  1
  S  S126  1  0.15634911  0.26247739  0.34026964  1
  S  S127  1  0.84960335  0.05303653  0.37637671  1
  S  S128  1  0.34787371  0.01828345  0.38602899  1
  S  S129  1  0.65293223  0.27712130  0.33831516  1
  S  S130  1  0.64962293  0.55330663  0.37851618  1
  S  S131  1  0.34509166  0.76162809  0.34091935  1
  S  S132  1  0.84764928  0.77054986  0.33800239  1
  S  S133  1  0.15232569  0.51696635  0.38613056  1
  S  S134  1  0.06248228  0.90587473  0.35960791  1
  S  S135  1  0.94024648  0.39018048  0.36268286  1
  S  S136  1  0.43711458  0.40624282  0.36004719  1
  S  S137  1  0.56069925  0.89096570  0.36288751  1
  S  S138  1  0.10582547  0.56348365  0.32031355  1
  S  S139  1  0.89531702  0.12663224  0.30389328  1
  S  S140  1  0.39551913  0.06263384  0.32008825  1
  S  S141  1  0.60319007  0.62200248  0.30292667  1
  S  S142  1  0.15412782  0.88439882  0.44515587  1
  S  S143  1  0.86538142  0.68651623  0.48087424  1
  S  S144  1  0.34012771  0.65388511  0.48823012  1
  S  S145  1  0.66110857  0.91072561  0.43716848  1
  S  S146  1  0.64872606  0.18517203  0.47766231  1
  S  S147  1  0.34797599  0.38308379  0.44682457  1
  S  S148  1  0.84262368  0.41096373  0.43979759  1
  S  S149  1  0.15629367  0.14479583  0.48966175  1
  S  S150  1  0.06354141  0.54083263  0.45448295  1
  S  S151  1  0.93921545  0.02426635  0.46354736  1
  S  S152  1  0.44305130  0.03024504  0.45731253  1
  S  S153  1  0.56218604  0.53643461  0.46644691  1
  S  S154  1  0.11491604  0.18601946  0.42333576  1
  S  S155  1  0.88827996  0.75812630  0.40359484  1
  S  S156  1  0.39073459  0.67836229  0.42202661  1
  S  S157  1  0.61136189  0.25640054  0.40401776  1
  S  S158  1  0.92375775  0.38386996  0.50345228  1
  S  S159  1  0.61301528  0.88626535  0.50331543  1
