# generated using pymatgen
data_Li3PS4
_symmetry_space_group_name_H-M   'P 1'
_cell_length_a   13.05789500
_cell_length_b   10.24241400
_cell_length_c   49.54702600
_cell_angle_alpha   90.00000000
_cell_angle_beta   90.00000000
_cell_angle_gamma   90.00000000
_symmetry_Int_Tables_number   1
_chemical_formula_structural   Li3PS4
_chemical_formula_sum   'Li60 P20 S80'
_cell_volume   6626.63560723
_cell_formula_units_Z   20
loop_
 _symmetry_equiv_pos_site_id
 _symmetry_equiv_pos_as_xyz
  1  'x, y, z'
loop_
 _atom_site_type_symbol
 _atom_site_label
 _atom_site_symmetry_multiplicity
 _atom_site_fract_x
 _atom_site_fract_y
 _atom_site_fract_z
 _atom_site_occupancy
  Li  Li0  1  0.15797768  0.84301732  0.04227795  1
  Li  Li1  1  0.84897640  0.73429927  0.05936908  1
  Li  Li2  1  0.32899369  0.60187445  0.08937063  1
  Li  Li3  1  0.66910439  0.89107487  0.03753283  1
  Li  Li4  1  0.66477984  0.23579502  0.05866825  1
  Li  Li5  1  0.30650432  0.34062206  0.04462106  1
  Li  Li6  1  0.84340880  0.37700136  0.03424738  1
  Li  Li7  1  0.17110194  0.10831093  0.09027685  1
  Li  Li8  1  0.48388402  0.81476909  0.06891305  1
  Li  Li9  1  0.48936680  0.38111817  0.01359748  1
  Li  Li10  1  0.02267692  0.29231968  0.06571029  1
  Li  Li11  1  0.16776885  0.48312888  0.14730964  1
  Li  Li12  1  0.83705725  0.36512308  0.16237834  1
  Li  Li13  1  0.32443175  0.25514744  0.19023082  1
  Li  Li14  1  0.66869870  0.59329889  0.11634125  1
  Li  Li15  1  0.67163498  0.86650801  0.15963257  1
  Li  Li16  1  0.33622672  0.98423781  0.14470153  1
  Li  Li17  1  0.82464002  0.10819829  0.11468257  1
  Li  Li18  1  0.16113334  0.76312862  0.18921837  1
  Li  Li19  1  0.01124644  0.58018726  0.10354593  1
  Li  Li20  1  0.49411650  0.43319396  0.16537723  1
  Li  Li21  1  0.50420639  0.16277280  0.10262707  1
  Li  Li22  1  0.98642305  0.91495713  0.14071061  1
  Li  Li23  1  0.16900628  0.10996449  0.24824663  1
  Li  Li24  1  0.83025619  0.99168433  0.26030541  1
  Li  Li25  1  0.33700831  0.89599071  0.28888003  1
  Li  Li26  1  0.67117237  0.21840866  0.21785154  1
  Li  Li27  1  0.66643706  0.49027368  0.26160798  1
  Li  Li28  1  0.33409491  0.61162968  0.24643198  1
  Li  Li29  1  0.83834479  0.72174984  0.21711702  1
  Li  Li30  1  0.16934313  0.37217763  0.29180867  1
  Li  Li31  1  0.00668535  0.19069739  0.20467167  1
  Li  Li32  1  0.50838830  0.04647943  0.24507489  1
  Li  Li33  1  0.50814047  0.76964381  0.20220647  1
  Li  Li34  1  0.00661887  0.55723246  0.26248239  1
  Li  Li35  1  0.16470658  0.74079703  0.34402570  1
  Li  Li36  1  0.82966029  0.62166631  0.35996848  1
  Li  Li37  1  0.33111845  0.50980539  0.39120215  1
  Li  Li38  1  0.67257060  0.85305023  0.31703313  1
  Li  Li39  1  0.66311916  0.11841771  0.36365446  1
  Li  Li40  1  0.32871475  0.23368722  0.35001229  1
  Li  Li41  1  0.83643277  0.33429137  0.31978180  1
  Li  Li42  1  0.17403533  0.99256430  0.39303785  1
  Li  Li43  1  0.99162972  0.91849064  0.30353878  1
  Li  Li44  1  0.50452905  0.66885339  0.34257211  1
  Li  Li45  1  0.49081133  0.31594173  0.30567694  1
  Li  Li46  1  0.01309074  0.18762276  0.36786133  1
  Li  Li47  1  0.15111717  0.36783985  0.44818526  1
  Li  Li48  1  0.84198112  0.25802494  0.46520665  1
  Li  Li49  1  0.32905295  0.21261717  0.47012723  1
  Li  Li50  1  0.67093683  0.49965895  0.41817710  1
  Li  Li51  1  0.69151240  0.75988577  0.46347892  1
  Li  Li52  1  0.33469360  0.86718041  0.44968801  1
  Li  Li53  1  0.82793794  0.99308771  0.41790611  1
  Li  Li54  1  0.15633673  0.72373865  0.47326109  1
  Li  Li55  1  0.98757232  0.52758511  0.40385761  1
  Li  Li56  1  0.51859373  0.29081031  0.44039738  1
  Li  Li57  1  0.49587395  0.94015930  0.40593433  1
  Li  Li58  1  0.97716851  0.80844011  0.44169050  1
  Li  Li59  1  0.50993140  0.71972386  0.49454812  1
  P  P60  1  0.08565190  0.56839868  0.04165179  1
  P  P61  1  0.91019325  0.01201286  0.06039131  1
  P  P62  1  0.40534760  0.07633320  0.04507445  1
  P  P63  1  0.58924208  0.51207538  0.05945617  1
  P  P64  1  0.08697398  0.20426940  0.14415629  1
  P  P65  1  0.91054061  0.63848916  0.16235308  1
  P  P66  1  0.40918606  0.70260787  0.14445803  1
  P  P67  1  0.58689280  0.14131345  0.16345787  1
  P  P68  1  0.08950959  0.83944893  0.24564078  1
  P  P69  1  0.91219035  0.26384900  0.26361386  1
  P  P70  1  0.41140801  0.33228906  0.24444798  1
  P  P71  1  0.59066549  0.76949365  0.26281315  1
  P  P72  1  0.08882778  0.46328250  0.34527474  1
  P  P73  1  0.91195204  0.89911598  0.36370961  1
  P  P74  1  0.41231552  0.96310730  0.34497397  1
  P  P75  1  0.58927859  0.39928473  0.36364646  1
  P  P76  1  0.08855624  0.08937859  0.44766440  1
  P  P77  1  0.91358686  0.53292966  0.46575881  1
  P  P78  1  0.40997118  0.58993929  0.44830859  1
  P  P79  1  0.59484630  0.02619355  0.46373243  1
  S  S80  1  0.13522283  0.38489177  0.03201921  1
  S  S81  1  0.84550810  0.19643920  0.06863449  1
  S  S82  1  0.34251871  0.17508834  0.07784252  1
  S  S83  1  0.66001320  0.42476934  0.02645733  1
  S  S84  1  0.65268387  0.69263715  0.06910280  1
  S  S85  1  0.34951265  0.89505558  0.03893954  1
  S  S86  1  0.84566350  0.92191115  0.02799694  1
  S  S87  1  0.15839721  0.65359104  0.07487004  1
  S  S88  1  0.06093480  0.05072077  0.05240085  1
  S  S89  1  0.93815343  0.53122382  0.05858441  1
  S  S90  1  0.43911026  0.54295065  0.04832322  1
  S  S91  1  0.55790560  0.04608629  0.05818454  1
  S  S92  1  0.08321341  0.69195292  0.01084187  1
  S  S93  1  0.88331506  0.90084962  0.09447590  1
  S  S94  1  0.39011899  0.18984235  0.01159862  1
  S  S95  1  0.60907290  0.39634959  0.09265906  1
  S  S96  1  0.15251710  0.02615680  0.13581807  1
  S  S97  1  0.84930226  0.81902952  0.17103005  1
  S  S98  1  0.34553582  0.79831257  0.17689323  1
  S  S99  1  0.64839436  0.05504544  0.12977164  1
  S  S100  1  0.65453943  0.31602456  0.17354176  1
  S  S101  1  0.35045474  0.52040800  0.13686117  1
  S  S102  1  0.84600878  0.54559859  0.12962544  1
  S  S103  1  0.14600563  0.29507104  0.17771528  1
  S  S104  1  0.06063304  0.68048183  0.15004041  1
  S  S105  1  0.93556841  0.16275731  0.15383582  1
  S  S106  1  0.43713694  0.18586323  0.15278930  1
  S  S107  1  0.56172825  0.66922012  0.15525347  1
  S  S108  1  0.10886038  0.32633451  0.11172502  1
  S  S109  1  0.90047655  0.52202654  0.19537714  1
  S  S110  1  0.38614694  0.81658542  0.11110230  1
  S  S111  1  0.60341255  0.01538316  0.19570199  1
  S  S112  1  0.15242721  0.66250574  0.23557856  1
  S  S113  1  0.84630896  0.43864396  0.27431737  1
  S  S114  1  0.34854927  0.42136899  0.27766800  1
  S  S115  1  0.65547897  0.67883788  0.22999793  1
  S  S116  1  0.65170352  0.94917540  0.27194105  1
  S  S117  1  0.34592807  0.15545402  0.23466052  1
  S  S118  1  0.84791578  0.17715145  0.23004186  1
  S  S119  1  0.15441474  0.92702076  0.27901461  1
  S  S120  1  0.06200296  0.30703951  0.25269648  1
  S  S121  1  0.93940615  0.79722521  0.25699136  1
  S  S122  1  0.44049483  0.81046472  0.25092688  1
  S  S123  1  0.56140667  0.28856278  0.25562954  1
  S  S124  1  0.10385061  0.96179329  0.21316526  1
  S  S125  1  0.89586745  0.13940868  0.29574176  1
  S  S126  1  0.39602064  0.45521096  0.21203339  1
  S  S127  1  0.60528390  0.64937295  0.29558452  1
  S  S128  1  0.15069253  0.28220418  0.33773558  1
  S  S129  1  0.84693828  0.07710876  0.37249158  1
  S  S130  1  0.35058138  0.04329325  0.37936977  1
  S  S131  1  0.65283187  0.30269789  0.33131033  1
  S  S132  1  0.64854184  0.58158282  0.37100533  1
  S  S133  1  0.34643138  0.78929937  0.33343119  1
  S  S134  1  0.85182277  0.81051538  0.33004659  1
  S  S135  1  0.15359746  0.56105253  0.37723458  1
  S  S136  1  0.06329373  0.94011179  0.35398468  1
  S  S137  1  0.93876121  0.42466219  0.35749506  1
  S  S138  1  0.43708939  0.43287870  0.35279204  1
  S  S139  1  0.56237600  0.91774774  0.35547006  1
  S  S140  1  0.10312273  0.57723739  0.31153943  1
  S  S141  1  0.88982808  0.77591034  0.39598090  1
  S  S142  1  0.39523625  0.09158233  0.31355079  1
  S  S143  1  0.61207965  0.28561992  0.39707550  1
  S  S144  1  0.15390635  0.90538666  0.43937320  1
  S  S145  1  0.86394001  0.71648030  0.47525480  1
  S  S146  1  0.33929866  0.67643294  0.48141809  1
  S  S147  1  0.65722163  0.92850048  0.43075408  1
  S  S148  1  0.65149592  0.20678779  0.47025590  1
  S  S149  1  0.34699918  0.40948775  0.43843204  1
  S  S150  1  0.84167429  0.44733431  0.43245772  1
  S  S151  1  0.15316654  0.18092243  0.47986479  1
  S  S152  1  0.06136202  0.57038459  0.44887168  1
  S  S153  1  0.93821763  0.04978705  0.45582813  1
  S  S154  1  0.44243580  0.05702752  0.45066703  1
  S  S155  1  0.56014088  0.55822940  0.45951375  1
  S  S156  1  0.11480514  0.20010594  0.41347238  1
  S  S157  1  0.91571395  0.40996951  0.49665206  1
  S  S158  1  0.39053912  0.70689337  0.41532041  1
  S  S159  1  0.60999447  0.91055895  0.49691346  1
