# generated using pymatgen
data_Li3PS4
_symmetry_space_group_name_H-M   'P 1'
_cell_length_a   6.25995100
_cell_length_b   8.10679100
_cell_length_c   52.23157800
_cell_angle_alpha   90.00000000
_cell_angle_beta   90.00000000
_cell_angle_gamma   90.00000000
_symmetry_Int_Tables_number   1
_chemical_formula_structural   Li3PS4
_chemical_formula_sum   'Li18 P6 S24'
_cell_volume   2650.65409706
_cell_formula_units_Z   6
loop_
 _symmetry_equiv_pos_site_id
 _symmetry_equiv_pos_as_xyz
  1  'x, y, z'
loop_
 _atom_site_type_symbol
 _atom_site_label
 _atom_site_symmetry_multiplicity
 _atom_site_fract_x
 _atom_site_fract_y
 _atom_site_fract_z
 _atom_site_occupancy
  Li  Li0  1  0.10990465  0.96748525  0.18404423  1
  Li  Li1  1  0.61019139  0.03641427  0.14237169  1
  Li  Li2  1  0.40817005  0.97637770  0.06481969  1
  Li  Li3  1  0.40817223  0.52361689  0.06481768  1
  Li  Li4  1  0.61017416  0.46353784  0.14238134  1
  Li  Li5  1  0.10970982  0.53293475  0.18409313  1
  Li  Li6  1  0.49984084  0.00073672  0.22614942  1
  Li  Li7  1  0.98104338  0.99360074  0.10072410  1
  Li  Li8  1  0.98106680  0.50637872  0.10072559  1
  Li  Li9  1  0.49981511  0.49926966  0.22614722  1
  Li  Li10  1  0.88987289  0.03286787  0.26806038  1
  Li  Li11  1  0.59015190  0.02390250  0.38713882  1
  Li  Li12  1  0.39020547  0.96283330  0.30982602  1
  Li  Li13  1  0.39028090  0.53685152  0.30982824  1
  Li  Li14  1  0.59016945  0.47608211  0.38714152  1
  Li  Li15  1  0.88982405  0.46714999  0.26807977  1
  Li  Li16  1  0.02340557  0.00944790  0.35122572  1
  Li  Li17  1  0.02345228  0.49050842  0.35123880  1
  P  P18  1  0.84632192  0.25001726  0.20351502  1
  P  P19  1  0.15349341  0.75003339  0.24858339  1
  P  P20  1  0.34622146  0.74996599  0.12324912  1
  P  P21  1  0.66394764  0.24999793  0.07782309  1
  P  P22  1  0.33485391  0.74998320  0.37432833  1
  P  P23  1  0.65430489  0.24997786  0.32890157  1
  S  S24  1  0.72873788  0.46357891  0.18752752  1
  S  S25  1  0.22845665  0.53636904  0.13886108  1
  S  S26  1  0.77561837  0.46104318  0.06119711  1
  S  S27  1  0.77562258  0.03896624  0.06119386  1
  S  S28  1  0.22847131  0.96365088  0.13884413  1
  S  S29  1  0.72882295  0.03643653  0.18752882  1
  S  S30  1  0.27303838  0.75011467  0.21115794  1
  S  S31  1  0.72710583  0.25002872  0.24098027  1
  S  S32  1  0.78098634  0.24997341  0.11574139  1
  S  S33  1  0.22662761  0.74998396  0.08555321  1
  S  S34  1  0.17150898  0.25007260  0.20054897  1
  S  S35  1  0.67187002  0.74998394  0.12606268  1
  S  S36  1  0.33473988  0.25000076  0.07664917  1
  S  S37  1  0.27092019  0.53652790  0.26465125  1
  S  S38  1  0.22326194  0.53900177  0.39100691  1
  S  S39  1  0.77188732  0.46346688  0.31326568  1
  S  S40  1  0.77194514  0.03654984  0.31325797  1
  S  S41  1  0.22313787  0.96097992  0.39099095  1
  S  S42  1  0.27100838  0.96346358  0.26466373  1
  S  S43  1  0.77385821  0.24998736  0.36656136  1
  S  S44  1  0.21756701  0.74994622  0.33640639  1
  S  S45  1  0.82830242  0.75005926  0.25147848  1
  S  S46  1  0.66361648  0.74996554  0.37531699  1
  S  S47  1  0.32829405  0.24987712  0.32614227  1
