# generated using pymatgen
data_Li3PS4
_symmetry_space_group_name_H-M   'P 1'
_cell_length_a   6.25995100
_cell_length_b   15.36973200
_cell_length_c   48.21185800
_cell_angle_alpha   90.00000000
_cell_angle_beta   90.00000000
_cell_angle_gamma   90.00000000
_symmetry_Int_Tables_number   1
_chemical_formula_structural   Li3PS4
_chemical_formula_sum   'Li36 P12 S48'
_cell_volume   4638.64457847
_cell_formula_units_Z   12
loop_
 _symmetry_equiv_pos_site_id
 _symmetry_equiv_pos_as_xyz
  1  'x, y, z'
loop_
 _atom_site_type_symbol
 _atom_site_label
 _atom_site_symmetry_multiplicity
 _atom_site_fract_x
 _atom_site_fract_y
 _atom_site_fract_z
 _atom_site_occupancy
  Li  Li0  1  0.92519467  0.90794888  0.13254754  1
  Li  Li1  1  0.09214197  0.72552202  0.08059729  1
  Li  Li2  1  0.37817003  0.27686153  0.01540083  1
  Li  Li3  1  0.56776050  0.53971678  0.09407172  1
  Li  Li4  1  0.64833578  0.39665114  0.12682769  1
  Li  Li5  1  0.38414050  0.16270028  0.08829230  1
  Li  Li6  1  0.87833235  0.08061388  0.06108638  1
  Li  Li7  1  0.55385739  0.82711162  0.09142645  1
  Li  Li8  1  0.05835056  0.30559229  0.10130388  1
  Li  Li9  1  0.89155510  0.62382905  0.27711523  1
  Li  Li10  1  0.10555087  0.40407402  0.22292564  1
  Li  Li11  1  0.39169711  0.04288368  0.14981613  1
  Li  Li12  1  0.58331101  0.25995821  0.21083383  1
  Li  Li13  1  0.60676085  0.14113225  0.26962311  1
  Li  Li14  1  0.39356798  0.88431802  0.23048791  1
  Li  Li15  1  0.10285962  0.52728340  0.15746707  1
  Li  Li16  1  0.90778453  0.78452907  0.19576768  1
  Li  Li17  1  0.49994896  0.51220334  0.25001312  1
  Li  Li18  1  0.95361560  0.16397115  0.17582330  1
  Li  Li19  1  0.99985664  0.01211994  0.24999718  1
  Li  Li20  1  0.53096559  0.65333537  0.17916193  1
  Li  Li21  1  0.91359929  0.30123601  0.42021970  1
  Li  Li22  1  0.07476099  0.11899303  0.36741773  1
  Li  Li23  1  0.41642091  0.76622025  0.28892968  1
  Li  Li24  1  0.60791385  0.98605272  0.35047741  1
  Li  Li25  1  0.61320833  0.86279190  0.41172426  1
  Li  Li26  1  0.34859117  0.62845353  0.37263780  1
  Li  Li27  1  0.09168359  0.24012811  0.30412776  1
  Li  Li28  1  0.89441424  0.49930608  0.34251229  1
  Li  Li29  1  0.44448265  0.20080457  0.40912166  1
  Li  Li30  1  0.05088485  0.86117764  0.32481317  1
  Li  Li31  1  0.94419342  0.72173291  0.39829517  1
  Li  Li32  1  0.46270615  0.37349884  0.32003240  1
  Li  Li33  1  0.44364781  0.48756793  0.40536263  1
  Li  Li34  1  0.62444910  0.74438317  0.48477354  1
  Li  Li35  1  0.12119329  0.94733223  0.43889145  1
  P  P36  1  0.16870877  0.93731822  0.07823699  1
  P  P37  1  0.84454082  0.66471615  0.12662523  1
  P  P38  1  0.65067642  0.30313384  0.06126758  1
  P  P39  1  0.16081879  0.64662112  0.22521234  1
  P  P40  1  0.83938893  0.37903399  0.27484847  1
  P  P41  1  0.65681339  0.01523251  0.20125601  1
  P  P42  1  0.34388272  0.28644809  0.15771897  1
  P  P43  1  0.15585204  0.36270298  0.37336623  1
  P  P44  1  0.83029041  0.09013880  0.42162190  1
  P  P45  1  0.65474699  0.74084955  0.34235122  1
  P  P46  1  0.34267118  0.01050426  0.29873430  1
  P  P47  1  0.35030938  0.72107805  0.43885038  1
  S  S48  1  0.25310559  0.04978477  0.05806581  1
  S  S49  1  0.75990911  0.20442781  0.08667504  1
  S  S50  1  0.25433644  0.39605560  0.13552980  1
  S  S51  1  0.74564913  0.28978726  0.02115744  1
  S  S52  1  0.72529869  0.67984262  0.08678297  1
  S  S53  1  0.30195937  0.92296362  0.11748728  1
  S  S54  1  0.27209638  0.83331085  0.05535651  1
  S  S55  1  0.22450872  0.18214551  0.13516779  1
  S  S56  1  0.77592060  0.41455246  0.07958983  1
  S  S57  1  0.84037245  0.94240506  0.08393694  1
  S  S58  1  0.16847107  0.65112379  0.12457758  1
  S  S59  1  0.31917188  0.30093297  0.06140822  1
  S  S60  1  0.28384856  0.75192772  0.20434953  1
  S  S61  1  0.71000246  0.55492569  0.14475492  1
  S  S62  1  0.77608664  0.90945403  0.22245783  1
  S  S63  1  0.22352782  0.11586992  0.27731304  1
  S  S64  1  0.20725143  0.27490613  0.19622205  1
  S  S65  1  0.77432981  0.02858701  0.16157029  1
  S  S66  1  0.72669953  0.39068979  0.23486811  1
  S  S67  1  0.27285963  0.63471995  0.26520161  1
  S  S68  1  0.74290070  0.76963447  0.14964181  1
  S  S69  1  0.27578295  0.53782568  0.20403048  1
  S  S70  1  0.22797168  0.90201532  0.27701300  1
  S  S71  1  0.77170180  0.12347561  0.22308288  1
  S  S72  1  0.83469280  0.65526782  0.22637281  1
  S  S73  1  0.16560336  0.36978297  0.27348755  1
  S  S74  1  0.33244796  0.00767300  0.19944883  1
  S  S75  1  0.66926516  0.29071972  0.16235014  1
  S  S76  1  0.28879458  0.47197802  0.35477106  1
  S  S77  1  0.71550843  0.27415427  0.29577881  1
  S  S78  1  0.74509667  0.63107734  0.36439968  1
  S  S79  1  0.23850635  0.82133486  0.41413307  1
  S  S80  1  0.22447689  0.99802377  0.33841976  1
  S  S81  1  0.79129172  0.75287586  0.30385382  1
  S  S82  1  0.69730796  0.10616057  0.38245761  1
  S  S83  1  0.27862160  0.34824346  0.41306398  1
  S  S84  1  0.72554671  0.48828169  0.29589146  1
  S  S85  1  0.25552355  0.25750144  0.35028613  1
  S  S86  1  0.22537543  0.61058096  0.41996963  1
  S  S87  1  0.77345806  0.84505194  0.36498289  1
  S  S88  1  0.83227768  0.37616345  0.37595441  1
  S  S89  1  0.15885430  0.08514886  0.41594993  1
  S  S90  1  0.32927756  0.73586730  0.33765316  1
  S  S91  1  0.66688049  0.01818840  0.30062726  1
  S  S92  1  0.74565274  0.97714279  0.44143967  1
  S  S93  1  0.25698001  0.73163299  0.47911181  1
  S  S94  1  0.72859855  0.19351424  0.44490693  1
  S  S95  1  0.68159194  0.72397023  0.43843535  1
