# generated using pymatgen
data_Li3PS4
_symmetry_space_group_name_H-M   'P 1'
_cell_length_a   13.05789500
_cell_length_b   10.24241400
_cell_length_c   49.54702600
_cell_angle_alpha   90.00000000
_cell_angle_beta   90.00000000
_cell_angle_gamma   90.00000000
_symmetry_Int_Tables_number   1
_chemical_formula_structural   Li3PS4
_chemical_formula_sum   'Li60 P20 S80'
_cell_volume   6626.63560723
_cell_formula_units_Z   20
loop_
 _symmetry_equiv_pos_site_id
 _symmetry_equiv_pos_as_xyz
  1  'x, y, z'
loop_
 _atom_site_type_symbol
 _atom_site_label
 _atom_site_symmetry_multiplicity
 _atom_site_fract_x
 _atom_site_fract_y
 _atom_site_fract_z
 _atom_site_occupancy
  Li  Li0  1  0.15921814  0.70655604  0.07796271  1
  Li  Li1  1  0.84558782  0.59547759  0.09153832  1
  Li  Li2  1  0.66884495  0.75710734  0.07395393  1
  Li  Li3  1  0.66662136  0.09311171  0.09729006  1
  Li  Li4  1  0.30404969  0.19748319  0.08220694  1
  Li  Li5  1  0.84368394  0.23888575  0.07383809  1
  Li  Li6  1  0.48408341  0.67089359  0.10543887  1
  Li  Li7  1  0.48986710  0.23637440  0.05168623  1
  Li  Li8  1  0.02216961  0.15249049  0.10523703  1
  Li  Li9  1  0.16427422  0.34418176  0.18174144  1
  Li  Li10  1  0.82920191  0.22574432  0.19561309  1
  Li  Li11  1  0.32745988  0.46434734  0.12691184  1
  Li  Li12  1  0.66776342  0.45754459  0.15289308  1
  Li  Li13  1  0.67142787  0.72553546  0.19560540  1
  Li  Li14  1  0.33641148  0.84205126  0.18215955  1
  Li  Li15  1  0.83761584  0.94791667  0.15335174  1
  Li  Li16  1  0.16569701  0.95369075  0.12868801  1
  Li  Li17  1  0.99605575  0.52449384  0.13843960  1
  Li  Li18  1  0.49573380  0.28765728  0.20176682  1
  Li  Li19  1  0.50129886  0.02026545  0.13969322  1
  Li  Li20  1  0.00441408  0.78755556  0.20231664  1
  Li  Li21  1  0.16229029  0.97328655  0.28136525  1
  Li  Li22  1  0.83342097  0.85086281  0.29597978  1
  Li  Li23  1  0.32900481  0.10808980  0.22780006  1
  Li  Li24  1  0.66767136  0.06647704  0.25608223  1
  Li  Li25  1  0.66428533  0.34637777  0.29967678  1
  Li  Li26  1  0.33705139  0.46916854  0.28370309  1
  Li  Li27  1  0.83457111  0.56537114  0.25656236  1
  Li  Li28  1  0.17110296  0.60182345  0.22858502  1
  Li  Li29  1  0.99067133  0.15097523  0.23932171  1
  Li  Li30  1  0.49401349  0.91063506  0.29776094  1
  Li  Li31  1  0.51122844  0.64252858  0.23926598  1
  Li  Li32  1  0.00655625  0.41535450  0.30253217  1
  Li  Li33  1  0.16398740  0.59929113  0.38238403  1
  Li  Li34  1  0.83091637  0.47826393  0.39789938  1
  Li  Li35  1  0.32843538  0.74603585  0.32691815  1
  Li  Li36  1  0.67691951  0.70820539  0.35471359  1
  Li  Li37  1  0.66340179  0.97690285  0.40084463  1
  Li  Li38  1  0.32957770  0.09274915  0.38608788  1
  Li  Li39  1  0.83689323  0.19146727  0.35723358  1
  Li  Li40  1  0.17118359  0.23171930  0.32893866  1
  Li  Li41  1  0.99352939  0.77663360  0.34025790  1
  Li  Li42  1  0.50653599  0.52752813  0.37962555  1
  Li  Li43  1  0.49133333  0.18418179  0.34289196  1
  Li  Li44  1  0.01288640  0.04791741  0.40552514  1
  Li  Li45  1  0.15103366  0.22765223  0.48569951  1
  Li  Li46  1  0.84105616  0.11850907  0.50248594  1
  Li  Li47  1  0.32951700  0.36816174  0.42861644  1
  Li  Li48  1  0.67029628  0.35826337  0.45581052  1
  Li  Li49  1  0.69378699  0.62413584  0.50107817  1
  Li  Li50  1  0.33504585  0.72611406  0.48676151  1
  Li  Li51  1  0.82846671  0.85348164  0.45506268  1
  Li  Li52  1  0.17530307  0.85197632  0.43054770  1
  Li  Li53  1  0.98835571  0.38491142  0.44138101  1
  Li  Li54  1  0.51608454  0.14899551  0.47711117  1
  Li  Li55  1  0.49621842  0.79995135  0.44282634  1
  Li  Li56  1  0.97759013  0.66927348  0.47915261  1
  Li  Li57  1  0.32964570  0.07381109  0.50796964  1
  Li  Li58  1  0.15794460  0.58273558  0.51069570  1
  Li  Li59  1  0.51076240  0.58053181  0.53163749  1
  P  P60  1  0.08207246  0.43195040  0.08033214  1
  P  P61  1  0.40347524  0.93291951  0.08216500  1
  P  P62  1  0.09046684  0.06206970  0.18237856  1
  P  P63  1  0.91089372  0.86982919  0.09613832  1
  P  P64  1  0.41119839  0.56065359  0.18179278  1
  P  P65  1  0.58907244  0.37048856  0.09687550  1
  P  P66  1  0.08937489  0.69262215  0.28226529  1
  P  P67  1  0.90976436  0.49751777  0.20039932  1
  P  P68  1  0.41026211  0.18921086  0.28209203  1
  P  P69  1  0.59040193  0.99677471  0.20009380  1
  P  P70  1  0.08923911  0.32113334  0.38283912  1
  P  P71  1  0.91105098  0.12420585  0.30079156  1
  P  P72  1  0.41372106  0.81953357  0.38175791  1
  P  P73  1  0.58978440  0.62676183  0.30097544  1
  P  P74  1  0.08988177  0.94982261  0.48489953  1
  P  P75  1  0.91345725  0.75662816  0.40117207  1
  P  P76  1  0.41021827  0.45014142  0.48563274  1
  P  P77  1  0.58933065  0.25713010  0.40106600  1
  P  P78  1  0.91479761  0.39305339  0.50311061  1
  P  P79  1  0.59410888  0.88734595  0.50069145  1
  S  S80  1  0.13212209  0.24796904  0.07140927  1
  S  S81  1  0.66068205  0.28078065  0.06432432  1
  S  S82  1  0.35119992  0.75064711  0.07511180  1
  S  S83  1  0.84345854  0.79173317  0.06270771  1
  S  S84  1  0.06151247  0.91135155  0.08859157  1
  S  S85  1  0.93617370  0.39655492  0.09789636  1
  S  S86  1  0.43849244  0.39977186  0.08589210  1
  S  S87  1  0.55605919  0.90585106  0.09556229  1
  S  S88  1  0.07673950  0.55130795  0.04874684  1
  S  S89  1  0.38717906  0.04900516  0.04907049  1
  S  S90  1  0.15100798  0.87991006  0.17585619  1
  S  S91  1  0.84710328  0.05147803  0.10727371  1
  S  S92  1  0.33732858  0.02698249  0.11505723  1
  S  S93  1  0.65314472  0.91651544  0.16593805  1
  S  S94  1  0.65293310  0.55215389  0.10560628  1
  S  S95  1  0.35059929  0.37979202  0.17418389  1
  S  S96  1  0.84733757  0.41702887  0.16634593  1
  S  S97  1  0.15800509  0.52390861  0.11237253  1
  S  S98  1  0.05995043  0.54306076  0.18986058  1
  S  S99  1  0.93818462  0.02726351  0.19290937  1
  S  S100  1  0.44008470  0.04223702  0.18951724  1
  S  S101  1  0.56347930  0.52667672  0.19253742  1
  S  S102  1  0.11256521  0.17608704  0.14914314  1
  S  S103  1  0.88637133  0.74964312  0.12893383  1
  S  S104  1  0.38931365  0.67643808  0.14864412  1
  S  S105  1  0.60875546  0.25704977  0.13041750  1
  S  S106  1  0.15303262  0.51295008  0.27492032  1
  S  S107  1  0.84376993  0.67159293  0.21202613  1
  S  S108  1  0.34761209  0.65603989  0.21437584  1
  S  S109  1  0.65085947  0.53435481  0.26802483  1
  S  S110  1  0.65581869  0.17112780  0.21159410  1
  S  S111  1  0.34667239  0.01101016  0.27310906  1
  S  S112  1  0.85075118  0.04122906  0.26657707  1
  S  S113  1  0.15322152  0.16070526  0.21473170  1
  S  S114  1  0.06068145  0.17225060  0.29018673  1
  S  S115  1  0.93958814  0.65258934  0.29430464  1
  S  S116  1  0.43985386  0.67121686  0.28974710  1
  S  S117  1  0.56024705  0.14644330  0.29396431  1
  S  S118  1  0.10445433  0.80782293  0.24882044  1
  S  S119  1  0.89432406  0.37053663  0.23221238  1
  S  S120  1  0.39655890  0.31047613  0.24954873  1
  S  S121  1  0.60550130  0.86997908  0.23191272  1
  S  S122  1  0.15070798  0.14043243  0.37495400  1
  S  S123  1  0.84421540  0.29785204  0.31229656  1
  S  S124  1  0.34793868  0.28126035  0.31518447  1
  S  S125  1  0.65275689  0.16090118  0.36869937  1
  S  S126  1  0.65619121  0.80401243  0.31010026  1
  S  S127  1  0.34631795  0.64537437  0.37123530  1
  S  S128  1  0.85503788  0.66596254  0.36760005  1
  S  S129  1  0.15273565  0.79281666  0.31431195  1
  S  S130  1  0.06466695  0.79929419  0.39153944  1
  S  S131  1  0.93926944  0.28182789  0.39505176  1
  S  S132  1  0.43707386  0.29072569  0.39015300  1
  S  S133  1  0.56336588  0.77500304  0.39256536  1
  S  S134  1  0.10432228  0.43678859  0.34937934  1
  S  S135  1  0.89562451  0.99717031  0.33250147  1
  S  S136  1  0.39716515  0.94619537  0.34970716  1
  S  S137  1  0.60507946  0.50634377  0.33379330  1
  S  S138  1  0.15476354  0.76545657  0.47675507  1
  S  S139  1  0.84735760  0.93470362  0.40953443  1
  S  S140  1  0.35162945  0.90396956  0.41562462  1
  S  S141  1  0.65708611  0.78940870  0.46780883  1
  S  S142  1  0.64852701  0.43931758  0.40848526  1
  S  S143  1  0.34700935  0.26937536  0.47600053  1
  S  S144  1  0.84198189  0.30838539  0.46983762  1
  S  S145  1  0.15325867  0.41837152  0.41497947  1
  S  S146  1  0.06220987  0.43072226  0.48611112  1
  S  S147  1  0.93905817  0.91105584  0.49276336  1
  S  S148  1  0.44153746  0.91705330  0.48765409  1
  S  S149  1  0.56063780  0.41978489  0.49664127  1
  S  S150  1  0.11729654  0.06028805  0.45072824  1
  S  S151  1  0.89110937  0.63447147  0.43358216  1
  S  S152  1  0.38962456  0.56610040  0.45253648  1
  S  S153  1  0.61249459  0.14385857  0.43452439  1
  S  S154  1  0.86568124  0.57655158  0.51292312  1
  S  S155  1  0.33998035  0.53656514  0.51882278  1
  S  S156  1  0.64999667  0.06842264  0.50711636  1
  S  S157  1  0.15360429  0.04087758  0.51727653  1
  S  S158  1  0.91727103  0.26894161  0.53381668  1
  S  S159  1  0.60943744  0.77261595  0.53402493  1
