# generated using pymatgen
data_Li3PS4
_symmetry_space_group_name_H-M   'P 1'
_cell_length_a   14.91536200
_cell_length_b   18.09023401
_cell_length_c   48.27647300
_cell_angle_alpha   90.00000000
_cell_angle_beta   90.00000000
_cell_angle_gamma   54.48401034
_symmetry_Int_Tables_number   1
_chemical_formula_structural   Li3PS4
_chemical_formula_sum   'Li108 P36 S144'
_cell_volume   10602.61700474
_cell_formula_units_Z   36
loop_
 _symmetry_equiv_pos_site_id
 _symmetry_equiv_pos_as_xyz
  1  'x, y, z'
loop_
 _atom_site_type_symbol
 _atom_site_label
 _atom_site_symmetry_multiplicity
 _atom_site_fract_x
 _atom_site_fract_y
 _atom_site_fract_z
 _atom_site_occupancy
  Li  Li0  1  0.68854541  0.89569321  0.00919300  1
  Li  Li1  1  0.43339422  0.69003138  0.08883164  1
  Li  Li2  1  0.63478567  0.04539318  0.06183369  1
  Li  Li3  1  0.64425526  0.55890627  0.05851621  1
  Li  Li4  1  0.42668116  0.48159590  0.10866615  1
  Li  Li5  1  0.37216895  0.13618858  0.10731576  1
  Li  Li6  1  0.48353988  0.32571249  0.04925369  1
  Li  Li7  1  0.17694432  0.20583124  0.05479885  1
  Li  Li8  1  0.89343334  0.12246042  0.12120613  1
  Li  Li9  1  0.88845224  0.48686375  0.10225608  1
  Li  Li10  1  0.17796338  0.59434023  0.04185079  1
  Li  Li11  1  0.94315965  0.14349300  0.05851499  1
  Li  Li12  1  0.79902888  0.96286380  0.12086413  1
  Li  Li13  1  0.98235528  0.65507568  0.10000050  1
  Li  Li14  1  0.18141908  0.74903636  0.04913571  1
  Li  Li15  1  0.59885405  0.84439320  0.07228741  1
  Li  Li16  1  0.68406551  0.36906558  0.05271077  1
  Li  Li17  1  0.40264056  0.28866992  0.11654625  1
  Li  Li18  1  0.87214636  0.30617198  0.10995441  1
  Li  Li19  1  0.10075880  0.39206102  0.05130379  1
  Li  Li20  1  0.34320320  0.95499947  0.03207555  1
  Li  Li21  1  0.01893331  0.86059541  0.09424324  1
  Li  Li22  1  0.16478816  0.57260211  0.15491599  1
  Li  Li23  1  0.89162640  0.45956095  0.21590643  1
  Li  Li24  1  0.35092822  0.94752858  0.12279237  1
  Li  Li25  1  0.07186012  0.83670533  0.19097252  1
  Li  Li26  1  0.15069226  0.37568484  0.17266433  1
  Li  Li27  1  0.87591416  0.26809044  0.23705314  1
  Li  Li28  1  0.81828827  0.93357318  0.23524226  1
  Li  Li29  1  0.09257684  0.03886543  0.17286809  1
  Li  Li30  1  0.61400157  0.02022220  0.18247099  1
  Li  Li31  1  0.34097474  0.91082133  0.24430309  1
  Li  Li32  1  0.33838939  0.27361690  0.22935386  1
  Li  Li33  1  0.61992975  0.37989401  0.16565772  1
  Li  Li34  1  0.54543403  0.84940563  0.18057080  1
  Li  Li35  1  0.25496308  0.75120427  0.24606624  1
  Li  Li36  1  0.42503794  0.44423361  0.22399611  1
  Li  Li37  1  0.68399794  0.56071562  0.16337448  1
  Li  Li38  1  0.93411009  0.66267846  0.20337049  1
  Li  Li39  1  0.29065898  0.75476411  0.14237461  1
  Li  Li40  1  0.10844614  0.22550097  0.16390312  1
  Li  Li41  1  0.83417398  0.12021988  0.22690263  1
  Li  Li42  1  0.30755085  0.09441240  0.23203044  1
  Li  Li43  1  0.59008768  0.20024198  0.17088520  1
  Li  Li44  1  0.76211444  0.76053653  0.13029604  1
  Li  Li45  1  0.48138157  0.64168499  0.21535673  1
  Li  Li46  1  0.60893156  0.35921239  0.28117543  1
  Li  Li47  1  0.34070034  0.24410020  0.34108277  1
  Li  Li48  1  0.78507005  0.73888671  0.25596674  1
  Li  Li49  1  0.51944088  0.62444878  0.31505739  1
  Li  Li50  1  0.60473059  0.15924037  0.29835764  1
  Li  Li51  1  0.32284611  0.04755696  0.36015856  1
  Li  Li52  1  0.26081075  0.71295156  0.35908329  1
  Li  Li53  1  0.52867598  0.83172414  0.29894577  1
  Li  Li54  1  0.06052232  0.80462816  0.30880393  1
  Li  Li55  1  0.79119699  0.69556669  0.36911172  1
  Li  Li56  1  0.78532111  0.06151021  0.35497213  1
  Li  Li57  1  0.06826961  0.16725097  0.29087810  1
  Li  Li58  1  0.99160464  0.63586187  0.30761827  1
  Li  Li59  1  0.70035940  0.53572208  0.37299086  1
  Li  Li60  1  0.86947854  0.22948022  0.35081139  1
  Li  Li61  1  0.13611639  0.34485637  0.28920641  1
  Li  Li62  1  0.38262683  0.44831746  0.32819993  1
  Li  Li63  1  0.74450445  0.53400559  0.26962291  1
  Li  Li64  1  0.55477144  0.01377623  0.28901435  1
  Li  Li65  1  0.29522825  0.86558740  0.36746226  1
  Li  Li66  1  0.75155093  0.88251403  0.35825199  1
  Li  Li67  1  0.03795950  0.98771658  0.29628101  1
  Li  Li68  1  0.19965697  0.55409228  0.25612449  1
  Li  Li69  1  0.92918769  0.42571686  0.34170130  1
  Li  Li70  1  0.05748232  0.14671807  0.40474904  1
  Li  Li71  1  0.77882921  0.03207555  0.47352787  1
  Li  Li72  1  0.23454234  0.52176190  0.38137576  1
  Li  Li73  1  0.96343946  0.40963083  0.44167360  1
  Li  Li74  1  0.04179661  0.94902228  0.42403534  1
  Li  Li75  1  0.76693731  0.84154208  0.48834167  1
  Li  Li76  1  0.69987379  0.50062831  0.48763874  1
  Li  Li77  1  0.98196209  0.61311944  0.42498484  1
  Li  Li78  1  0.50353041  0.60268608  0.43208699  1
  Li  Li79  1  0.24005199  0.48287436  0.49694857  1
  Li  Li80  1  0.23779188  0.85015742  0.47496014  1
  Li  Li81  1  0.51274197  0.95848017  0.41638873  1
  Li  Li82  1  0.44487842  0.42190013  0.43348417  1
  Li  Li83  1  0.14881832  0.32236652  0.49642538  1
  Li  Li84  1  0.32853969  0.01866546  0.47615732  1
  Li  Li85  1  0.58066225  0.13268647  0.41636982  1
  Li  Li86  1  0.83921867  0.22580876  0.45493516  1
  Li  Li87  1  0.19297963  0.31909761  0.39389603  1
  Li  Li88  1  0.00036368  0.80120833  0.41501040  1
  Li  Li89  1  0.72594094  0.69151017  0.47986171  1
  Li  Li90  1  0.20482162  0.66789001  0.48242173  1
  Li  Li91  1  0.53044997  0.78081893  0.42625258  1
  Li  Li92  1  0.64766806  0.33859156  0.38179285  1
  Li  Li93  1  0.36643221  0.22118186  0.46658757  1
  Li  Li94  1  0.49495775  0.93601573  0.53414982  1
  Li  Li95  1  0.69620116  0.29013255  0.50793160  1
  Li  Li96  1  0.44055881  0.08781576  0.58657716  1
  Li  Li97  1  0.64463799  0.65610384  0.54678675  1
  Li  Li98  1  0.48209807  0.42285806  0.53666720  1
  Li  Li99  1  0.95049402  0.38691681  0.55364887  1
  Li  Li100  1  0.95242316  0.77072062  0.54339207  1
  Li  Li101  1  0.94865585  0.23124620  0.54775573  1
  Li  Li102  1  0.19167439  0.83181906  0.53701458  1
  Li  Li103  1  0.53319096  0.13269970  0.52366060  1
  Li  Li104  1  0.44541607  0.61076487  0.54247167  1
  Li  Li105  1  0.02555096  0.58706614  0.54635543  1
  Li  Li106  1  0.10962543  0.11880279  0.50219544  1
  Li  Li107  1  0.78897318  0.02329913  0.56456403  1
  P  P108  1  0.59839571  0.70397353  0.11792472  1
  P  P109  1  0.88446684  0.80677830  0.05737386  1
  P  P110  1  0.47481832  0.02018469  0.03433683  1
  P  P111  1  0.18191132  0.92481817  0.09752411  1
  P  P112  1  0.13762436  0.39511517  0.11102486  1
  P  P113  1  0.41768013  0.51079784  0.04394227  1
  P  P114  1  0.93333162  0.30995612  0.04793762  1
  P  P115  1  0.64906547  0.22261244  0.10878063  1
  P  P116  1  0.04100635  0.49297367  0.24525988  1
  P  P117  1  0.32559801  0.59760127  0.18321843  1
  P  P118  1  0.90846144  0.81176512  0.16296949  1
  P  P119  1  0.63730600  0.70384659  0.22625304  1
  P  P120  1  0.58431887  0.18567344  0.23675684  1
  P  P121  1  0.86134628  0.29116901  0.17538735  1
  P  P122  1  0.37065973  0.11883252  0.17007291  1
  P  P123  1  0.09735151  0.01036008  0.23459881  1
  P  P124  1  0.48939315  0.27837709  0.37084126  1
  P  P125  1  0.77277581  0.38232119  0.31021467  1
  P  P126  1  0.35690321  0.59777487  0.28675756  1
  P  P127  1  0.08590711  0.48834951  0.35170586  1
  P  P128  1  0.03187948  0.96939298  0.36268114  1
  P  P129  1  0.30803776  0.07875524  0.29860976  1
  P  P130  1  0.81977918  0.90400508  0.29731384  1
  P  P131  1  0.54694522  0.79457836  0.36069689  1
  P  P132  1  0.94795669  0.05441750  0.49888913  1
  P  P133  1  0.22121112  0.16882975  0.43362134  1
  P  P134  1  0.80117417  0.38373289  0.41388364  1
  P  P135  1  0.53110533  0.27608778  0.47871883  1
  P  P136  1  0.47894995  0.75945225  0.48809577  1
  P  P137  1  0.75549509  0.86325603  0.42554747  1
  P  P138  1  0.26308217  0.69258683  0.42041371  1
  P  P139  1  0.99319061  0.58297969  0.48667498  1
  P  P140  1  0.65574978  0.95970333  0.56215443  1
  P  P141  1  0.24469615  0.17314729  0.53920665  1
  P  P142  1  0.19506356  0.66763842  0.54839989  1
  P  P143  1  0.71003940  0.47106992  0.55223099  1
  S  S144  1  0.05041663  0.72307872  0.07133606  1
  S  S145  1  0.31307503  0.09798046  0.02298928  1
  S  S146  1  0.01660281  0.00120836  0.08778209  1
  S  S147  1  0.03312542  0.50456209  0.08540313  1
  S  S148  1  0.30563102  0.62066134  0.02035655  1
  S  S149  1  0.02904324  0.21144826  0.07735838  1
  S  S150  1  0.85402497  0.27108949  0.02476971  1
  S  S151  1  0.55819033  0.20186247  0.08188723  1
  S  S152  1  0.50193474  0.53496635  0.07318037  1
  S  S153  1  0.50163292  0.01418799  0.07689761  1
  S  S154  1  0.57891191  0.70873532  0.07543900  1
  S  S155  1  0.88313902  0.79890691  0.01607078  1
  S  S156  1  0.53730829  0.88684233  0.02327448  1
  S  S157  1  0.23519356  0.79155880  0.08909874  1
  S  S158  1  0.83153616  0.93483558  0.07118308  1
  S  S159  1  0.81404256  0.42357151  0.07187603  1
  S  S160  1  0.24790390  0.28872323  0.08458223  1
  S  S161  1  0.53322258  0.40403980  0.02047639  1
  S  S162  1  0.80833181  0.75516081  0.07684767  1
  S  S163  1  0.26589513  0.96567903  0.07783824  1
  S  S164  1  0.56498284  0.05760633  0.01546456  1
  S  S165  1  0.33268168  0.47299870  0.06742119  1
  S  S166  1  0.02981753  0.33010141  0.02409574  1
  S  S167  1  0.75186324  0.24475963  0.08840163  1
  S  S168  1  0.75905911  0.61946094  0.13100527  1
  S  S169  1  0.48924570  0.51353909  0.19423751  1
  S  S170  1  0.74399785  0.89205465  0.15251713  1
  S  S171  1  0.47581365  0.78533712  0.21368324  1
  S  S172  1  0.47910883  0.29290595  0.21085423  1
  S  S173  1  0.76027085  0.40049077  0.14981115  1
  S  S174  1  0.46419834  0.01034992  0.19619633  1
  S  S175  1  0.74124196  0.11534056  0.13545615  1
  S  S176  1  0.28184735  0.10171102  0.14159477  1
  S  S177  1  0.00885185  0.99195998  0.20609862  1
  S  S178  1  0.23016166  0.41706230  0.13669404  1
  S  S179  1  0.95895427  0.30651819  0.20110864  1
  S  S180  1  0.93938457  0.80089652  0.20465772  1
  S  S181  1  0.21479569  0.91973754  0.13931967  1
  S  S182  1  0.01557271  0.49948765  0.20305562  1
  S  S183  1  0.29717563  0.60774446  0.14123923  1
  S  S184  1  0.96328128  0.68141639  0.15047359  1
  S  S185  1  0.69061245  0.57299362  0.21494089  1
  S  S186  1  0.55067577  0.83314553  0.12887031  1
  S  S187  1  0.27438696  0.72747719  0.19522343  1
  S  S188  1  0.25513890  0.22513969  0.19549693  1
  S  S189  1  0.53238065  0.33150067  0.13358634  1
  S  S190  1  0.69715681  0.08045388  0.21028383  1
  S  S191  1  0.97259023  0.18565069  0.14895000  1
  S  S192  1  0.24296851  0.55127472  0.20141339  1
  S  S193  1  0.51125783  0.66156800  0.13603352  1
  S  S194  1  0.71843046  0.75097199  0.20765509  1
  S  S195  1  0.98511927  0.86397676  0.14514299  1
  S  S196  1  0.04002216  0.37425109  0.13448724  1
  S  S197  1  0.76392371  0.26882002  0.19839917  1
  S  S198  1  0.47381062  0.14016913  0.14855626  1
  S  S199  1  0.19843848  0.03166232  0.21285077  1
  S  S200  1  0.20343021  0.41124117  0.25685504  1
  S  S201  1  0.93636526  0.29718086  0.32122927  1
  S  S202  1  0.19219403  0.68258346  0.27654352  1
  S  S203  1  0.92423985  0.56902341  0.33936308  1
  S  S204  1  0.92879004  0.07727047  0.33687217  1
  S  S205  1  0.20716705  0.18909210  0.27314721  1
  S  S206  1  0.90947815  0.79489504  0.32354951  1
  S  S207  1  0.19082793  0.90336122  0.26128723  1
  S  S208  1  0.72967013  0.89046456  0.26800524  1
  S  S209  1  0.45436614  0.77755996  0.33351307  1
  S  S210  1  0.67899849  0.20559065  0.26212442  1
  S  S211  1  0.40499272  0.09313656  0.32508766  1
  S  S212  1  0.38882561  0.58628694  0.32844987  1
  S  S213  1  0.65971756  0.69899587  0.26854518  1
  S  S214  1  0.46603686  0.28413080  0.32853373  1
  S  S215  1  0.74386818  0.39303341  0.26828462  1
  S  S216  1  0.40705248  0.46863949  0.27448263  1
  S  S217  1  0.13938815  0.35745940  0.34050057  1
  S  S218  1  0.98792018  0.62374822  0.25655023  1
  S  S219  1  0.72183940  0.51183470  0.32238365  1
  S  S220  1  0.70267621  0.01102235  0.32246668  1
  S  S221  1  0.97989596  0.11747999  0.25964374  1
  S  S222  1  0.14601724  0.86388125  0.33672586  1
  S  S223  1  0.42107423  0.97440797  0.27174402  1
  S  S224  1  0.68888099  0.33644423  0.32802957  1
  S  S225  1  0.96009775  0.44585625  0.26390444  1
  S  S226  1  0.16685714  0.53552523  0.33302701  1
  S  S227  1  0.43804682  0.64548639  0.26847790  1
  S  S228  1  0.48974920  0.16152914  0.26022750  1
  S  S229  1  0.21519681  0.05140276  0.32089762  1
  S  S230  1  0.92325147  0.92440360  0.27646976  1
  S  S231  1  0.64511855  0.81740254  0.33827711  1
  S  S232  1  0.65093374  0.19654004  0.38319989  1
  S  S233  1  0.38459312  0.08947644  0.44488194  1
  S  S234  1  0.63686436  0.46742676  0.40335740  1
  S  S235  1  0.37052636  0.36093785  0.46553385  1
  S  S236  1  0.38455200  0.86733093  0.46165593  1
  S  S237  1  0.65491869  0.97366168  0.40026386  1
  S  S238  1  0.35849992  0.58435856  0.44656049  1
  S  S239  1  0.64477418  0.68652087  0.38698344  1
  S  S240  1  0.17157747  0.67569698  0.39258193  1
  S  S241  1  0.90129520  0.56492716  0.45949239  1
  S  S242  1  0.12272465  0.99125391  0.38912908  1
  S  S243  1  0.84954521  0.87963154  0.45211294  1
  S  S244  1  0.83144497  0.37337378  0.45572748  1
  S  S245  1  0.10872024  0.48331693  0.39394377  1
  S  S246  1  0.91233310  0.06195669  0.45716004  1
  S  S247  1  0.19413251  0.17794430  0.39170783  1
  S  S248  1  0.85338771  0.25383838  0.40163925  1
  S  S249  1  0.57880781  0.14681837  0.46780398  1
  S  S250  1  0.43632591  0.40914175  0.38213218  1
  S  S251  1  0.16512907  0.29975450  0.44594500  1
  S  S252  1  0.14801675  0.79859327  0.44600286  1
  S  S253  1  0.43209794  0.90125170  0.38638036  1
  S  S254  1  0.59520327  0.65104680  0.46282044  1
  S  S255  1  0.86694087  0.75845119  0.39907261  1
  S  S256  1  0.14319436  0.11727281  0.45099468  1
  S  S257  1  0.40797985  0.23133468  0.38922497  1
  S  S258  1  0.61798838  0.31866320  0.46058443  1
  S  S259  1  0.88251977  0.43113116  0.39548450  1
  S  S260  1  0.93436449  0.94653730  0.38551111  1
  S  S261  1  0.65726891  0.83981216  0.44841198  1
  S  S262  1  0.36354316  0.71542963  0.39895528  1
  S  S263  1  0.09481570  0.60113263  0.46412242  1
  S  S264  1  0.11368011  0.97695030  0.50780224  1
  S  S265  1  0.81634006  0.88183647  0.57444874  1
  S  S266  1  0.07907056  0.25626425  0.52498727  1
  S  S267  1  0.09452506  0.77027858  0.52032868  1
  S  S268  1  0.82282388  0.36145531  0.57582355  1
  S  S269  1  0.09026888  0.47300901  0.51291596  1
  S  S270  1  0.62586129  0.44626200  0.52306949  1
  S  S271  1  0.57148927  0.78006326  0.51440260  1
  S  S272  1  0.27753145  0.70437834  0.57108638  1
  S  S273  1  0.24550329  0.18181203  0.58047464  1
  S  S274  1  0.55018818  0.27145115  0.52114172  1
  S  S275  1  0.63306812  0.96265389  0.51940141  1
  S  S276  1  0.29717757  0.04510184  0.52555178  1
  S  S277  1  0.89504871  0.18745033  0.50785163  1
  S  S278  1  0.59404926  0.09334109  0.57260281  1
  S  S279  1  0.59446354  0.57799355  0.57554389  1
  S  S280  1  0.88191816  0.69082280  0.51255802  1
  S  S281  1  0.30949675  0.55596818  0.52336504  1
  S  S282  1  0.56222550  0.92524105  0.58072747  1
  S  S283  1  0.86394508  0.01338249  0.51842921  1
  S  S284  1  0.32220901  0.22367682  0.51977063  1
  S  S285  1  0.37865778  0.73427985  0.50766786  1
  S  S286  1  0.10122456  0.64613742  0.57302529  1
  S  S287  1  0.79478899  0.50866834  0.52855455  1
