# generated using pymatgen
data_Li3PS4
_symmetry_space_group_name_H-M   'P 1'
_cell_length_a   6.25995100
_cell_length_b   20.81799400
_cell_length_c   50.84910000
_cell_angle_alpha   90.00000000
_cell_angle_beta   90.00000000
_cell_angle_gamma   90.00000000
_symmetry_Int_Tables_number   1
_chemical_formula_structural   Li3PS4
_chemical_formula_sum   'Li60 P20 S80'
_cell_volume   6626.63550926
_cell_formula_units_Z   20
loop_
 _symmetry_equiv_pos_site_id
 _symmetry_equiv_pos_as_xyz
  1  'x, y, z'
loop_
 _atom_site_type_symbol
 _atom_site_label
 _atom_site_symmetry_multiplicity
 _atom_site_fract_x
 _atom_site_fract_y
 _atom_site_fract_z
 _atom_site_occupancy
  Li  Li0  1  0.87581901  0.69295007  0.10187568  1
  Li  Li1  1  0.07695705  0.27502881  0.12728367  1
  Li  Li2  1  0.06029478  0.58751808  0.03331115  1
  Li  Li3  1  0.41240872  0.09555484  0.03734147  1
  Li  Li4  1  0.37522323  0.77493440  0.13206200  1
  Li  Li5  1  0.57183920  0.19400762  0.10229316  1
  Li  Li6  1  0.61172950  0.35850103  0.05045360  1
  Li  Li7  1  0.62497725  0.05712412  0.14701542  1
  Li  Li8  1  0.41951365  0.59788653  0.18711608  1
  Li  Li9  1  0.42127797  0.90596098  0.08825152  1
  Li  Li10  1  0.13204681  0.40632459  0.08448477  1
  Li  Li11  1  0.12493610  0.10743429  0.18759521  1
  Li  Li12  1  0.91378850  0.56135124  0.14726028  1
  Li  Li13  1  0.96280223  0.87838184  0.05447620  1
  Li  Li14  1  0.42913748  0.31142212  0.17035367  1
  Li  Li15  1  0.43302691  0.60999302  0.07312737  1
  Li  Li16  1  0.93556276  0.15627232  0.05829800  1
  Li  Li17  1  0.93112773  0.85053968  0.16335148  1
  Li  Li18  1  0.07258934  0.00456528  0.11041267  1
  Li  Li19  1  0.56513705  0.46751214  0.12427288  1
  Li  Li20  1  0.56581924  0.75312279  0.03029629  1
  Li  Li21  1  0.87043530  0.08455659  0.30365884  1
  Li  Li22  1  0.87183951  0.38688779  0.20255002  1
  Li  Li23  1  0.08210275  0.66784530  0.33027594  1
  Li  Li24  1  0.08268566  0.97170533  0.22961855  1
  Li  Li25  1  0.37072633  0.46952774  0.23192639  1
  Li  Li26  1  0.37272270  0.16740735  0.33313593  1
  Li  Li27  1  0.58256871  0.88594668  0.20594798  1
  Li  Li28  1  0.58023388  0.58115704  0.30638779  1
  Li  Li29  1  0.62956772  0.75137318  0.24783100  1
  Li  Li30  1  0.62268908  0.44808198  0.34838284  1
  Li  Li31  1  0.41773359  0.99268880  0.38839477  1
  Li  Li32  1  0.41397008  0.29599805  0.28828510  1
  Li  Li33  1  0.12625531  0.80189507  0.28805321  1
  Li  Li34  1  0.12476192  0.49760387  0.38898921  1
  Li  Li35  1  0.91847750  0.95624940  0.34867520  1
  Li  Li36  1  0.91532247  0.25854104  0.24790779  1
  Li  Li37  1  0.43164284  0.70365516  0.37247468  1
  Li  Li38  1  0.43215594  0.00936530  0.27177712  1
  Li  Li39  1  0.93388243  0.54465861  0.26446562  1
  Li  Li40  1  0.92866465  0.24308398  0.36538551  1
  Li  Li41  1  0.06998134  0.69162807  0.21086125  1
  Li  Li42  1  0.06348338  0.38741388  0.31219410  1
  Li  Li43  1  0.56425828  0.86307770  0.32473113  1
  Li  Li44  1  0.56338607  0.16671863  0.22396732  1
  Li  Li45  1  0.91383563  0.45737052  0.49834724  1
  Li  Li46  1  0.87640425  0.77869272  0.40383900  1
  Li  Li47  1  0.06963299  0.36075580  0.43363621  1
  Li  Li48  1  0.37829047  0.86085256  0.43364441  1
  Li  Li49  1  0.57583315  0.27980121  0.40809273  1
  Li  Li50  1  0.56213345  0.96671765  0.50252986  1
  Li  Li51  1  0.63099065  0.14738769  0.45068664  1
  Li  Li52  1  0.46221912  0.67588271  0.48218578  1
  Li  Li53  1  0.11473304  0.19575415  0.48491216  1
  Li  Li54  1  0.91973747  0.64698301  0.44778622  1
  Li  Li55  1  0.43458342  0.39746440  0.47741903  1
  Li  Li56  1  0.93538847  0.94419847  0.46249180  1
  Li  Li57  1  0.06480347  0.08821536  0.41114574  1
  Li  Li58  1  0.06696325  0.80113950  0.50587138  1
  Li  Li59  1  0.57058297  0.54889982  0.42600522  1
  P  P60  1  0.15669265  0.44126762  0.15941385  1
  P  P61  1  0.16961570  0.74741399  0.05787133  1
  P  P62  1  0.83828586  0.52469565  0.07426238  1
  P  P63  1  0.83720224  0.21985857  0.17418632  1
  P  P64  1  0.66132733  0.71948464  0.17429727  1
  P  P65  1  0.66441628  0.02531559  0.07514432  1
  P  P66  1  0.32343468  0.24738223  0.05560180  1
  P  P67  1  0.34218927  0.94182293  0.16047309  1
  P  P68  1  0.15952754  0.83455129  0.36159364  1
  P  P69  1  0.15803588  0.13807591  0.26082717  1
  P  P70  1  0.84101976  0.91591591  0.27554817  1
  P  P71  1  0.83974041  0.61203782  0.37577945  1
  P  P72  1  0.65790336  0.11339208  0.37603790  1
  P  P73  1  0.65720304  0.41625881  0.27515399  1
  P  P74  1  0.34177297  0.63823372  0.26043754  1
  P  P75  1  0.33740247  0.33495158  0.36176169  1
  P  P76  1  0.16448900  0.52878096  0.46104196  1
  P  P77  1  0.82289398  0.30644122  0.47997950  1
  P  P78  1  0.67058506  0.80678737  0.47815837  1
  P  P79  1  0.33905832  0.02905825  0.46137533  1
  S  S80  1  0.28966702  0.52932623  0.15101473  1
  S  S81  1  0.32109185  0.83368499  0.04987792  1
  S  S82  1  0.74349277  0.43306916  0.08379045  1
  S  S83  1  0.73716779  0.12821271  0.18333122  1
  S  S84  1  0.79573313  0.63212965  0.18296358  1
  S  S85  1  0.79067066  0.93812757  0.08728313  1
  S  S86  1  0.23634253  0.34047186  0.04741350  1
  S  S87  1  0.23894372  0.03346658  0.15210595  1
  S  S88  1  0.19474656  0.21048432  0.09016305  1
  S  S89  1  0.20694261  0.90188282  0.19348689  1
  S  S90  1  0.76293284  0.76015026  0.13938064  1
  S  S91  1  0.77580394  0.05531048  0.03965443  1
  S  S92  1  0.69786572  0.56090658  0.04112484  1
  S  S93  1  0.70091875  0.25863912  0.14105152  1
  S  S94  1  0.25919303  0.40131777  0.19424591  1
  S  S95  1  0.26590274  0.70661216  0.09267986  1
  S  S96  1  0.73369479  0.58273843  0.10515366  1
  S  S97  1  0.26699765  0.38064263  0.12989532  1
  S  S98  1  0.25059634  0.68787587  0.02713266  1
  S  S99  1  0.21912390  0.18907890  0.02596377  1
  S  S100  1  0.23263590  0.88461642  0.12961473  1
  S  S101  1  0.76491087  0.08919444  0.10383870  1
  S  S102  1  0.83124585  0.45105838  0.16216507  1
  S  S103  1  0.84763030  0.76658568  0.06164174  1
  S  S104  1  0.16441049  0.52083091  0.06899581  1
  S  S105  1  0.16200992  0.21626330  0.16928688  1
  S  S106  1  0.33627862  0.70916440  0.17166538  1
  S  S107  1  0.33727367  0.01526076  0.07188113  1
  S  S108  1  0.65296273  0.24777826  0.06044698  1
  S  S109  1  0.66665866  0.94617192  0.16510637  1
  S  S110  1  0.29432320  0.92196182  0.35299411  1
  S  S111  1  0.29156811  0.22574988  0.25220645  1
  S  S112  1  0.73941942  0.82417020  0.28418280  1
  S  S113  1  0.73833895  0.52029426  0.38432823  1
  S  S114  1  0.79317863  0.02576219  0.38466111  1
  S  S115  1  0.78989485  0.32851783  0.28387008  1
  S  S116  1  0.24207101  0.73014173  0.25172683  1
  S  S117  1  0.23641831  0.42647578  0.35265826  1
  S  S118  1  0.20624985  0.59948182  0.29366366  1
  S  S119  1  0.20067374  0.29621437  0.39485830  1
  S  S120  1  0.75989474  0.15332082  0.34119422  1
  S  S121  1  0.75910875  0.45599768  0.24021742  1
  S  S122  1  0.70685876  0.95498535  0.24232324  1
  S  S123  1  0.70497114  0.65125575  0.34259705  1
  S  S124  1  0.26232760  0.79381556  0.39643133  1
  S  S125  1  0.25848079  0.09818272  0.29580057  1
  S  S126  1  0.72932697  0.97304493  0.30627846  1
  S  S127  1  0.72778326  0.27677167  0.20514430  1
  S  S128  1  0.26970778  0.77321097  0.33226427  1
  S  S129  1  0.26990950  0.07687858  0.23147878  1
  S  S130  1  0.23031024  0.58122193  0.22967831  1
  S  S131  1  0.22795772  0.27773709  0.33086381  1
  S  S132  1  0.77128940  0.78083627  0.20363044  1
  S  S133  1  0.77006903  0.47725159  0.30455232  1
  S  S134  1  0.83481093  0.84471535  0.36415868  1
  S  S135  1  0.83259628  0.14766167  0.26296913  1
  S  S136  1  0.16617924  0.91243265  0.27106328  1
  S  S137  1  0.16448129  0.60810466  0.37114578  1
  S  S138  1  0.33288050  0.10260584  0.37326387  1
  S  S139  1  0.33177453  0.40721825  0.27297894  1
  S  S140  1  0.66669664  0.64138002  0.26511580  1
  S  S141  1  0.66223095  0.33874330  0.36648876  1
  S  S142  1  0.29065758  0.61614044  0.44921327  1
  S  S143  1  0.73809875  0.21309011  0.48787751  1
  S  S144  1  0.82180736  0.72051798  0.48619064  1
  S  S145  1  0.24328932  0.12065269  0.45173388  1
  S  S146  1  0.19882715  0.99296649  0.49452167  1
  S  S147  1  0.76692486  0.84734958  0.44330116  1
  S  S148  1  0.69349240  0.34347768  0.44549736  1
  S  S149  1  0.27635601  0.49819786  0.49640666  1
  S  S150  1  0.71821220  0.36434692  0.50971014  1
  S  S151  1  0.73054831  0.66951797  0.40652731  1
  S  S152  1  0.26431468  0.46531147  0.43215383  1
  S  S153  1  0.23609820  0.97088803  0.43047563  1
  S  S154  1  0.76594755  0.17450748  0.40551829  1
  S  S155  1  0.75188383  0.86643722  0.50886077  1
  S  S156  1  0.83725072  0.53860802  0.46433216  1
  S  S157  1  0.15258555  0.30663894  0.47513070  1
  S  S158  1  0.34855371  0.78780353  0.47454559  1
  S  S159  1  0.66503478  0.03335451  0.46670465  1
