# generated using pymatgen
data_Li3PS4
_symmetry_space_group_name_H-M   'P 1'
_cell_length_a   13.05789500
_cell_length_b   14.91536200
_cell_length_c   47.63368400
_cell_angle_alpha   90.00000000
_cell_angle_beta   90.00000000
_cell_angle_gamma   90.00000000
_symmetry_Int_Tables_number   1
_chemical_formula_structural   Li3PS4
_chemical_formula_sum   'Li84 P28 S112'
_cell_volume   9277.29019470
_cell_formula_units_Z   28
loop_
 _symmetry_equiv_pos_site_id
 _symmetry_equiv_pos_as_xyz
  1  'x, y, z'
loop_
 _atom_site_type_symbol
 _atom_site_label
 _atom_site_symmetry_multiplicity
 _atom_site_fract_x
 _atom_site_fract_y
 _atom_site_fract_z
 _atom_site_occupancy
  Li  Li0  1  0.15968128  0.30957346  0.13505086  1
  Li  Li1  1  0.18699189  0.65607206  0.06378756  1
  Li  Li2  1  0.84200972  0.56818479  0.06839666  1
  Li  Li3  1  0.84542124  0.16794355  0.15850406  1
  Li  Li4  1  0.31652254  0.44611041  0.08804046  1
  Li  Li5  1  0.66807599  0.43171584  0.11050519  1
  Li  Li6  1  0.66078244  0.69275224  0.05322626  1
  Li  Li7  1  0.66900021  0.90889245  0.09439138  1
  Li  Li8  1  0.28726992  0.49410244  0.01301677  1
  Li  Li9  1  0.33277633  0.99176793  0.09150458  1
  Li  Li10  1  0.81240300  0.39948455  0.01684110  1
  Li  Li11  1  0.78781493  0.20013949  0.10283714  1
  Li  Li12  1  0.16613289  0.79714770  0.12037402  1
  Li  Li13  1  0.00390864  0.40322220  0.09629403  1
  Li  Li14  1  0.01393517  0.71419432  0.03150081  1
  Li  Li15  1  0.47246129  0.60155647  0.07723170  1
  Li  Li16  1  0.51347832  0.28348781  0.12778822  1
  Li  Li17  1  0.50471668  0.80640558  0.13510937  1
  Li  Li18  1  0.53126542  0.17303901  0.06863598  1
  Li  Li19  1  0.99754298  0.95326130  0.10007973  1
  Li  Li20  1  0.15826522  0.62273550  0.27323973  1
  Li  Li21  1  0.17883963  0.96721214  0.20228702  1
  Li  Li22  1  0.82563681  0.87662234  0.20739388  1
  Li  Li23  1  0.83984916  0.52585950  0.28314982  1
  Li  Li24  1  0.32886712  0.76484948  0.22989425  1
  Li  Li25  1  0.33748079  0.13352908  0.15674989  1
  Li  Li26  1  0.66521551  0.71736629  0.25438554  1
  Li  Li27  1  0.65334751  0.06009542  0.18296250  1
  Li  Li28  1  0.65621385  0.55723623  0.17261667  1
  Li  Li29  1  0.67487524  0.20219904  0.24611157  1
  Li  Li30  1  0.33614959  0.64862405  0.16668213  1
  Li  Li31  1  0.33017719  0.29448621  0.24018478  1
  Li  Li32  1  0.83149331  0.74891585  0.14558520  1
  Li  Li33  1  0.82484437  0.41118559  0.21871054  1
  Li  Li34  1  0.16714621  0.44829817  0.19386623  1
  Li  Li35  1  0.15893817  0.10644088  0.26554303  1
  Li  Li36  1  0.98902781  0.77978203  0.24440994  1
  Li  Li37  1  0.01709697  0.05156329  0.16633185  1
  Li  Li38  1  0.48723954  0.91519680  0.21781884  1
  Li  Li39  1  0.49283202  0.56874453  0.28809205  1
  Li  Li40  1  0.50668588  0.10184133  0.27972585  1
  Li  Li41  1  0.49359172  0.39892622  0.20512576  1
  Li  Li42  1  0.00022824  0.59275848  0.17463345  1
  Li  Li43  1  0.98899366  0.25608207  0.22974487  1
  Li  Li44  1  0.15613679  0.98003981  0.39799094  1
  Li  Li45  1  0.17306856  0.27052935  0.34965312  1
  Li  Li46  1  0.82417959  0.18012278  0.35486858  1
  Li  Li47  1  0.84174822  0.84034489  0.42143460  1
  Li  Li48  1  0.34648117  0.08910461  0.37441804  1
  Li  Li49  1  0.32604518  0.42508382  0.30229574  1
  Li  Li50  1  0.66312734  0.01663283  0.39999530  1
  Li  Li51  1  0.67442368  0.37503374  0.32672346  1
  Li  Li52  1  0.66638675  0.85870816  0.31476291  1
  Li  Li53  1  0.66500656  0.50523326  0.38882450  1
  Li  Li54  1  0.33264240  0.95225875  0.30856525  1
  Li  Li55  1  0.34345294  0.59793066  0.38233734  1
  Li  Li56  1  0.84191543  0.04426737  0.29081838  1
  Li  Li57  1  0.83079270  0.70493269  0.36217359  1
  Li  Li58  1  0.17413374  0.74281321  0.33695018  1
  Li  Li59  1  0.16903873  0.40197417  0.41035816  1
  Li  Li60  1  0.98507361  0.09630414  0.39035674  1
  Li  Li61  1  0.01012948  0.36612605  0.31132123  1
  Li  Li62  1  0.51251308  0.23277052  0.34069388  1
  Li  Li63  1  0.48715006  0.86660883  0.42994158  1
  Li  Li64  1  0.49567307  0.34817721  0.42119209  1
  Li  Li65  1  0.50662282  0.75911646  0.35108047  1
  Li  Li66  1  0.00935375  0.89305545  0.32452814  1
  Li  Li67  1  0.99763595  0.55904155  0.37942826  1
  Li  Li68  1  0.15853712  0.58236359  0.48796482  1
  Li  Li69  1  0.81336445  0.49444158  0.49254296  1
  Li  Li70  1  0.33946715  0.45763952  0.50308773  1
  Li  Li71  1  0.33098847  0.71994511  0.44558543  1
  Li  Li72  1  0.68504663  0.70483298  0.46780666  1
  Li  Li73  1  0.66880834  0.15899321  0.46476952  1
  Li  Li74  1  0.71388738  0.65494746  0.54268295  1
  Li  Li75  1  0.33032716  0.24140691  0.46214937  1
  Li  Li76  1  0.83365996  0.35443036  0.43579034  1
  Li  Li77  1  0.21249707  0.95214197  0.45390407  1
  Li  Li78  1  0.18901735  0.74771711  0.53989261  1
  Li  Li79  1  0.98557884  0.43644720  0.52464514  1
  Li  Li80  1  0.99643926  0.74625116  0.45965897  1
  Li  Li81  1  0.52870055  0.55034594  0.47895014  1
  Li  Li82  1  0.46946056  0.97779905  0.48800424  1
  Li  Li83  1  0.00097871  0.19773853  0.45555305  1
  P  P84  1  0.09462794  0.47953261  0.03911853  1
  P  P85  1  0.09025432  0.14190100  0.11047510  1
  P  P86  1  0.90919616  0.75012470  0.08613717  1
  P  P87  1  0.41358915  0.81597525  0.07279569  1
  P  P88  1  0.58105478  0.42830619  0.04898155  1
  P  P89  1  0.59597907  0.08129323  0.12084738  1
  P  P90  1  0.08717051  0.79191218  0.18161468  1
  P  P91  1  0.08511809  0.44193471  0.25256020  1
  P  P92  1  0.90283158  0.39978113  0.15909736  1
  P  P93  1  0.91277480  0.05244666  0.22962878  1
  P  P94  1  0.40530831  0.46332575  0.14703026  1
  P  P95  1  0.41288177  0.12152689  0.21837002  1
  P  P96  1  0.58706493  0.73201514  0.19532462  1
  P  P97  1  0.58728425  0.37854723  0.26796999  1
  P  P98  1  0.08889203  0.09621827  0.32676926  1
  P  P99  1  0.09501419  0.75089840  0.39659912  1
  P  P100  1  0.91080573  0.70762055  0.30334936  1
  P  P101  1  0.91439878  0.35703176  0.37486435  1
  P  P102  1  0.40883626  0.76950019  0.28902078  1
  P  P103  1  0.41354495  0.41838058  0.36067410  1
  P  P104  1  0.58889846  0.03137362  0.33849334  1
  P  P105  1  0.59404194  0.68852399  0.40909733  1
  P  P106  1  0.09121823  0.40061780  0.47000889  1
  P  P107  1  0.91107448  0.00794685  0.44606541  1
  P  P108  1  0.90601175  0.67149486  0.51697196  1
  P  P109  1  0.40501371  0.06944814  0.43587316  1
  P  P110  1  0.41965914  0.72195955  0.50707524  1
  P  P111  1  0.58638126  0.33497603  0.48331338  1
  S  S112  1  0.16316651  0.37869428  0.01918179  1
  S  S113  1  0.14891846  0.03648667  0.08855862  1
  S  S114  1  0.84602520  0.85891187  0.10609322  1
  S  S115  1  0.34280558  0.83938777  0.11146634  1
  S  S116  1  0.63562470  0.40794840  0.01008526  1
  S  S117  1  0.67071712  0.07469276  0.08287645  1
  S  S118  1  0.65136624  0.53572722  0.07068207  1
  S  S119  1  0.34243221  0.35149121  0.12846374  1
  S  S120  1  0.35862062  0.70488556  0.05245044  1
  S  S121  1  0.83926979  0.36950768  0.12066998  1
  S  S122  1  0.84233433  0.72301051  0.04722660  1
  S  S123  1  0.14678535  0.50468854  0.07958174  1
  S  S124  1  0.05986447  0.78512091  0.07633748  1
  S  S125  1  0.93931787  0.45206986  0.04656481  1
  S  S126  1  0.93669208  0.10238589  0.11838782  1
  S  S127  1  0.42808729  0.45961408  0.04748866  1
  S  S128  1  0.44662517  0.12316696  0.11250907  1
  S  S129  1  0.56325744  0.77807484  0.08523292  1
  S  S130  1  0.10504476  0.25816672  0.08925847  1
  S  S131  1  0.12618320  0.59668647  0.01670872  1
  S  S132  1  0.89491613  0.64082025  0.11119664  1
  S  S133  1  0.38170581  0.57313274  0.12236250  1
  S  S134  1  0.40991787  0.92790189  0.04977147  1
  S  S135  1  0.60877350  0.32007990  0.07586381  1
  S  S136  1  0.15042594  0.68657506  0.16004779  1
  S  S137  1  0.15164042  0.33645161  0.23123795  1
  S  S138  1  0.83728203  0.51012292  0.17811191  1
  S  S139  1  0.85471340  0.15776641  0.25222614  1
  S  S140  1  0.34749216  0.49109909  0.18613083  1
  S  S141  1  0.34362898  0.14016081  0.25689798  1
  S  S142  1  0.64958911  0.71451774  0.15614972  1
  S  S143  1  0.65208953  0.35458948  0.22937950  1
  S  S144  1  0.65123613  0.83564966  0.21820597  1
  S  S145  1  0.66049008  0.18322535  0.14469907  1
  S  S146  1  0.34530350  0.66001343  0.26945577  1
  S  S147  1  0.35584478  0.01709288  0.19511222  1
  S  S148  1  0.84768479  0.68214376  0.26465133  1
  S  S149  1  0.84417073  0.03309110  0.19051249  1
  S  S150  1  0.15222732  0.81614661  0.22036382  1
  S  S151  1  0.15284847  0.15524262  0.15051727  1
  S  S152  1  0.05348784  0.43655059  0.15181890  1
  S  S153  1  0.06264359  0.08789463  0.22076313  1
  S  S154  1  0.93618567  0.75500936  0.18972721  1
  S  S155  1  0.93544866  0.40105943  0.26084800  1
  S  S156  1  0.43668846  0.77338949  0.18754207  1
  S  S157  1  0.43743194  0.41672848  0.26022910  1
  S  S158  1  0.55897488  0.42934535  0.15349655  1
  S  S159  1  0.56256600  0.08227251  0.22773504  1
  S  S160  1  0.09692274  0.55533069  0.22881347  1
  S  S161  1  0.10607071  0.90464327  0.15727217  1
  S  S162  1  0.89271351  0.93787147  0.25245268  1
  S  S163  1  0.88405892  0.29406349  0.18641016  1
  S  S164  1  0.39071316  0.88081599  0.26430202  1
  S  S165  1  0.39987079  0.23617172  0.19523947  1
  S  S166  1  0.59923410  0.61699748  0.21789556  1
  S  S167  1  0.60861667  0.96432678  0.14239146  1
  S  S168  1  0.14814194  0.99202429  0.30404717  1
  S  S169  1  0.16126460  0.64137822  0.37727891  1
  S  S170  1  0.84492805  0.81408233  0.32434935  1
  S  S171  1  0.85015924  0.46322446  0.39577171  1
  S  S172  1  0.34560552  0.79927142  0.32749661  1
  S  S173  1  0.35121892  0.44112746  0.39948805  1
  S  S174  1  0.65547122  0.01572702  0.29962982  1
  S  S175  1  0.65078509  0.66173252  0.36985280  1
  S  S176  1  0.64657061  0.13440046  0.36237119  1
  S  S177  1  0.65428344  0.48315647  0.28934154  1
  S  S178  1  0.34086339  0.96681593  0.41222934  1
  S  S179  1  0.34855334  0.31256249  0.33913250  1
  S  S180  1  0.84767920  0.99484633  0.40611706  1
  S  S181  1  0.85029521  0.33047591  0.33614839  1
  S  S182  1  0.15671629  0.11511621  0.36606665  1
  S  S183  1  0.14772326  0.46619637  0.29147081  1
  S  S184  1  0.06070130  0.74788140  0.29499155  1
  S  S185  1  0.06479680  0.39417130  0.36649529  1
  S  S186  1  0.93906707  0.06051119  0.33554205  1
  S  S187  1  0.94509087  0.71243032  0.40429977  1
  S  S188  1  0.43881798  0.07178102  0.32977681  1
  S  S189  1  0.44055513  0.72315940  0.40284276  1
  S  S190  1  0.55957197  0.73269850  0.29756148  1
  S  S191  1  0.56395067  0.37892719  0.36861086  1
  S  S192  1  0.11050577  0.85732355  0.36947790  1
  S  S193  1  0.10922218  0.21153301  0.30427488  1
  S  S194  1  0.89594525  0.24502849  0.39958610  1
  S  S195  1  0.89841706  0.59500596  0.32757670  1
  S  S196  1  0.39223093  0.18610645  0.41421187  1
  S  S197  1  0.39758707  0.53211590  0.33695469  1
  S  S198  1  0.60251296  0.91561784  0.36095405  1
  S  S199  1  0.60598601  0.26318960  0.29156592  1
  S  S200  1  0.15389065  0.29171211  0.44997142  1
  S  S201  1  0.85213649  0.11275425  0.46820834  1
  S  S202  1  0.83628390  0.77219998  0.53661521  1
  S  S203  1  0.33012930  0.07627038  0.47382205  1
  S  S204  1  0.36599863  0.74086951  0.54614059  1
  S  S205  1  0.65716615  0.31167395  0.44464446  1
  S  S206  1  0.64121626  0.44630301  0.50363806  1
  S  S207  1  0.65790070  0.79981872  0.42778594  1
  S  S208  1  0.34933935  0.61494161  0.48524440  1
  S  S209  1  0.85446135  0.64526516  0.47650800  1
  S  S210  1  0.15770888  0.42718689  0.50902826  1
  S  S211  1  0.15981906  0.78156809  0.43487740  1
  S  S212  1  0.06417987  0.04827437  0.43791630  1
  S  S213  1  0.06141037  0.69908075  0.50977346  1
  S  S214  1  0.94031672  0.36599977  0.47975480  1
  S  S215  1  0.43647354  0.37230440  0.47092354  1
  S  S216  1  0.55437253  0.02770025  0.44420542  1
  S  S217  1  0.57306315  0.69211724  0.50829576  1
  S  S218  1  0.10617121  0.50987492  0.44501296  1
  S  S219  1  0.87476343  0.55442926  0.53954920  1
  S  S220  1  0.89729606  0.89146061  0.46719981  1
  S  S221  1  0.39055712  0.83097208  0.48052316  1
  S  S222  1  0.59054926  0.22316126  0.50635848  1
  S  S223  1  0.61831939  0.57808181  0.43348225  1
