# generated using pymatgen
data_Li3PS4
_symmetry_space_group_name_H-M   'P 1'
_cell_length_a   8.10679100
_cell_length_b   14.48087000
_cell_length_c   45.15849200
_cell_angle_alpha   90.00000000
_cell_angle_beta   90.00000000
_cell_angle_gamma   90.00000000
_symmetry_Int_Tables_number   1
_chemical_formula_structural   Li3PS4
_chemical_formula_sum   'Li36 P12 S48'
_cell_volume   5301.30830909
_cell_formula_units_Z   12
loop_
 _symmetry_equiv_pos_site_id
 _symmetry_equiv_pos_as_xyz
  1  'x, y, z'
loop_
 _atom_site_type_symbol
 _atom_site_label
 _atom_site_symmetry_multiplicity
 _atom_site_fract_x
 _atom_site_fract_y
 _atom_site_fract_z
 _atom_site_occupancy
  Li  Li0  1  0.96480820  0.66066898  0.11358191  1
  Li  Li1  1  0.02480962  0.34713719  0.08466881  1
  Li  Li2  1  0.74944090  0.20696380  0.13466754  1
  Li  Li3  1  0.51214986  0.65346343  0.11403055  1
  Li  Li4  1  0.46913181  0.33962323  0.08423714  1
  Li  Li5  1  0.54205333  0.87236340  0.08245984  1
  Li  Li6  1  0.96071481  0.47677992  0.24390842  1
  Li  Li7  1  0.03090385  0.96305647  0.12647921  1
  Li  Li8  1  0.02186436  0.42904002  0.16066735  1
  Li  Li9  1  0.96709715  0.00430773  0.21355674  1
  Li  Li10  1  0.53388109  0.00638874  0.21644684  1
  Li  Li11  1  0.46095091  0.42762133  0.16039017  1
  Li  Li12  1  0.44832183  0.96865946  0.13730533  1
  Li  Li13  1  0.52631681  0.47716270  0.24285376  1
  Li  Li14  1  0.03122049  0.72008785  0.17767864  1
  Li  Li15  1  0.03630119  0.20353237  0.19322873  1
  Li  Li16  1  0.45112570  0.20583954  0.19345520  1
  Li  Li17  1  0.45562341  0.71936967  0.17809271  1
  Li  Li18  1  0.94861218  0.28358237  0.36287097  1
  Li  Li19  1  0.02547822  0.77539175  0.25677599  1
  Li  Li20  1  0.03154517  0.24520171  0.28421678  1
  Li  Li21  1  0.96306451  0.82508174  0.34012590  1
  Li  Li22  1  0.52266976  0.82217111  0.33938936  1
  Li  Li23  1  0.46440582  0.24990998  0.28609413  1
  Li  Li24  1  0.46037788  0.77459950  0.25605027  1
  Li  Li25  1  0.53111448  0.28994868  0.37368985  1
  Li  Li26  1  0.95610616  0.53351808  0.32201488  1
  Li  Li27  1  0.95193703  0.04725414  0.30630593  1
  Li  Li28  1  0.53829771  0.04985727  0.30664258  1
  Li  Li29  1  0.53249651  0.53165987  0.32219863  1
  Li  Li30  1  0.01218416  0.59939422  0.38575243  1
  Li  Li31  1  0.25058965  0.04425737  0.36468665  1
  Li  Li32  1  0.52568642  0.90538219  0.41591694  1
  Li  Li33  1  0.46337405  0.59240148  0.38595701  1
  Li  Li34  1  0.04238503  0.38077736  0.41833858  1
  Li  Li35  1  0.97022001  0.91204577  0.41583644  1
  P  P36  1  0.23575336  0.77339887  0.09256181  1
  P  P37  1  0.74413019  0.41047738  0.11697471  1
  P  P38  1  0.24153796  0.58253385  0.21808551  1
  P  P39  1  0.74312562  0.85596828  0.15487710  1
  P  P40  1  0.74608959  0.22715675  0.24136007  1
  P  P41  1  0.24367842  0.20553866  0.13356853  1
  P  P42  1  0.24321984  0.39651063  0.34519333  1
  P  P43  1  0.74250191  0.66991348  0.28179595  1
  P  P44  1  0.74450073  0.04648176  0.36641029  1
  P  P45  1  0.24627339  0.02573506  0.25869238  1
  P  P46  1  0.73575724  0.47926497  0.40715950  1
  P  P47  1  0.24557594  0.84181716  0.38318317  1
  S  S48  1  0.43936824  0.72864683  0.06938491  1
  S  S49  1  0.52847865  0.48083690  0.10930820  1
  S  S50  1  0.95544043  0.48555739  0.11002733  1
  S  S51  1  0.02176837  0.75082892  0.07198255  1
  S  S52  1  0.26905790  0.91592887  0.09874837  1
  S  S53  1  0.74895438  0.29764649  0.08845573  1
  S  S54  1  0.73359296  0.93769077  0.11760871  1
  S  S55  1  0.24234964  0.24188407  0.08972735  1
  S  S56  1  0.45588485  0.55395410  0.19523526  1
  S  S57  1  0.53787005  0.88251821  0.18037729  1
  S  S58  1  0.53290584  0.30207383  0.23590483  1
  S  S59  1  0.45702785  0.13450218  0.14322735  1
  S  S60  1  0.03713130  0.12877347  0.14316974  1
  S  S61  1  0.95763774  0.30294084  0.23548146  1
  S  S62  1  0.96299756  0.88592239  0.17523933  1
  S  S63  1  0.02546239  0.55435017  0.19590205  1
  S  S64  1  0.73959640  0.71455148  0.14794942  1
  S  S65  1  0.24203034  0.72675060  0.22171718  1
  S  S66  1  0.24049542  0.31183662  0.16503655  1
  S  S67  1  0.74760919  0.12642701  0.20847242  1
  S  S68  1  0.24028637  0.69945520  0.13316692  1
  S  S69  1  0.74350463  0.73786788  0.24255702  1
  S  S70  1  0.74299987  0.36128271  0.15980293  1
  S  S71  1  0.24895070  0.07588687  0.21579694  1
  S  S72  1  0.46296838  0.36632986  0.32480833  1
  S  S73  1  0.52621668  0.69776770  0.30400281  1
  S  S74  1  0.53813306  0.12355031  0.35682239  1
  S  S75  1  0.45667171  0.94917782  0.26493130  1
  S  S76  1  0.03255605  0.95117223  0.26381403  1
  S  S77  1  0.95796127  0.11748131  0.35670073  1
  S  S78  1  0.95671854  0.69926070  0.30455297  1
  S  S79  1  0.03778478  0.36986881  0.31975350  1
  S  S80  1  0.74269888  0.52567310  0.27818621  1
  S  S81  1  0.23938798  0.53808403  0.35185833  1
  S  S82  1  0.24748117  0.12649621  0.29160185  1
  S  S83  1  0.74126251  0.94010047  0.33503458  1
  S  S84  1  0.24375610  0.51432911  0.25725333  1
  S  S85  1  0.74040789  0.55313425  0.36653096  1
  S  S86  1  0.74674320  0.17732163  0.28430957  1
  S  S87  1  0.24460594  0.89009764  0.34022602  1
  S  S88  1  0.52112794  0.50190531  0.42751557  1
  S  S89  1  0.45698493  0.76704139  0.39031845  1
  S  S90  1  0.02990890  0.77133035  0.39091481  1
  S  S91  1  0.93866514  0.52469539  0.43042228  1
  S  S92  1  0.76962328  0.33664026  0.40136018  1
  S  S93  1  0.24966277  0.95502848  0.41147527  1
  S  S94  1  0.23391649  0.31555052  0.38258894  1
  S  S95  1  0.74395103  0.01044202  0.41032320  1
