# generated using pymatgen
data_Li3PS4
_symmetry_space_group_name_H-M   'P 1'
_cell_length_a   8.10679100
_cell_length_b   14.48087000
_cell_length_c   45.15849200
_cell_angle_alpha   90.00000000
_cell_angle_beta   90.00000000
_cell_angle_gamma   90.00000000
_symmetry_Int_Tables_number   1
_chemical_formula_structural   Li3PS4
_chemical_formula_sum   'Li48 P16 S64'
_cell_volume   5301.30830909
_cell_formula_units_Z   16
loop_
 _symmetry_equiv_pos_site_id
 _symmetry_equiv_pos_as_xyz
  1  'x, y, z'
loop_
 _atom_site_type_symbol
 _atom_site_label
 _atom_site_symmetry_multiplicity
 _atom_site_fract_x
 _atom_site_fract_y
 _atom_site_fract_z
 _atom_site_occupancy
  Li  Li0  1  0.96329061  0.71289786  0.07879097  1
  Li  Li1  1  0.03121570  0.01412680  0.09358628  1
  Li  Li2  1  0.01652039  0.39374536  0.05214953  1
  Li  Li3  1  0.74101675  0.25745649  0.10203046  1
  Li  Li4  1  0.44291403  0.01250013  0.10633357  1
  Li  Li5  1  0.51316521  0.71032603  0.08400372  1
  Li  Li6  1  0.46057571  0.40061911  0.05224162  1
  Li  Li7  1  0.54263673  0.92324159  0.05028549  1
  Li  Li8  1  0.95464883  0.52382555  0.20644298  1
  Li  Li9  1  0.02303421  0.83228960  0.22179941  1
  Li  Li10  1  0.02945164  0.48151390  0.12697803  1
  Li  Li11  1  0.96515777  0.05618609  0.18062146  1
  Li  Li12  1  0.53700261  0.05469499  0.18619899  1
  Li  Li13  1  0.46753277  0.47554123  0.12946327  1
  Li  Li14  1  0.45587708  0.82852923  0.22787952  1
  Li  Li15  1  0.52166863  0.51946391  0.21330452  1
  Li  Li16  1  0.05599839  0.77440968  0.14223990  1
  Li  Li17  1  0.03146900  0.25577645  0.15957995  1
  Li  Li18  1  0.44946538  0.25189614  0.16130445  1
  Li  Li19  1  0.54648645  0.76177467  0.16216518  1
  Li  Li20  1  0.95629894  0.33335586  0.33172604  1
  Li  Li21  1  0.02194153  0.64337277  0.34719026  1
  Li  Li22  1  0.02904550  0.29824433  0.25088215  1
  Li  Li23  1  0.96474075  0.87567389  0.30678358  1
  Li  Li24  1  0.53095598  0.86276311  0.31017482  1
  Li  Li25  1  0.46359734  0.28576558  0.25344222  1
  Li  Li26  1  0.45385618  0.63821020  0.35399390  1
  Li  Li27  1  0.52153195  0.33137303  0.33876615  1
  Li  Li28  1  0.04769431  0.58838050  0.27089701  1
  Li  Li29  1  0.93752784  0.09881747  0.27304258  1
  Li  Li30  1  0.43755806  0.06112097  0.28755348  1
  Li  Li31  1  0.55030754  0.57360919  0.28956760  1
  Li  Li32  1  0.94447473  0.14913920  0.45417941  1
  Li  Li33  1  0.01280611  0.45112071  0.47648278  1
  Li  Li34  1  0.03636960  0.10681378  0.37390813  1
  Li  Li35  1  0.96758142  0.68580146  0.43135626  1
  Li  Li36  1  0.52729405  0.68222197  0.43331832  1
  Li  Li37  1  0.46626595  0.10645953  0.37961546  1
  Li  Li38  1  0.46171229  0.45011562  0.48126998  1
  Li  Li39  1  0.53112552  0.14880295  0.46728744  1
  Li  Li40  1  0.04720430  0.40025360  0.39791696  1
  Li  Li41  1  0.95171171  0.91019304  0.39947496  1
  Li  Li42  1  0.53134519  0.90654327  0.40125316  1
  Li  Li43  1  0.55554853  0.38769699  0.41798825  1
  Li  Li44  1  0.24237930  0.90478320  0.45894568  1
  Li  Li45  1  0.51910421  0.76638563  0.50848326  1
  Li  Li46  1  0.04164663  0.23952903  0.51013583  1
  Li  Li47  1  0.96241478  0.76211196  0.50799696  1
  P  P48  1  0.23603337  0.82258642  0.05895431  1
  P  P49  1  0.74892719  0.90573518  0.12378760  1
  P  P50  1  0.74216977  0.46273282  0.08493186  1
  P  P51  1  0.24308860  0.25599792  0.10107486  1
  P  P52  1  0.24523210  0.63364338  0.18663505  1
  P  P53  1  0.74627808  0.71769013  0.24840004  1
  P  P54  1  0.74573245  0.27716593  0.20894639  1
  P  P55  1  0.23725906  0.07500312  0.22657116  1
  P  P56  1  0.24612774  0.44472133  0.31181206  1
  P  P57  1  0.74650661  0.52908919  0.37367865  1
  P  P58  1  0.73778719  0.08682277  0.33377865  1
  P  P59  1  0.24563934  0.88479957  0.35147499  1
  P  P60  1  0.24923165  0.25601366  0.43667511  1
  P  P61  1  0.73453623  0.34021213  0.50133780  1
  P  P62  1  0.74282868  0.90609055  0.45967548  1
  P  P63  1  0.24296132  0.69968053  0.47549415  1
  S  S64  1  0.44531594  0.77883675  0.03717853  1
  S  S65  1  0.52792554  0.53604279  0.07915747  1
  S  S66  1  0.45353476  0.18206135  0.11067848  1
  S  S67  1  0.03415487  0.18039187  0.11009113  1
  S  S68  1  0.95459665  0.53580023  0.07694941  1
  S  S69  1  0.02532853  0.80182738  0.03695562  1
  S  S70  1  0.74891291  0.76423690  0.11685783  1
  S  S71  1  0.26905688  0.96541803  0.06612677  1
  S  S72  1  0.73724720  0.35069880  0.05610786  1
  S  S73  1  0.23577033  0.74811634  0.09890518  1
  S  S74  1  0.73244615  0.98671905  0.08656018  1
  S  S75  1  0.24396082  0.29501734  0.05748283  1
  S  S76  1  0.46343717  0.59845438  0.16615146  1
  S  S77  1  0.54548774  0.93000231  0.14999229  1
  S  S78  1  0.52958153  0.34959575  0.20377463  1
  S  S79  1  0.44641288  0.99943685  0.23482251  1
  S  S80  1  0.02153725  0.00152212  0.23088858  1
  S  S81  1  0.95615539  0.35369627  0.20176813  1
  S  S82  1  0.97075311  0.93714010  0.14329627  1
  S  S83  1  0.03600391  0.60903591  0.16226232  1
  S  S84  1  0.75366278  0.57443864  0.24392608  1
  S  S85  1  0.25312496  0.77624578  0.19116538  1
  S  S86  1  0.24197484  0.36143879  0.13289674  1
  S  S87  1  0.74438748  0.17621657  0.17600753  1
  S  S88  1  0.23476403  0.55894955  0.22523192  1
  S  S89  1  0.73598267  0.79137861  0.20981963  1
  S  S90  1  0.74884273  0.41194663  0.12763988  1
  S  S91  1  0.24831105  0.12371966  0.18364869  1
  S  S92  1  0.46307774  0.40979698  0.29085245  1
  S  S93  1  0.53604072  0.74174883  0.27261842  1
  S  S94  1  0.52299853  0.16088533  0.32935593  1
  S  S95  1  0.45541003  0.80820182  0.35912267  1
  S  S96  1  0.02888075  0.81301866  0.35665164  1
  S  S97  1  0.94739088  0.16208499  0.32542419  1
  S  S98  1  0.96345849  0.75237418  0.26936185  1
  S  S99  1  0.03575299  0.42099423  0.28757766  1
  S  S100  1  0.75449777  0.38658572  0.36886809  1
  S  S101  1  0.25372611  0.58780186  0.31638110  1
  S  S102  1  0.23236157  0.17492664  0.25958570  1
  S  S103  1  0.73248267  0.98648338  0.30088061  1
  S  S104  1  0.23506722  0.37080140  0.35037076  1
  S  S105  1  0.73489279  0.60467893  0.33524435  1
  S  S106  1  0.74939456  0.22808685  0.25150567  1
  S  S107  1  0.25078447  0.93227310  0.30873547  1
  S  S108  1  0.47165550  0.22461133  0.41735521  1
  S  S109  1  0.53747369  0.55326407  0.39817336  1
  S  S110  1  0.53404390  0.98195998  0.45077483  1
  S  S111  1  0.45524124  0.62624726  0.48314934  1
  S  S112  1  0.02924247  0.62601904  0.48135771  1
  S  S113  1  0.95385147  0.97969246  0.45005907  1
  S  S114  1  0.96488961  0.56397419  0.39414692  1
  S  S115  1  0.04651020  0.23148288  0.41032202  1
  S  S116  1  0.76939244  0.19754395  0.49415809  1
  S  S117  1  0.24819144  0.39763168  0.44344582  1
  S  S118  1  0.24466321  0.98648172  0.38418140  1
  S  S119  1  0.74238062  0.80070454  0.42783578  1
  S  S120  1  0.23238098  0.17567663  0.47404018  1
  S  S121  1  0.73491714  0.41491320  0.46142323  1
  S  S122  1  0.74884928  0.03809493  0.37671818  1
  S  S123  1  0.24828522  0.75115999  0.43283729  1
  S  S124  1  0.52288957  0.36012395  0.52309466  1
  S  S125  1  0.94328070  0.38395114  0.52329747  1
  S  S126  1  0.23953867  0.81113341  0.50453353  1
  S  S127  1  0.74392771  0.86696066  0.50325690  1
