# generated using pymatgen
data_Li3PS4
_symmetry_space_group_name_H-M   'P 1'
_cell_length_a   8.10679100
_cell_length_b   14.48087000
_cell_length_c   45.15849200
_cell_angle_alpha   90.00000000
_cell_angle_beta   90.00000000
_cell_angle_gamma   90.00000000
_symmetry_Int_Tables_number   1
_chemical_formula_structural   Li3PS4
_chemical_formula_sum   'Li48 P16 S64'
_cell_volume   5301.30830909
_cell_formula_units_Z   16
loop_
 _symmetry_equiv_pos_site_id
 _symmetry_equiv_pos_as_xyz
  1  'x, y, z'
loop_
 _atom_site_type_symbol
 _atom_site_label
 _atom_site_symmetry_multiplicity
 _atom_site_fract_x
 _atom_site_fract_y
 _atom_site_fract_z
 _atom_site_occupancy
  Li  Li0  1  0.96122930  0.69416951  0.09059386  1
  Li  Li1  1  0.03161817  0.99520292  0.10549880  1
  Li  Li2  1  0.02082698  0.37687716  0.06293326  1
  Li  Li3  1  0.74094379  0.23968768  0.11261566  1
  Li  Li4  1  0.44488088  0.99441259  0.11729632  1
  Li  Li5  1  0.51135916  0.69272628  0.09522945  1
  Li  Li6  1  0.46392191  0.38079427  0.06374270  1
  Li  Li7  1  0.54096226  0.90438664  0.06139354  1
  Li  Li8  1  0.95469057  0.50569821  0.21826939  1
  Li  Li9  1  0.02162580  0.81389078  0.23337991  1
  Li  Li10  1  0.02766839  0.46363522  0.13830034  1
  Li  Li11  1  0.96781188  0.03980262  0.19208349  1
  Li  Li12  1  0.53689923  0.03622803  0.19765280  1
  Li  Li13  1  0.46819935  0.45832377  0.13982063  1
  Li  Li14  1  0.45577696  0.81055007  0.23977954  1
  Li  Li15  1  0.52197276  0.50049161  0.22428589  1
  Li  Li16  1  0.05239016  0.75601290  0.15388874  1
  Li  Li17  1  0.03052762  0.23874339  0.17034416  1
  Li  Li18  1  0.45127678  0.23303292  0.17259855  1
  Li  Li19  1  0.54232158  0.74400879  0.17378232  1
  Li  Li20  1  0.95650178  0.31618713  0.34426086  1
  Li  Li21  1  0.02053419  0.62730537  0.35796751  1
  Li  Li22  1  0.03116338  0.28067955  0.26206494  1
  Li  Li23  1  0.96528191  0.85974218  0.31846596  1
  Li  Li24  1  0.53128771  0.84673706  0.32122305  1
  Li  Li25  1  0.46494909  0.26845035  0.26470247  1
  Li  Li26  1  0.45275968  0.62065977  0.36557590  1
  Li  Li27  1  0.52298074  0.31487551  0.34977710  1
  Li  Li28  1  0.04688770  0.57122605  0.28230626  1
  Li  Li29  1  0.93786241  0.08255057  0.28405618  1
  Li  Li30  1  0.43798805  0.04650178  0.29934036  1
  Li  Li31  1  0.54768552  0.55610025  0.30073231  1
  Li  Li32  1  0.94068319  0.13241250  0.46626089  1
  Li  Li33  1  0.01133086  0.43456523  0.48809001  1
  Li  Li34  1  0.03647657  0.09085312  0.38601275  1
  Li  Li35  1  0.96846393  0.67068911  0.44313666  1
  Li  Li36  1  0.52890339  0.66597038  0.44495547  1
  Li  Li37  1  0.46581785  0.08957013  0.39121131  1
  Li  Li38  1  0.46164203  0.43463731  0.49228177  1
  Li  Li39  1  0.52979783  0.13282047  0.47886599  1
  Li  Li40  1  0.04649302  0.38499196  0.40975237  1
  Li  Li41  1  0.95407111  0.89410822  0.41122019  1
  Li  Li42  1  0.53264150  0.89076390  0.41261733  1
  Li  Li43  1  0.55726361  0.36975344  0.42925037  1
  Li  Li44  1  0.24348475  0.88803360  0.47090228  1
  Li  Li45  1  0.51917099  0.74992495  0.52106845  1
  Li  Li46  1  0.04064086  0.22538138  0.52197567  1
  Li  Li47  1  0.96241190  0.74441081  0.51986802  1
  P  P48  1  0.23304782  0.80453957  0.07049444  1
  P  P49  1  0.74512179  0.44466181  0.09589957  1
  P  P50  1  0.24357423  0.23778286  0.11219745  1
  P  P51  1  0.24489436  0.61524141  0.19823672  1
  P  P52  1  0.74811738  0.88759361  0.13511801  1
  P  P53  1  0.74680827  0.25918245  0.22029125  1
  P  P54  1  0.23962305  0.05717896  0.23804722  1
  P  P55  1  0.24540304  0.42744373  0.32327647  1
  P  P56  1  0.74577868  0.70019747  0.25992612  1
  P  P57  1  0.73918369  0.07057759  0.34551237  1
  P  P58  1  0.24693802  0.86835940  0.36300263  1
  P  P59  1  0.24615427  0.23997088  0.44841739  1
  P  P60  1  0.74560066  0.51272659  0.38532262  1
  P  P61  1  0.74392095  0.88963851  0.47138583  1
  P  P62  1  0.24475656  0.68294057  0.48731722  1
  P  P63  1  0.73216497  0.32413901  0.51294627  1
  S  S64  1  0.44125762  0.76023211  0.04845969  1
  S  S65  1  0.53102686  0.51793698  0.08984422  1
  S  S66  1  0.45396301  0.16393019  0.12194484  1
  S  S67  1  0.03409497  0.16252565  0.12125564  1
  S  S68  1  0.95733167  0.51792964  0.08814709  1
  S  S69  1  0.02128132  0.78428247  0.04880647  1
  S  S70  1  0.26825068  0.94728282  0.07753278  1
  S  S71  1  0.74173227  0.33281087  0.06698224  1
  S  S72  1  0.23401475  0.72994173  0.11045429  1
  S  S73  1  0.73308134  0.96746790  0.09764388  1
  S  S74  1  0.24529944  0.27594953  0.06851530  1
  S  S75  1  0.46210288  0.57996990  0.17740000  1
  S  S76  1  0.54391137  0.91227343  0.16110097  1
  S  S77  1  0.53025710  0.33115735  0.21496957  1
  S  S78  1  0.44882151  0.98189532  0.24645873  1
  S  S79  1  0.02393977  0.98372992  0.24233651  1
  S  S80  1  0.95721050  0.33550180  0.21293785  1
  S  S81  1  0.96924701  0.91933408  0.15484876  1
  S  S82  1  0.03486600  0.59069432  0.17403913  1
  S  S83  1  0.74779625  0.74588856  0.12848201  1
  S  S84  1  0.25321212  0.75788932  0.20284398  1
  S  S85  1  0.24318014  0.34380770  0.14379283  1
  S  S86  1  0.74545848  0.15771038  0.18751815  1
  S  S87  1  0.23565974  0.54052587  0.23684331  1
  S  S88  1  0.73520526  0.77345478  0.22126610  1
  S  S89  1  0.74938483  0.39371226  0.13861349  1
  S  S90  1  0.25037748  0.10580781  0.19509439  1
  S  S91  1  0.46169480  0.39248486  0.30203078  1
  S  S92  1  0.53578793  0.72433452  0.28419173  1
  S  S93  1  0.52400171  0.14461836  0.34116171  1
  S  S94  1  0.45702731  0.79179276  0.37041539  1
  S  S95  1  0.03018499  0.79645571  0.36824741  1
  S  S96  1  0.94879024  0.14559177  0.33718440  1
  S  S97  1  0.96245841  0.73512787  0.28100524  1
  S  S98  1  0.03444082  0.40297051  0.29933571  1
  S  S99  1  0.75297403  0.55694226  0.25544736  1
  S  S100  1  0.25335233  0.57068625  0.32764164  1
  S  S101  1  0.23416968  0.15748246  0.27095895  1
  S  S102  1  0.73377484  0.97066064  0.31247605  1
  S  S103  1  0.23655546  0.35440101  0.36200693  1
  S  S104  1  0.73336359  0.58661259  0.34658253  1
  S  S105  1  0.75079929  0.21137954  0.26300321  1
  S  S106  1  0.25120806  0.91680241  0.32034638  1
  S  S107  1  0.46803122  0.20774715  0.42896742  1
  S  S108  1  0.53697409  0.53699904  0.40989350  1
  S  S109  1  0.53522069  0.96546413  0.46237056  1
  S  S110  1  0.45759402  0.60999762  0.49491443  1
  S  S111  1  0.03100381  0.60917611  0.49307167  1
  S  S112  1  0.95485280  0.96351445  0.46198948  1
  S  S113  1  0.96409508  0.54878621  0.40552665  1
  S  S114  1  0.04272553  0.21558348  0.42225767  1
  S  S115  1  0.75325587  0.36994673  0.38083238  1
  S  S116  1  0.24674666  0.38166042  0.45499109  1
  S  S117  1  0.24536692  0.96957006  0.39589843  1
  S  S118  1  0.74380137  0.78464287  0.43942657  1
  S  S119  1  0.23002928  0.15985650  0.48585107  1
  S  S120  1  0.73461699  0.39775869  0.47281545  1
  S  S121  1  0.74935279  0.02166679  0.38844228  1
  S  S122  1  0.24977578  0.73509362  0.44474403  1
  S  S123  1  0.51955875  0.34495170  0.53430528  1
  S  S124  1  0.93952592  0.36890271  0.53509618  1
  S  S125  1  0.76716808  0.18125540  0.50628401  1
  S  S126  1  0.23988291  0.79394143  0.51652188  1
  S  S127  1  0.74470675  0.85002384  0.51496099  1
