# generated using pymatgen
data_Li3PS4
_symmetry_space_group_name_H-M   'P 1'
_cell_length_a   8.10679100
_cell_length_b   13.05789500
_cell_length_c   43.81965800
_cell_angle_alpha   90.00000000
_cell_angle_beta   90.00000000
_cell_angle_gamma   90.00000000
_symmetry_Int_Tables_number   1
_chemical_formula_structural   Li3PS4
_chemical_formula_sum   'Li42 P14 S56'
_cell_volume   4638.64495333
_cell_formula_units_Z   14
loop_
 _symmetry_equiv_pos_site_id
 _symmetry_equiv_pos_as_xyz
  1  'x, y, z'
loop_
 _atom_site_type_symbol
 _atom_site_label
 _atom_site_symmetry_multiplicity
 _atom_site_fract_x
 _atom_site_fract_y
 _atom_site_fract_z
 _atom_site_occupancy
  Li  Li0  1  0.96310526  0.82395185  0.12515681  1
  Li  Li1  1  0.05095962  0.19092759  0.10114645  1
  Li  Li2  1  0.06873720  0.63960586  0.04416474  1
  Li  Li3  1  0.88326503  0.43855631  0.04073001  1
  Li  Li4  1  0.43929165  0.51997307  0.99849190  1
  Li  Li5  1  0.49507043  0.67923601  0.06040598  1
  Li  Li6  1  0.45920686  0.20146348  0.10145082  1
  Li  Li7  1  0.52244277  0.83658631  0.13669583  1
  Li  Li8  1  0.98200229  0.01414750  0.06195912  1
  Li  Li9  1  0.07306030  0.50350164  0.12287083  1
  Li  Li10  1  0.57806065  0.50228657  0.09804284  1
  Li  Li11  1  0.53132274  0.02132699  0.06302931  1
  Li  Li12  1  0.97002167  0.83888434  0.27330355  1
  Li  Li13  1  0.03112919  0.16006089  0.24200196  1
  Li  Li14  1  0.02685879  0.67488461  0.20203446  1
  Li  Li15  1  0.96234759  0.33537369  0.17191370  1
  Li  Li16  1  0.53420825  0.34399273  0.17087261  1
  Li  Li17  1  0.46667132  0.65915530  0.20134843  1
  Li  Li18  1  0.46294309  0.17604518  0.24410626  1
  Li  Li19  1  0.54043429  0.82596574  0.26971378  1
  Li  Li20  1  0.04864086  0.99372357  0.17762517  1
  Li  Li21  1  0.94794033  0.50808165  0.24890044  1
  Li  Li22  1  0.44919055  0.49381134  0.26586285  1
  Li  Li23  1  0.54541865  0.01374875  0.19415272  1
  Li  Li24  1  0.95628398  0.80802475  0.41390849  1
  Li  Li25  1  0.03329036  0.17842444  0.38856512  1
  Li  Li26  1  0.04011746  0.66282000  0.34148842  1
  Li  Li27  1  0.97496884  0.33494139  0.30844641  1
  Li  Li28  1  0.53823719  0.33325804  0.31665909  1
  Li  Li29  1  0.46824599  0.65669244  0.34606119  1
  Li  Li30  1  0.47554830  0.16224896  0.37993615  1
  Li  Li31  1  0.54639369  0.79882608  0.41300460  1
  Li  Li32  1  0.95150138  0.00635965  0.33747787  1
  Li  Li33  1  0.92803861  0.49361932  0.39099440  1
  Li  Li34  1  0.42694654  0.49290690  0.41665688  1
  Li  Li35  1  0.45410735  0.98660388  0.32011320  1
  Li  Li36  1  0.12143584  0.56122577  0.47382327  1
  Li  Li37  1  0.93372169  0.36154610  0.47196039  1
  Li  Li38  1  0.50953827  0.31883091  0.45503128  1
  Li  Li39  1  0.56519757  0.48415956  0.51618653  1
  Li  Li40  1  0.02504592  0.98662336  0.45199523  1
  Li  Li41  1  0.47478790  0.97578537  0.45196246  1
  P  P42  1  0.25452450  0.91602209  0.09429500  1
  P  P43  1  0.75697125  0.09248379  0.13646718  1
  P  P44  1  0.73818630  0.62412110  0.01417214  1
  P  P45  1  0.25267298  0.42788038  0.06392771  1
  P  P46  1  0.25717130  0.91280572  0.23438383  1
  P  P47  1  0.74337856  0.08770342  0.28026888  1
  P  P48  1  0.75386841  0.58963923  0.16361181  1
  P  P49  1  0.24388121  0.41042430  0.20914547  1
  P  P50  1  0.24574528  0.90750038  0.37826207  1
  P  P51  1  0.74910080  0.08318560  0.42081968  1
  P  P52  1  0.74802881  0.59066026  0.30590245  1
  P  P53  1  0.24920999  0.40955301  0.35087351  1
  P  P54  1  0.75188770  0.57115412  0.45019927  1
  P  P55  1  0.26730979  0.37739286  0.50115402  1
  S  S56  1  0.47934086  0.85815630  0.08137006  1
  S  S57  1  0.51340795  0.69369232  0.00740190  1
  S  S58  1  0.46826365  0.34793046  0.06979545  1
  S  S59  1  0.04932861  0.36261750  0.08540522  1
  S  S60  1  0.93039827  0.70831077  0.00026765  1
  S  S61  1  0.05999138  0.84689719  0.07308787  1
  S  S62  1  0.25588890  0.07089552  0.07869653  1
  S  S63  1  0.28160991  0.56924818  0.08551659  1
  S  S64  1  0.72517034  0.47889210  0.99601216  1
  S  S65  1  0.23801153  0.89968935  0.14061435  1
  S  S66  1  0.75834403  0.11398491  0.08882469  1
  S  S67  1  0.77437777  0.60322668  0.06285213  1
  S  S68  1  0.18209869  0.45111810  0.02015675  1
  S  S69  1  0.46562209  0.84572751  0.21627409  1
  S  S70  1  0.54551439  0.15724082  0.15310715  1
  S  S71  1  0.54283034  0.65319442  0.14697237  1
  S  S72  1  0.46067007  0.35145398  0.22575102  1
  S  S73  1  0.03309844  0.34265085  0.22617183  1
  S  S74  1  0.96940235  0.65634077  0.14846478  1
  S  S75  1  0.96939435  0.15768168  0.15278065  1
  S  S76  1  0.03877861  0.85498533  0.21828447  1
  S  S77  1  0.76086797  0.94315423  0.15178963  1
  S  S78  1  0.26136341  0.06372148  0.21872825  1
  S  S79  1  0.23826602  0.56062712  0.22513648  1
  S  S80  1  0.75596629  0.44078918  0.14649580  1
  S  S81  1  0.25885091  0.89475459  0.28084319  1
  S  S82  1  0.74262980  0.10459418  0.23374856  1
  S  S83  1  0.75046903  0.60008869  0.21047713  1
  S  S84  1  0.24553220  0.39510450  0.16266057  1
  S  S85  1  0.45798614  0.84421136  0.36161781  1
  S  S86  1  0.53232615  0.15360187  0.29778507  1
  S  S87  1  0.52993427  0.65531937  0.29133080  1
  S  S88  1  0.45468428  0.34570540  0.36997607  1
  S  S89  1  0.02888221  0.34316503  0.36343568  1
  S  S90  1  0.95694730  0.65410894  0.28725967  1
  S  S91  1  0.95882485  0.14788775  0.29681021  1
  S  S92  1  0.03404904  0.84114743  0.36194765  1
  S  S93  1  0.74071316  0.93695475  0.29614718  1
  S  S94  1  0.23951475  0.05706444  0.36314978  1
  S  S95  1  0.24382916  0.55802188  0.36807759  1
  S  S96  1  0.74216243  0.44091025  0.28952501  1
  S  S97  1  0.24548322  0.88515050  0.42591212  1
  S  S98  1  0.76017975  0.09982661  0.37444630  1
  S  S99  1  0.75649791  0.60478342  0.35239185  1
  S  S100  1  0.25959911  0.39810069  0.30408833  1
  S  S101  1  0.52495338  0.14007289  0.43466456  1
  S  S102  1  0.53552209  0.64963135  0.44364018  1
  S  S103  1  0.49307004  0.30925221  0.50814172  1
  S  S104  1  0.07577247  0.29339174  0.51549797  1
  S  S105  1  0.95475006  0.63496095  0.42832434  1
  S  S106  1  0.94515162  0.15339224  0.44116621  1
  S  S107  1  0.75016835  0.92811399  0.43629068  1
  S  S108  1  0.27908793  0.52341869  0.51878494  1
  S  S109  1  0.72469897  0.42785807  0.42969732  1
  S  S110  1  0.82191404  0.55230616  0.49423762  1
  S  S111  1  0.23013602  0.39566316  0.45246748  1
