# generated using pymatgen
data_Li3PS4
_symmetry_space_group_name_H-M   'P 1'
_cell_length_a   13.05789500
_cell_length_b   10.24241400
_cell_length_c   49.54702600
_cell_angle_alpha   90.00000000
_cell_angle_beta   90.00000000
_cell_angle_gamma   90.00000000
_symmetry_Int_Tables_number   1
_chemical_formula_structural   Li3PS4
_chemical_formula_sum   'Li60 P20 S80'
_cell_volume   6626.63560723
_cell_formula_units_Z   20
loop_
 _symmetry_equiv_pos_site_id
 _symmetry_equiv_pos_as_xyz
  1  'x, y, z'
loop_
 _atom_site_type_symbol
 _atom_site_label
 _atom_site_symmetry_multiplicity
 _atom_site_fract_x
 _atom_site_fract_y
 _atom_site_fract_z
 _atom_site_occupancy
  Li  Li0  1  0.15879942  0.72512799  0.07426993  1
  Li  Li1  1  0.84967543  0.61512997  0.09122051  1
  Li  Li2  1  0.67168665  0.77105086  0.06935345  1
  Li  Li3  1  0.66608651  0.11652083  0.08999824  1
  Li  Li4  1  0.30883783  0.22059121  0.07634818  1
  Li  Li5  1  0.84393514  0.25956380  0.06612687  1
  Li  Li6  1  0.48513148  0.69497835  0.10022112  1
  Li  Li7  1  0.49060599  0.26011177  0.04548977  1
  Li  Li8  1  0.02314692  0.17469149  0.09780127  1
  Li  Li9  1  0.17083998  0.35928325  0.18004587  1
  Li  Li10  1  0.83562318  0.24192876  0.19514362  1
  Li  Li11  1  0.32934550  0.48351408  0.12147690  1
  Li  Li12  1  0.66894288  0.47414449  0.14822085  1
  Li  Li13  1  0.67172166  0.74912972  0.18962800  1
  Li  Li14  1  0.33787554  0.86514405  0.17620833  1
  Li  Li15  1  0.82658208  0.99062735  0.14651136  1
  Li  Li16  1  0.17200342  0.99037625  0.12230935  1
  Li  Li17  1  0.01326518  0.45584498  0.13573333  1
  Li  Li18  1  0.49525039  0.31204285  0.19768188  1
  Li  Li19  1  0.50494873  0.04462308  0.13432928  1
  Li  Li20  1  0.98725495  0.79395928  0.17140041  1
  Li  Li21  1  0.17096256  0.99023137  0.28141377  1
  Li  Li22  1  0.83683991  0.86814170  0.29581036  1
  Li  Li23  1  0.32866233  0.12451003  0.22361359  1
  Li  Li24  1  0.66486814  0.08819096  0.25107354  1
  Li  Li25  1  0.67120374  0.37587725  0.29001766  1
  Li  Li26  1  0.33679756  0.49756201  0.27552146  1
  Li  Li27  1  0.82992931  0.61319567  0.24759067  1
  Li  Li28  1  0.16373208  0.65110065  0.21967485  1
  Li  Li29  1  0.00628739  0.06042693  0.23693758  1
  Li  Li30  1  0.49392658  0.94093323  0.29816752  1
  Li  Li31  1  0.50818296  0.67510212  0.23434466  1
  Li  Li32  1  0.99379033  0.42536615  0.27376076  1
  Li  Li33  1  0.17171597  0.61604031  0.38187146  1
  Li  Li34  1  0.83856023  0.50032719  0.39585578  1
  Li  Li35  1  0.32972617  0.75311022  0.32383194  1
  Li  Li36  1  0.66471946  0.71392431  0.35180581  1
  Li  Li37  1  0.67102507  0.00505919  0.39148717  1
  Li  Li38  1  0.33554095  0.12431339  0.37624166  1
  Li  Li39  1  0.82827913  0.23774196  0.34818886  1
  Li  Li40  1  0.16503119  0.27735062  0.32037850  1
  Li  Li41  1  0.00702260  0.69081233  0.33742533  1
  Li  Li42  1  0.48764086  0.57082198  0.39998529  1
  Li  Li43  1  0.50635514  0.30576856  0.33456714  1
  Li  Li44  1  0.99596444  0.05248625  0.37389156  1
  Li  Li45  1  0.16527873  0.24983550  0.48079515  1
  Li  Li46  1  0.80865236  0.14300735  0.49549965  1
  Li  Li47  1  0.32632806  0.37499408  0.42490668  1
  Li  Li48  1  0.67273516  0.37489024  0.44892793  1
  Li  Li49  1  0.65943387  0.64020271  0.49664330  1
  Li  Li50  1  0.35093534  0.75015714  0.48026877  1
  Li  Li51  1  0.82945927  0.88331527  0.44993019  1
  Li  Li52  1  0.16907463  0.89121983  0.42320981  1
  Li  Li53  1  0.00396284  0.31977191  0.43722493  1
  Li  Li54  1  0.52331637  0.19165631  0.47363255  1
  Li  Li55  1  0.51269885  0.90878166  0.43564157  1
  Li  Li56  1  0.98340813  0.67439872  0.47212178  1
  Li  Li57  1  0.34396476  0.10685348  0.50528392  1
  Li  Li58  1  0.17180874  0.59279582  0.50216598  1
  Li  Li59  1  0.99085700  0.10274179  0.52614856  1
  P  P60  1  0.08714167  0.44988852  0.07389911  1
  P  P61  1  0.91169248  0.89359164  0.09214907  1
  P  P62  1  0.40633764  0.95526376  0.07655993  1
  P  P63  1  0.59050981  0.39259838  0.09119294  1
  P  P64  1  0.08818392  0.08254177  0.17651983  1
  P  P65  1  0.91151193  0.51986166  0.19412597  1
  P  P66  1  0.41179345  0.58372522  0.17618479  1
  P  P67  1  0.58938920  0.02050521  0.19489688  1
  P  P68  1  0.08962402  0.71640325  0.27661382  1
  P  P69  1  0.91213826  0.14853023  0.29475638  1
  P  P70  1  0.41199756  0.21695261  0.27678820  1
  P  P71  1  0.58997119  0.64930438  0.29498364  1
  P  P72  1  0.08925232  0.34472977  0.37657669  1
  P  P73  1  0.91208753  0.78184703  0.39554439  1
  P  P74  1  0.41158075  0.84573053  0.37730929  1
  P  P75  1  0.58828051  0.28218066  0.39497270  1
  P  P76  1  0.09145121  0.97230222  0.48021289  1
  P  P77  1  0.90610386  0.40837752  0.49490401  1
  P  P78  1  0.41192329  0.47181977  0.47919222  1
  P  P79  1  0.58677226  0.91559906  0.49736752  1
  S  S80  1  0.13677601  0.26621494  0.06446910  1
  S  S81  1  0.66128827  0.30618623  0.05806313  1
  S  S82  1  0.35081090  0.77394939  0.07032110  1
  S  S83  1  0.84790373  0.80281809  0.05974196  1
  S  S84  1  0.06251710  0.93257260  0.08442868  1
  S  S85  1  0.93933292  0.41242952  0.09071421  1
  S  S86  1  0.44020011  0.42266060  0.08013687  1
  S  S87  1  0.55915561  0.92642543  0.08947969  1
  S  S88  1  0.08520609  0.57246730  0.04293932  1
  S  S89  1  0.39029321  0.06963482  0.04320101  1
  S  S90  1  0.15321439  0.90450892  0.16762295  1
  S  S91  1  0.84669732  0.07791400  0.10028946  1
  S  S92  1  0.34361236  0.05349467  0.10944882  1
  S  S93  1  0.65048376  0.94047652  0.16041804  1
  S  S94  1  0.65373761  0.57334266  0.10089358  1
  S  S95  1  0.35221165  0.40165828  0.16886066  1
  S  S96  1  0.84680985  0.42259748  0.16213574  1
  S  S97  1  0.15885953  0.53581413  0.10715786  1
  S  S98  1  0.06194491  0.55726186  0.18218785  1
  S  S99  1  0.93658809  0.04169016  0.18605293  1
  S  S100  1  0.43898137  0.06550153  0.18463144  1
  S  S101  1  0.56387545  0.55061025  0.18687258  1
  S  S102  1  0.10997615  0.20582030  0.14420393  1
  S  S103  1  0.88385582  0.78259649  0.12622922  1
  S  S104  1  0.38826196  0.69748352  0.14277110  1
  S  S105  1  0.61087992  0.27658854  0.12429005  1
  S  S106  1  0.15549093  0.54295726  0.26480830  1
  S  S107  1  0.85038597  0.70118665  0.20170674  1
  S  S108  1  0.34765017  0.68056538  0.20849121  1
  S  S109  1  0.65122776  0.56816349  0.26060627  1
  S  S110  1  0.65526181  0.19439472  0.20640174  1
  S  S111  1  0.35035004  0.03591592  0.26940153  1
  S  S112  1  0.84603892  0.04995530  0.26296580  1
  S  S113  1  0.14871056  0.17002634  0.21020341  1
  S  S114  1  0.06191063  0.18686859  0.28271456  1
  S  S115  1  0.93950727  0.66939675  0.28696827  1
  S  S116  1  0.43982195  0.69574188  0.28460983  1
  S  S117  1  0.56200614  0.17933757  0.28872818  1
  S  S118  1  0.10629697  0.84455898  0.24518070  1
  S  S119  1  0.89534266  0.40560351  0.22781987  1
  S  S120  1  0.39566709  0.33120301  0.24310299  1
  S  S121  1  0.60711342  0.89218880  0.22626755  1
  S  S122  1  0.15527945  0.17102328  0.36502647  1
  S  S123  1  0.85006266  0.32889161  0.30249564  1
  S  S124  1  0.34614103  0.31629893  0.30850388  1
  S  S125  1  0.64816193  0.19416162  0.36127897  1
  S  S126  1  0.65564125  0.82282816  0.30681201  1
  S  S127  1  0.35032689  0.66455316  0.36970074  1
  S  S128  1  0.84788348  0.68403540  0.36339220  1
  S  S129  1  0.15065654  0.79791840  0.31096399  1
  S  S130  1  0.06407506  0.81462380  0.38467546  1
  S  S131  1  0.93892031  0.29965706  0.38690848  1
  S  S132  1  0.43679708  0.32383063  0.38543133  1
  S  S133  1  0.56194233  0.80778494  0.38924699  1
  S  S134  1  0.10678135  0.47329293  0.34524303  1
  S  S135  1  0.89690684  0.03300138  0.32832195  1
  S  S136  1  0.39540073  0.96026087  0.34364979  1
  S  S137  1  0.60701105  0.52097052  0.32638346  1
  S  S138  1  0.15493303  0.79186235  0.47063678  1
  S  S139  1  0.85261709  0.96418588  0.40263295  1
  S  S140  1  0.34674951  0.94312099  0.40925943  1
  S  S141  1  0.65902058  0.83060865  0.46407126  1
  S  S142  1  0.65364818  0.46018426  0.40376089  1
  S  S143  1  0.34681211  0.28760916  0.47110493  1
  S  S144  1  0.84317456  0.30938158  0.46214509  1
  S  S145  1  0.15029715  0.42424220  0.41110165  1
  S  S146  1  0.05823421  0.43954884  0.48176167  1
  S  S147  1  0.94111696  0.94080284  0.49130649  1
  S  S148  1  0.43910549  0.95360630  0.48057393  1
  S  S149  1  0.56286237  0.43306437  0.48679389  1
  S  S150  1  0.11065430  0.08818375  0.44703194  1
  S  S151  1  0.88871366  0.66893559  0.42907269  1
  S  S152  1  0.38400485  0.58297093  0.44513824  1
  S  S153  1  0.60994436  0.15908621  0.42730387  1
  S  S154  1  0.84937459  0.58898575  0.50135626  1
  S  S155  1  0.34826776  0.56237565  0.51164236  1
  S  S156  1  0.63632333  0.09893118  0.50710817  1
  S  S157  1  0.16159325  0.06052602  0.51319843  1
  S  S158  1  0.89138097  0.29392187  0.52829331  1
  S  S159  1  0.58432742  0.79159080  0.52807669  1
