# generated using pymatgen
data_Li3PS4
_symmetry_space_group_name_H-M   'P 1'
_cell_length_a   10.24241400
_cell_length_b   14.48086959
_cell_length_c   46.32433700
_cell_angle_alpha   90.00000000
_cell_angle_beta   90.00000000
_cell_angle_gamma   74.68014200
_symmetry_Int_Tables_number   1
_chemical_formula_structural   Li3PS4
_chemical_formula_sum   'Li60 P20 S80'
_cell_volume   6626.63516060
_cell_formula_units_Z   20
loop_
 _symmetry_equiv_pos_site_id
 _symmetry_equiv_pos_as_xyz
  1  'x, y, z'
loop_
 _atom_site_type_symbol
 _atom_site_label
 _atom_site_symmetry_multiplicity
 _atom_site_fract_x
 _atom_site_fract_y
 _atom_site_fract_z
 _atom_site_occupancy
  Li  Li0  1  0.74755604  0.74358442  0.07649846  1
  Li  Li1  1  0.73458986  0.02577680  0.09285998  1
  Li  Li2  1  0.71368246  0.26354302  0.06015699  1
  Li  Li3  1  0.20227982  0.65242873  0.05549429  1
  Li  Li4  1  0.49857090  0.72330082  0.04448045  1
  Li  Li5  1  0.81819646  0.42760404  0.05265659  1
  Li  Li6  1  0.28812483  0.38902968  0.09259629  1
  Li  Li7  1  0.23812314  0.88885661  0.10003341  1
  Li  Li8  1  0.38402260  0.61265558  0.17852712  1
  Li  Li9  1  0.39752942  0.91498223  0.19648260  1
  Li  Li10  1  0.61679729  0.52175118  0.11441825  1
  Li  Li11  1  0.45362535  0.12189124  0.15674597  1
  Li  Li12  1  0.16328798  0.18229952  0.10725546  1
  Li  Li13  1  0.92942078  0.46744255  0.15775847  1
  Li  Li14  1  0.00505169  0.99556358  0.14055823  1
  Li  Li15  1  0.09617111  0.64819352  0.13643393  1
  Li  Li16  1  0.58919340  0.82426939  0.13379946  1
  Li  Li17  1  0.56201264  0.30291553  0.14841400  1
  Li  Li18  1  0.93496240  0.26933160  0.18640908  1
  Li  Li19  1  0.88504468  0.76923980  0.17667328  1
  Li  Li20  1  0.06026880  0.48311127  0.27599219  1
  Li  Li21  1  0.06145241  0.79368958  0.29837384  1
  Li  Li22  1  0.30635319  0.38897501  0.21802368  1
  Li  Li23  1  0.12896693  0.00451737  0.25662652  1
  Li  Li24  1  0.83591767  0.06859609  0.21310967  1
  Li  Li25  1  0.61103353  0.34046596  0.26098955  1
  Li  Li26  1  0.69001493  0.86192164  0.23880258  1
  Li  Li27  1  0.77201396  0.53786593  0.23332846  1
  Li  Li28  1  0.17750314  0.70919950  0.23888671  1
  Li  Li29  1  0.23750526  0.18084029  0.24630468  1
  Li  Li30  1  0.56069615  0.13818805  0.28727361  1
  Li  Li31  1  0.56043832  0.63811356  0.28705665  1
  Li  Li32  1  0.72481511  0.36176546  0.37916368  1
  Li  Li33  1  0.73794895  0.66347423  0.39630436  1
  Li  Li34  1  0.98919782  0.27260705  0.31850693  1
  Li  Li35  1  0.81127259  0.88788334  0.35743114  1
  Li  Li36  1  0.50981477  0.93628249  0.31397341  1
  Li  Li37  1  0.28678681  0.20717537  0.36164234  1
  Li  Li38  1  0.34914552  0.73873844  0.34143582  1
  Li  Li39  1  0.42966316  0.41423164  0.33655703  1
  Li  Li40  1  0.94365438  0.56754206  0.33555092  1
  Li  Li41  1  0.88418457  0.09575561  0.32919053  1
  Li  Li42  1  0.18679221  0.00796469  0.38880123  1
  Li  Li43  1  0.23894072  0.50551322  0.39821601  1
  Li  Li44  1  0.38662802  0.25026449  0.48193895  1
  Li  Li45  1  0.37714954  0.53111899  0.49822939  1
  Li  Li46  1  0.66843833  0.15480522  0.41861373  1
  Li  Li47  1  0.50462426  0.75442954  0.46085851  1
  Li  Li48  1  0.19272481  0.80833317  0.41704051  1
  Li  Li49  1  0.95981450  0.09107758  0.46849646  1
  Li  Li50  1  0.02675233  0.62622614  0.43879033  1
  Li  Li51  1  0.11496814  0.28151303  0.43475295  1
  Li  Li52  1  0.53281939  0.45219574  0.44118149  1
  Li  Li53  1  0.56037679  0.97158126  0.42749807  1
  Li  Li54  1  0.83348387  0.88749934  0.48279421  1
  Li  Li55  1  0.88092019  0.38913668  0.47553029  1
  Li  Li56  1  0.41494727  0.01013118  0.51454275  1
  Li  Li57  1  0.92461334  0.62240043  0.52046534  1
  Li  Li58  1  0.62336780  0.55259419  0.53119969  1
  Li  Li59  1  0.30466983  0.84813451  0.52269093  1
  P  P60  1  0.99628045  0.79400046  0.09122020  1
  P  P61  1  0.47819937  0.98128222  0.08374551  1
  P  P62  1  0.52882985  0.51572508  0.04948140  1
  P  P63  1  0.64103197  0.67189622  0.18642844  1
  P  P64  1  0.13840805  0.85676119  0.18709437  1
  P  P65  1  0.23282693  0.38711736  0.15436970  1
  P  P66  1  0.84890379  0.26046488  0.11711118  1
  P  P67  1  0.30653385  0.54898475  0.28762246  1
  P  P68  1  0.81554663  0.72744301  0.28737769  1
  P  P69  1  0.91702894  0.26603880  0.25544707  1
  P  P70  1  0.53162030  0.13395876  0.21913624  1
  P  P71  1  0.98377762  0.42000832  0.38796906  1
  P  P72  1  0.48097546  0.60466766  0.38845595  1
  P  P73  1  0.59013832  0.14241025  0.35593927  1
  P  P74  1  0.20404678  0.01077583  0.31952850  1
  P  P75  1  0.64388881  0.29503413  0.49120838  1
  P  P76  1  0.12751839  0.48160426  0.48422039  1
  P  P77  1  0.27301933  0.01561309  0.45802255  1
  P  P78  1  0.88939287  0.88850585  0.42105559  1
  P  P79  1  0.59452617  0.76017939  0.52548174  1
  S  S80  1  0.19611915  0.72891464  0.10094852  1
  S  S81  1  0.27346302  0.03752159  0.08150605  1
  S  S82  1  0.39895259  0.60990935  0.02292047  1
  S  S83  1  0.67794899  0.57940259  0.06539617  1
  S  S84  1  0.95592051  0.74749453  0.05145863  1
  S  S85  1  0.50399724  0.83041083  0.08285138  1
  S  S86  1  0.97375220  0.93948258  0.09208246  1
  S  S87  1  0.62936664  0.39555992  0.02735345  1
  S  S88  1  0.58386042  0.02643685  0.05309770  1
  S  S89  1  0.43016816  0.49086967  0.08600881  1
  S  S90  1  0.94324063  0.28439746  0.07945272  1
  S  S91  1  0.84492520  0.60523627  0.18902042  1
  S  S92  1  0.93544229  0.92556619  0.18432096  1
  S  S93  1  0.11350752  0.47967353  0.12517332  1
  S  S94  1  0.99177178  0.17007775  0.14253018  1
  S  S95  1  0.69083529  0.20430708  0.10694416  1
  S  S96  1  0.38843810  0.43584063  0.17115663  1
  S  S97  1  0.55965282  0.99511045  0.12439249  1
  S  S98  1  0.55203961  0.66100443  0.14722797  1
  S  S99  1  0.14738701  0.71104027  0.18380741  1
  S  S100  1  0.63126186  0.81786021  0.18985592  1
  S  S101  1  0.76505859  0.38144594  0.14180551  1
  S  S102  1  0.32606134  0.26680753  0.12963497  1
  S  S103  1  0.87391279  0.74665232  0.12084709  1
  S  S104  1  0.24055803  0.91318118  0.15683744  1
  S  S105  1  0.11656352  0.36510439  0.18815950  1
  S  S106  1  0.64028133  0.16263533  0.18480380  1
  S  S107  1  0.50860079  0.47990193  0.29192356  1
  S  S108  1  0.61299782  0.79611645  0.28329820  1
  S  S109  1  0.79304459  0.36240206  0.22819653  1
  S  S110  1  0.66161120  0.03732787  0.24544273  1
  S  S111  1  0.36993638  0.08877453  0.20447280  1
  S  S112  1  0.07589296  0.31117297  0.27224760  1
  S  S113  1  0.22569644  0.86636934  0.22656280  1
  S  S114  1  0.22677743  0.53515820  0.24748892  1
  S  S115  1  0.82694012  0.58210177  0.28335268  1
  S  S116  1  0.29536498  0.69434290  0.29148273  1
  S  S117  1  0.44627601  0.25112446  0.24574912  1
  S  S118  1  0.00704408  0.14900902  0.22946118  1
  S  S119  1  0.54124063  0.62045732  0.21804814  1
  S  S120  1  0.91863195  0.78120909  0.25657041  1
  S  S121  1  0.80279322  0.23816316  0.28916639  1
  S  S122  1  0.31791711  0.03788531  0.28562425  1
  S  S123  1  0.18645461  0.35005316  0.39079784  1
  S  S124  1  0.27699935  0.67073301  0.38584550  1
  S  S125  1  0.46069972  0.23892699  0.32946684  1
  S  S126  1  0.32821105  0.91449255  0.34673623  1
  S  S127  1  0.04466905  0.96573236  0.30297324  1
  S  S128  1  0.75164619  0.18779032  0.37070057  1
  S  S129  1  0.89558045  0.74196667  0.32739570  1
  S  S130  1  0.89556463  0.41058794  0.34858873  1
  S  S131  1  0.49124760  0.45848555  0.38515400  1
  S  S132  1  0.97533304  0.56554978  0.39109631  1
  S  S133  1  0.11467745  0.12806347  0.34547855  1
  S  S134  1  0.67535128  0.02546248  0.32923273  1
  S  S135  1  0.20228429  0.49554027  0.31824472  1
  S  S136  1  0.58030121  0.65620695  0.35680460  1
  S  S137  1  0.48186548  0.11340445  0.39025806  1
  S  S138  1  0.00440436  0.91127326  0.38714172  1
  S  S139  1  0.84841423  0.23798778  0.49319607  1
  S  S140  1  0.92765048  0.54779061  0.47481070  1
  S  S141  1  0.12930474  0.10637246  0.43291028  1
  S  S142  1  0.00923104  0.79582128  0.45012060  1
  S  S143  1  0.73328341  0.83985805  0.40439744  1
  S  S144  1  0.43120118  0.07216266  0.46794181  1
  S  S145  1  0.56999169  0.61563971  0.42766969  1
  S  S146  1  0.56149019  0.28197167  0.45057647  1
  S  S147  1  0.14782818  0.33653692  0.48334967  1
  S  S148  1  0.62010176  0.44580931  0.49228012  1
  S  S149  1  0.79606928  0.00889645  0.44579900  1
  S  S150  1  0.35661633  0.89487255  0.43318995  1
  S  S151  1  0.88152794  0.36433041  0.41844284  1
  S  S152  1  0.24919736  0.52842654  0.45429328  1
  S  S153  1  0.18067327  0.99109193  0.49585771  1
  S  S154  1  0.69066053  0.78624259  0.48878963  1
  S  S155  1  0.72522024  0.66622078  0.55198245  1
  S  S156  1  0.44512761  0.69619143  0.50993487  1
  S  S157  1  0.17025815  0.52775998  0.52387796  1
  S  S158  1  0.49442213  0.88005403  0.54782385  1
  S  S159  1  0.53751813  0.25040702  0.52180499  1
