# generated using pymatgen
data_Li3PS4
_symmetry_space_group_name_H-M   'P 1'
_cell_length_a   14.91536200
_cell_length_b   18.09023401
_cell_length_c   48.27647300
_cell_angle_alpha   90.00000000
_cell_angle_beta   90.00000000
_cell_angle_gamma   54.48401034
_symmetry_Int_Tables_number   1
_chemical_formula_structural   Li3PS4
_chemical_formula_sum   'Li108 P36 S144'
_cell_volume   10602.61700474
_cell_formula_units_Z   36
loop_
 _symmetry_equiv_pos_site_id
 _symmetry_equiv_pos_as_xyz
  1  'x, y, z'
loop_
 _atom_site_type_symbol
 _atom_site_label
 _atom_site_symmetry_multiplicity
 _atom_site_fract_x
 _atom_site_fract_y
 _atom_site_fract_z
 _atom_site_occupancy
  Li  Li0  1  0.73653937  0.87050375  0.02049771  1
  Li  Li1  1  0.46993493  0.67645111  0.09882970  1
  Li  Li2  1  0.67211245  0.02738245  0.07539286  1
  Li  Li3  1  0.68858763  0.53648257  0.07177075  1
  Li  Li4  1  0.47254605  0.45817718  0.12044675  1
  Li  Li5  1  0.39820861  0.12327841  0.11884060  1
  Li  Li6  1  0.58474092  0.29113350  0.06612383  1
  Li  Li7  1  0.23283327  0.19175199  0.06269689  1
  Li  Li8  1  0.92594123  0.48027384  0.11118028  1
  Li  Li9  1  0.23403566  0.56509920  0.05765550  1
  Li  Li10  1  0.08807583  0.07835831  0.07050389  1
  Li  Li11  1  0.44990714  0.13403445  0.00440800  1
  Li  Li12  1  0.01826023  0.64206927  0.11150673  1
  Li  Li13  1  0.22669842  0.72729227  0.06053060  1
  Li  Li14  1  0.63502107  0.82633144  0.08092116  1
  Li  Li15  1  0.75288292  0.34112322  0.06431230  1
  Li  Li16  1  0.44145371  0.27037614  0.13228856  1
  Li  Li17  1  0.96928122  0.29339304  0.12561830  1
  Li  Li18  1  0.13831632  0.37837284  0.06244527  1
  Li  Li19  1  0.05869553  0.84225032  0.10547884  1
  Li  Li20  1  0.20401787  0.55370643  0.16631052  1
  Li  Li21  1  0.92629767  0.43901076  0.23094853  1
  Li  Li22  1  0.38641925  0.93155978  0.13022451  1
  Li  Li23  1  0.11210924  0.81547485  0.20284149  1
  Li  Li24  1  0.18144124  0.35258976  0.18396199  1
  Li  Li25  1  0.90036685  0.24428827  0.24776359  1
  Li  Li26  1  0.85389077  0.90670165  0.24573606  1
  Li  Li27  1  0.12433345  0.01504711  0.18318296  1
  Li  Li28  1  0.64926464  0.01149581  0.19203432  1
  Li  Li29  1  0.92432825  0.11664905  0.12930290  1
  Li  Li30  1  0.38245167  0.25408077  0.23850797  1
  Li  Li31  1  0.65887732  0.37061132  0.17409789  1
  Li  Li32  1  0.58560082  0.83188676  0.19042311  1
  Li  Li33  1  0.84257513  0.94325642  0.13246758  1
  Li  Li34  1  0.46683679  0.42370272  0.23498869  1
  Li  Li35  1  0.72596652  0.54240907  0.17320607  1
  Li  Li36  1  0.97619203  0.64001791  0.21388510  1
  Li  Li37  1  0.33025017  0.73641532  0.15300966  1
  Li  Li38  1  0.15922732  0.16849186  0.18911446  1
  Li  Li39  1  0.88774525  0.05970536  0.25221661  1
  Li  Li40  1  0.35937669  0.07514631  0.24387646  1
  Li  Li41  1  0.68803300  0.18880282  0.18754061  1
  Li  Li42  1  0.79717831  0.74774179  0.13999894  1
  Li  Li43  1  0.51829035  0.62776674  0.22271037  1
  Li  Li44  1  0.64648522  0.33703722  0.29371641  1
  Li  Li45  1  0.37829183  0.22769246  0.35306940  1
  Li  Li46  1  0.82960362  0.71269286  0.26681028  1
  Li  Li47  1  0.55364096  0.60846529  0.32900391  1
  Li  Li48  1  0.63627671  0.14192705  0.31046631  1
  Li  Li49  1  0.36656352  0.03463127  0.37236237  1
  Li  Li50  1  0.30322588  0.70235245  0.37119259  1
  Li  Li51  1  0.57856286  0.80872452  0.30904385  1
  Li  Li52  1  0.10354456  0.78689510  0.31838466  1
  Li  Li53  1  0.38296036  0.89421092  0.25410079  1
  Li  Li54  1  0.82618405  0.04282780  0.36685158  1
  Li  Li55  1  0.10504177  0.14984595  0.30236905  1
  Li  Li56  1  0.03447778  0.62050179  0.31856367  1
  Li  Li57  1  0.30303983  0.73289157  0.25660380  1
  Li  Li58  1  0.91137523  0.21353874  0.36217812  1
  Li  Li59  1  0.19265495  0.32045994  0.29865749  1
  Li  Li60  1  0.42234041  0.43041321  0.34025609  1
  Li  Li61  1  0.70966883  0.53232882  0.27802737  1
  Li  Li62  1  0.59716029  0.99322131  0.30085881  1
  Li  Li63  1  0.32105135  0.88798009  0.36377825  1
  Li  Li64  1  0.79445134  0.86337031  0.37029261  1
  Li  Li65  1  0.08123187  0.96900054  0.30804970  1
  Li  Li66  1  0.24157805  0.53704549  0.26643207  1
  Li  Li67  1  0.96918311  0.42552707  0.33262616  1
  Li  Li68  1  0.09504637  0.12889972  0.41606894  1
  Li  Li69  1  0.82304496  0.01026429  0.48782294  1
  Li  Li70  1  0.27429654  0.50483188  0.39253967  1
  Li  Li71  1  0.00203377  0.38692788  0.45342104  1
  Li  Li72  1  0.08997015  0.92923798  0.43539359  1
  Li  Li73  1  0.81390458  0.81746248  0.49952437  1
  Li  Li74  1  0.73613096  0.48281515  0.49861553  1
  Li  Li75  1  0.02117168  0.59353860  0.43565183  1
  Li  Li76  1  0.54783265  0.57165446  0.44482708  1
  Li  Li77  1  0.82714295  0.67824548  0.38148160  1
  Li  Li78  1  0.28280887  0.82554729  0.49006083  1
  Li  Li79  1  0.55597038  0.93007979  0.42876822  1
  Li  Li80  1  0.48241491  0.39921560  0.44541214  1
  Li  Li81  1  0.75259884  0.51103586  0.38270285  1
  Li  Li82  1  0.36449408  0.99890709  0.48671459  1
  Li  Li83  1  0.61999300  0.11184341  0.42839079  1
  Li  Li84  1  0.87647778  0.20540178  0.46563516  1
  Li  Li85  1  0.22494609  0.30295609  0.40514314  1
  Li  Li86  1  0.04318678  0.78184999  0.42628658  1
  Li  Li87  1  0.76760591  0.67048355  0.48707662  1
  Li  Li88  1  0.23650603  0.64996770  0.49273806  1
  Li  Li89  1  0.51952923  0.75289706  0.43146936  1
  Li  Li90  1  0.68756488  0.31902563  0.39441567  1
  Li  Li91  1  0.40950496  0.19588172  0.47919085  1
  Li  Li92  1  0.53582115  0.91485835  0.54344066  1
  Li  Li93  1  0.73757844  0.26526202  0.52015701  1
  Li  Li94  1  0.47049903  0.07248958  0.59869218  1
  Li  Li95  1  0.62305366  0.64988718  0.55256117  1
  Li  Li96  1  0.51799617  0.40609567  0.54693203  1
  Li  Li97  1  0.97316377  0.37653726  0.56198464  1
  Li  Li98  1  0.28078306  0.46292070  0.50798516  1
  Li  Li99  1  0.97416457  0.75018000  0.55653744  1
  Li  Li100  1  0.97994002  0.21440436  0.55872213  1
  Li  Li101  1  0.18842775  0.29963865  0.50753907  1
  Li  Li102  1  0.75616373  0.80682404  0.61404890  1
  Li  Li103  1  0.12117017  0.86231703  0.54857383  1
  Li  Li104  1  0.57556761  0.11356960  0.53757408  1
  Li  Li105  1  0.45524880  0.60079825  0.55422942  1
  Li  Li106  1  0.06977923  0.56331131  0.55638674  1
  Li  Li107  1  0.14755338  0.10047115  0.51365942  1
  P  P108  1  0.92652213  0.78756024  0.06826298  1
  P  P109  1  0.51702261  0.99765814  0.04337757  1
  P  P110  1  0.21876806  0.90591947  0.10919803  1
  P  P111  1  0.17394414  0.38163288  0.12170611  1
  P  P112  1  0.47375479  0.48678225  0.05642317  1
  P  P113  1  0.99389542  0.28236380  0.06028421  1
  P  P114  1  0.68470077  0.20097684  0.12087008  1
  P  P115  1  0.63801817  0.68792014  0.12829827  1
  P  P116  1  0.36666456  0.57785785  0.19410071  1
  P  P117  1  0.94784696  0.79247473  0.17426698  1
  P  P118  1  0.67636550  0.68535340  0.23646447  1
  P  P119  1  0.62760447  0.16303111  0.24862291  1
  P  P120  1  0.89770517  0.27330404  0.18582537  1
  P  P121  1  0.40753752  0.09783722  0.18098603  1
  P  P122  1  0.13687880  0.99138181  0.24573569  1
  P  P123  1  0.08551469  0.47096445  0.25697709  1
  P  P124  1  0.80835619  0.36469339  0.32044980  1
  P  P125  1  0.39952731  0.57888671  0.29781712  1
  P  P126  1  0.12586630  0.47160352  0.36181607  1
  P  P127  1  0.07196238  0.95335510  0.37347766  1
  P  P128  1  0.34988128  0.05868191  0.31013636  1
  P  P129  1  0.85954415  0.88597071  0.30833320  1
  P  P130  1  0.58508933  0.77760242  0.37082139  1
  P  P131  1  0.52791988  0.25987026  0.38272495  1
  P  P132  1  0.26131629  0.14906495  0.44481567  1
  P  P133  1  0.84250798  0.36405385  0.42528305  1
  P  P134  1  0.56994065  0.25416831  0.49069222  1
  P  P135  1  0.52339012  0.74110300  0.49818261  1
  P  P136  1  0.79788914  0.84441583  0.43733866  1
  P  P137  1  0.30845950  0.67062219  0.43287131  1
  P  P138  1  0.03381108  0.55970617  0.49746508  1
  P  P139  1  0.98904146  0.03587704  0.50980567  1
  P  P140  1  0.69058809  0.94425710  0.57555681  1
  P  P141  1  0.28067753  0.15466958  0.55089818  1
  P  P142  1  0.21361291  0.65982219  0.55820237  1
  P  P143  1  0.73374840  0.45495016  0.56279373  1
  S  S144  1  0.09167899  0.70454425  0.08284522  1
  S  S145  1  0.35973691  0.08736798  0.02843454  1
  S  S146  1  0.05321666  0.98428023  0.10020420  1
  S  S147  1  0.07587953  0.49200652  0.09565598  1
  S  S148  1  0.35422837  0.59513975  0.03336752  1
  S  S149  1  0.10116356  0.19350420  0.09046205  1
  S  S150  1  0.92957958  0.22483410  0.04065505  1
  S  S151  1  0.58711740  0.18053685  0.09669317  1
  S  S152  1  0.54524859  0.51843308  0.08718327  1
  S  S153  1  0.52985218  0.99946187  0.08595608  1
  S  S154  1  0.62146470  0.68975345  0.08580386  1
  S  S155  1  0.92900375  0.77944054  0.02691124  1
  S  S156  1  0.58265891  0.86812697  0.03151256  1
  S  S157  1  0.27111073  0.77173259  0.10196631  1
  S  S158  1  0.87110613  0.91595179  0.08238242  1
  S  S159  1  0.86718819  0.39729030  0.08272308  1
  S  S160  1  0.28748576  0.27623640  0.09555958  1
  S  S161  1  0.59730401  0.38657672  0.03250664  1
  S  S162  1  0.84715076  0.73760741  0.08699081  1
  S  S163  1  0.29621195  0.94441441  0.08570836  1
  S  S164  1  0.61516744  0.03581664  0.02644815  1
  S  S165  1  0.39922986  0.43620074  0.07802611  1
  S  S166  1  0.07647579  0.31207911  0.03390252  1
  S  S167  1  0.77888967  0.22021092  0.09589354  1
  S  S168  1  0.79832064  0.60492744  0.14183141  1
  S  S169  1  0.53004683  0.49435612  0.20535882  1
  S  S170  1  0.78327932  0.87466597  0.16406807  1
  S  S171  1  0.51492912  0.76856054  0.22372086  1
  S  S172  1  0.52944612  0.26905321  0.22195440  1
  S  S173  1  0.80757106  0.38131512  0.15920756  1
  S  S174  1  0.50649512  0.98978692  0.20705609  1
  S  S175  1  0.78714923  0.09435995  0.14712051  1
  S  S176  1  0.31347463  0.08206645  0.15410291  1
  S  S177  1  0.04644500  0.97080685  0.21882968  1
  S  S178  1  0.26355786  0.39990174  0.14961073  1
  S  S179  1  0.98936590  0.28664770  0.21451637  1
  S  S180  1  0.98058171  0.77895963  0.21594425  1
  S  S181  1  0.25811596  0.90069777  0.15061043  1
  S  S182  1  0.05146136  0.47740511  0.21531810  1
  S  S183  1  0.33872130  0.58681898  0.15225915  1
  S  S184  1  0.00140539  0.66274487  0.16157445  1
  S  S185  1  0.72645439  0.55532168  0.22471955  1
  S  S186  1  0.58727024  0.81828696  0.13867479  1
  S  S187  1  0.31497739  0.70834274  0.20591185  1
  S  S188  1  0.29416972  0.20305570  0.20757583  1
  S  S189  1  0.57456835  0.31035550  0.14665884  1
  S  S190  1  0.74337478  0.05668582  0.22300945  1
  S  S191  1  0.01301004  0.16584943  0.16057645  1
  S  S192  1  0.28450562  0.53149833  0.21262231  1
  S  S193  1  0.55212248  0.64451290  0.14644537  1
  S  S194  1  0.75910454  0.73147997  0.21846491  1
  S  S195  1  0.02625872  0.84350862  0.15676877  1
  S  S196  1  0.07155446  0.36336336  0.14401987  1
  S  S197  1  0.79441443  0.25324890  0.20707738  1
  S  S198  1  0.50548989  0.12170744  0.15891825  1
  S  S199  1  0.23379194  0.01573220  0.22296590  1
  S  S200  1  0.25050990  0.39129666  0.26645260  1
  S  S201  1  0.97239203  0.28400249  0.33076342  1
  S  S202  1  0.23666249  0.66587845  0.28616466  1
  S  S203  1  0.96371530  0.55716099  0.34963822  1
  S  S204  1  0.96676893  0.06157030  0.34792783  1
  S  S205  1  0.24684050  0.16765267  0.28464910  1
  S  S206  1  0.95440583  0.77865149  0.33467498  1
  S  S207  1  0.23604283  0.88526419  0.27222684  1
  S  S208  1  0.77066697  0.86680987  0.28022004  1
  S  S209  1  0.49481497  0.76204355  0.34205679  1
  S  S210  1  0.71850787  0.18300488  0.27564343  1
  S  S211  1  0.44574342  0.07575364  0.33605383  1
  S  S212  1  0.42475812  0.57015907  0.33977512  1
  S  S213  1  0.69968839  0.67642994  0.27864302  1
  S  S214  1  0.50340661  0.26713150  0.34035113  1
  S  S215  1  0.77587942  0.37194181  0.27862301  1
  S  S216  1  0.44736826  0.45061249  0.28571958  1
  S  S217  1  0.17724986  0.34213415  0.34972665  1
  S  S218  1  0.03214571  0.60245865  0.26762609  1
  S  S219  1  0.75554873  0.49584282  0.33128690  1
  S  S220  1  0.74313284  0.99244349  0.33352534  1
  S  S221  1  0.02033613  0.09646922  0.27159136  1
  S  S222  1  0.18447373  0.84879339  0.34664155  1
  S  S223  1  0.46237805  0.95405873  0.28345328  1
  S  S224  1  0.72858018  0.31751782  0.33969040  1
  S  S225  1  0.00804013  0.42312370  0.27706942  1
  S  S226  1  0.20857311  0.51871988  0.34395210  1
  S  S227  1  0.48411001  0.62517374  0.27990792  1
  S  S228  1  0.52888590  0.14015348  0.27075232  1
  S  S229  1  0.25447055  0.03491192  0.33343313  1
  S  S230  1  0.96035328  0.90786530  0.28605907  1
  S  S231  1  0.68713158  0.79867880  0.34941764  1
  S  S232  1  0.68937440  0.17719095  0.39497418  1
  S  S233  1  0.42500525  0.06783810  0.45575249  1
  S  S234  1  0.67929192  0.44914720  0.41352099  1
  S  S235  1  0.40940977  0.33779481  0.47730987  1
  S  S236  1  0.42072485  0.84766049  0.47189589  1
  S  S237  1  0.69417014  0.95400278  0.41197835  1
  S  S238  1  0.39749422  0.56175568  0.45922605  1
  S  S239  1  0.67694257  0.66956673  0.39723572  1
  S  S240  1  0.21677487  0.65770370  0.40391849  1
  S  S241  1  0.94448268  0.54087882  0.46964290  1
  S  S242  1  0.16674739  0.97300329  0.39886096  1
  S  S243  1  0.89382835  0.86072208  0.46327938  1
  S  S244  1  0.86781433  0.35364050  0.46734744  1
  S  S245  1  0.14826896  0.46513677  0.40403611  1
  S  S246  1  0.95248144  0.04030739  0.46818807  1
  S  S247  1  0.23229829  0.15991288  0.40288063  1
  S  S248  1  0.89237896  0.23398670  0.41303915  1
  S  S249  1  0.62056975  0.12390032  0.48015470  1
  S  S250  1  0.47610567  0.39032256  0.39401985  1
  S  S251  1  0.20581313  0.27940559  0.45735159  1
  S  S252  1  0.19394645  0.77810702  0.45806135  1
  S  S253  1  0.46811093  0.88489361  0.39581518  1
  S  S254  1  0.63273322  0.63137897  0.47246934  1
  S  S255  1  0.90831910  0.73998756  0.41031390  1
  S  S256  1  0.18173919  0.09879937  0.46209630  1
  S  S257  1  0.44518344  0.21388942  0.40090654  1
  S  S258  1  0.65582671  0.29744187  0.47250182  1
  S  S259  1  0.92769559  0.40635539  0.40682518  1
  S  S260  1  0.97805506  0.92834261  0.39688178  1
  S  S261  1  0.70302114  0.81964605  0.46056141  1
  S  S262  1  0.41273734  0.68937157  0.41153348  1
  S  S263  1  0.13523874  0.57868929  0.47500386  1
  S  S264  1  0.15431982  0.95765183  0.51923941  1
  S  S265  1  0.84725399  0.85422650  0.59085762  1
  S  S266  1  0.11522317  0.23774552  0.53644353  1
  S  S267  1  0.10524950  0.74905452  0.52828543  1
  S  S268  1  0.85255131  0.34662915  0.58600335  1
  S  S269  1  0.13211974  0.44948324  0.52349846  1
  S  S270  1  0.66268887  0.42311352  0.53196806  1
  S  S271  1  0.62141189  0.76112317  0.52228284  1
  S  S272  1  0.27814965  0.71725296  0.57784109  1
  S  S273  1  0.27814994  0.16262160  0.59227999  1
  S  S274  1  0.58654264  0.25188669  0.53318439  1
  S  S275  1  0.67967794  0.94113651  0.53293238  1
  S  S276  1  0.33613620  0.02627664  0.53673939  1
  S  S277  1  0.93635193  0.17006264  0.51711909  1
  S  S278  1  0.62509005  0.07393075  0.58722755  1
  S  S279  1  0.60965253  0.55562872  0.58648385  1
  S  S280  1  0.92016537  0.66554163  0.52346393  1
  S  S281  1  0.34046575  0.54551525  0.53567615  1
  S  S282  1  0.59120384  0.90714484  0.59237024  1
  S  S283  1  0.91035347  0.99759178  0.53281196  1
  S  S284  1  0.35995236  0.20474019  0.53225738  1
  S  S285  1  0.42883451  0.72272460  0.52337157  1
  S  S286  1  0.13222120  0.62928340  0.58473443  1
  S  S287  1  0.80879673  0.50514532  0.54125243  1
