# generated using pymatgen
data_Li3PS4
_symmetry_space_group_name_H-M   'P 1'
_cell_length_a   6.25995100
_cell_length_b   8.10679100
_cell_length_c   52.23157800
_cell_angle_alpha   90.00000000
_cell_angle_beta   90.00000000
_cell_angle_gamma   90.00000000
_symmetry_Int_Tables_number   1
_chemical_formula_structural   Li3PS4
_chemical_formula_sum   'Li18 P6 S24'
_cell_volume   2650.65409706
_cell_formula_units_Z   6
loop_
 _symmetry_equiv_pos_site_id
 _symmetry_equiv_pos_as_xyz
  1  'x, y, z'
loop_
 _atom_site_type_symbol
 _atom_site_label
 _atom_site_symmetry_multiplicity
 _atom_site_fract_x
 _atom_site_fract_y
 _atom_site_fract_z
 _atom_site_occupancy
  Li  Li0  1  0.10751656  0.96770467  0.18936773  1
  Li  Li1  1  0.60806456  0.03803696  0.14778081  1
  Li  Li2  1  0.41448598  0.97606642  0.06995595  1
  Li  Li3  1  0.41448986  0.52392791  0.06995624  1
  Li  Li4  1  0.60806556  0.46195673  0.14778088  1
  Li  Li5  1  0.10751790  0.53229111  0.18936785  1
  Li  Li6  1  0.49994031  0.99997153  0.23120317  1
  Li  Li7  1  0.98127450  0.99245766  0.10629312  1
  Li  Li8  1  0.98124675  0.50754456  0.10629286  1
  Li  Li9  1  0.49994023  0.50002408  0.23120302  1
  Li  Li10  1  0.89108803  0.03214081  0.27312909  1
  Li  Li11  1  0.58609374  0.02420665  0.39261094  1
  Li  Li12  1  0.39188445  0.96205627  0.31476541  1
  Li  Li13  1  0.39188177  0.53795497  0.31476684  1
  Li  Li14  1  0.58608147  0.47580308  0.39261089  1
  Li  Li15  1  0.89105737  0.46783608  0.27312893  1
  Li  Li16  1  0.01889171  0.00745111  0.35628547  1
  Li  Li17  1  0.01889942  0.49255457  0.35628442  1
  P  P18  1  0.84545592  0.24999741  0.20875241  1
  P  P19  1  0.34642806  0.74999623  0.12866967  1
  P  P20  1  0.66776007  0.24999442  0.08329092  1
  P  P21  1  0.15443550  0.74999061  0.25373036  1
  P  P22  1  0.33273242  0.75001383  0.37926849  1
  P  P23  1  0.65364179  0.25000490  0.33389002  1
  S  S24  1  0.72786445  0.46329347  0.19268405  1
  S  S25  1  0.22725477  0.53665576  0.14426908  1
  S  S26  1  0.78094878  0.46080722  0.06668132  1
  S  S27  1  0.78094290  0.03917323  0.06668295  1
  S  S28  1  0.22725460  0.96333984  0.14426852  1
  S  S29  1  0.72786405  0.03670066  0.19268427  1
  S  S30  1  0.27364690  0.74999690  0.21630102  1
  S  S31  1  0.72614094  0.24999580  0.24616708  1
  S  S32  1  0.78214447  0.25000062  0.12129451  1
  S  S33  1  0.22942729  0.74999366  0.09087351  1
  S  S34  1  0.17055197  0.24999688  0.20594388  1
  S  S35  1  0.67181457  0.74999697  0.13174664  1
  S  S36  1  0.33900525  0.25000064  0.08181809  1
  S  S37  1  0.27185627  0.53657905  0.26978673  1
  S  S38  1  0.21971092  0.53913774  0.39586685  1
  S  S39  1  0.77270284  0.46335874  0.31829390  1
  S  S40  1  0.77269485  0.03664443  0.31829645  1
  S  S41  1  0.21971606  0.96087770  0.39587102  1
  S  S42  1  0.27185613  0.96341578  0.26978647  1
  S  S43  1  0.77105036  0.25001230  0.37166890  1
  S  S44  1  0.21788280  0.75003822  0.34128357  1
  S  S45  1  0.82912561  0.74999720  0.25646345  1
  S  S46  1  0.66138342  0.75000294  0.38074684  1
  S  S47  1  0.32828588  0.25000169  0.33081637  1
