# generated using pymatgen
data_Li3PS4
_symmetry_space_group_name_H-M   'P 1'
_cell_length_a   10.24241400
_cell_length_b   14.48086959
_cell_length_c   46.32433700
_cell_angle_alpha   90.00000000
_cell_angle_beta   90.00000000
_cell_angle_gamma   74.68014200
_symmetry_Int_Tables_number   1
_chemical_formula_structural   Li3PS4
_chemical_formula_sum   'Li54 P18 S72'
_cell_volume   6626.63516060
_cell_formula_units_Z   18
loop_
 _symmetry_equiv_pos_site_id
 _symmetry_equiv_pos_as_xyz
  1  'x, y, z'
loop_
 _atom_site_type_symbol
 _atom_site_label
 _atom_site_symmetry_multiplicity
 _atom_site_fract_x
 _atom_site_fract_y
 _atom_site_fract_z
 _atom_site_occupancy
  Li  Li0  1  0.66368886  0.70604637  0.08900548  1
  Li  Li1  1  0.69291701  0.25725176  0.07960528  1
  Li  Li2  1  0.40067151  0.34642498  0.02628996  1
  Li  Li3  1  0.19573644  0.55443142  0.07425245  1
  Li  Li4  1  0.17025354  0.15099650  0.05975258  1
  Li  Li5  1  0.29372892  0.73309254  0.07228453  1
  Li  Li6  1  0.73574198  0.92164780  0.06564545  1
  Li  Li7  1  0.83917321  0.40267615  0.06017337  1
  Li  Li8  1  0.32970182  0.58377048  0.19263250  1
  Li  Li9  1  0.64736513  0.02279774  0.11811633  1
  Li  Li10  1  0.58568565  0.49920452  0.13459097  1
  Li  Li11  1  0.39732324  0.12098467  0.17526014  1
  Li  Li12  1  0.09936643  0.16470797  0.13201049  1
  Li  Li13  1  0.87984699  0.43722386  0.17832301  1
  Li  Li14  1  0.92889861  0.96793240  0.15948721  1
  Li  Li15  1  0.03194443  0.64086748  0.15162354  1
  Li  Li16  1  0.55075641  0.79826838  0.15148960  1
  Li  Li17  1  0.47230790  0.32640350  0.14633743  1
  Li  Li18  1  0.18249033  0.36788733  0.10206949  1
  Li  Li19  1  0.16283354  0.86695742  0.12022532  1
  Li  Li20  1  0.00007434  0.45661364  0.29409967  1
  Li  Li21  1  0.33452851  0.89781042  0.21210361  1
  Li  Li22  1  0.26081431  0.36424133  0.23510224  1
  Li  Li23  1  0.06465475  0.98165773  0.27643126  1
  Li  Li24  1  0.77959902  0.03465368  0.23304340  1
  Li  Li25  1  0.55241693  0.31736596  0.27893828  1
  Li  Li26  1  0.61192264  0.84111700  0.25997611  1
  Li  Li27  1  0.69732929  0.51516106  0.25352374  1
  Li  Li28  1  0.21787965  0.67097100  0.25245949  1
  Li  Li29  1  0.17719658  0.15932589  0.26345035  1
  Li  Li30  1  0.79033265  0.23281797  0.20568840  1
  Li  Li31  1  0.83866121  0.73028192  0.21680161  1
  Li  Li32  1  0.67916420  0.33740451  0.39248374  1
  Li  Li33  1  0.00520405  0.76984236  0.31340275  1
  Li  Li34  1  0.93033386  0.23708493  0.33729821  1
  Li  Li35  1  0.74619625  0.85473511  0.37891612  1
  Li  Li36  1  0.45203168  0.92042042  0.33150290  1
  Li  Li37  1  0.22895660  0.18932148  0.38051047  1
  Li  Li38  1  0.28455621  0.72484068  0.35832238  1
  Li  Li39  1  0.37993369  0.38388937  0.35334699  1
  Li  Li40  1  0.88836929  0.54510573  0.35263564  1
  Li  Li41  1  0.85290492  0.03354703  0.36387541  1
  Li  Li42  1  0.54930450  0.12260008  0.30578562  1
  Li  Li43  1  0.50504916  0.60924214  0.31478187  1
  Li  Li44  1  0.67385200  0.64702282  0.40548563  1
  Li  Li45  1  0.63834690  0.10477244  0.43215237  1
  Li  Li46  1  0.15099933  0.78729548  0.43702563  1
  Li  Li47  1  0.92805087  0.01423198  0.48587243  1
  Li  Li48  1  0.85636486  0.66299190  0.44970846  1
  Li  Li49  1  0.16242074  0.20513169  0.45196611  1
  Li  Li50  1  0.58952136  0.45138596  0.44263629  1
  Li  Li51  1  0.48897129  0.95475174  0.45157904  1
  Li  Li52  1  0.13888800  0.98573276  0.41014369  1
  Li  Li53  1  0.16924266  0.49266454  0.39959827  1
  P  P54  1  0.50845589  0.49548825  0.07166771  1
  P  P55  1  0.13283489  0.34635041  0.03735273  1
  P  P56  1  0.90504853  0.78003231  0.10209073  1
  P  P57  1  0.40435973  0.95885369  0.10391332  1
  P  P58  1  0.17790622  0.37256008  0.17293686  1
  P  P59  1  0.79479744  0.23474913  0.13804966  1
  P  P60  1  0.57606187  0.65225847  0.20526680  1
  P  P61  1  0.07653612  0.82993978  0.20494614  1
  P  P62  1  0.85291089  0.24188338  0.27409919  1
  P  P63  1  0.47869549  0.10956230  0.23846359  1
  P  P64  1  0.24985958  0.52471283  0.30610337  1
  P  P65  1  0.75072539  0.70376091  0.30576784  1
  P  P66  1  0.53345021  0.12035961  0.37400033  1
  P  P67  1  0.14930191  0.98613436  0.33833669  1
  P  P68  1  0.92463079  0.39908173  0.40784353  1
  P  P69  1  0.42193445  0.58510686  0.40324582  1
  P  P70  1  0.19713748  0.00926878  0.47433356  1
  P  P71  1  0.83251341  0.86424271  0.44143484  1
  S  S72  1  0.37872100  0.59106788  0.04551047  1
  S  S73  1  0.29659549  0.26499797  0.06166380  1
  S  S74  1  0.99677969  0.26481458  0.03311634  1
  S  S75  1  0.66821695  0.53879288  0.08875850  1
  S  S76  1  0.83765057  0.75913057  0.06200921  1
  S  S77  1  0.03846644  0.46214595  0.06385481  1
  S  S78  1  0.60193734  0.37985577  0.04581833  1
  S  S79  1  0.50880865  0.01401743  0.07415276  1
  S  S80  1  0.19891613  0.38727809  0.00017327  1
  S  S81  1  0.11108770  0.71277023  0.10697267  1
  S  S82  1  0.19974785  0.02139327  0.09956057  1
  S  S83  1  0.05422144  0.46908044  0.14572137  1
  S  S84  1  0.92041060  0.13788561  0.16499995  1
  S  S85  1  0.63100538  0.19068106  0.12278260  1
  S  S86  1  0.34242887  0.41388365  0.18864179  1
  S  S87  1  0.47608891  0.97414561  0.14496954  1
  S  S88  1  0.49601781  0.64277211  0.16509254  1
  S  S89  1  0.42848799  0.81129938  0.10102912  1
  S  S90  1  0.88567416  0.92673924  0.10783445  1
  S  S91  1  0.70760074  0.35426388  0.16333815  1
  S  S92  1  0.26398906  0.25512118  0.14627480  1
  S  S93  1  0.80594227  0.72324616  0.13289161  1
  S  S94  1  0.16945471  0.89028255  0.17364891  1
  S  S95  1  0.39617064  0.46630018  0.10636099  1
  S  S96  1  0.90302007  0.25875402  0.10307874  1
  S  S97  1  0.77678174  0.57881159  0.20948134  1
  S  S98  1  0.87181779  0.89187341  0.20346824  1
  S  S99  1  0.72970451  0.34078812  0.24723791  1
  S  S100  1  0.60303696  0.01053806  0.26533938  1
  S  S101  1  0.31669224  0.06832039  0.22211584  1
  S  S102  1  0.01246171  0.28536559  0.29123666  1
  S  S103  1  0.16779475  0.84630640  0.24352561  1
  S  S104  1  0.16979116  0.50980735  0.26639346  1
  S  S105  1  0.09579536  0.68367672  0.20090103  1
  S  S106  1  0.57046533  0.79624009  0.20995607  1
  S  S107  1  0.39204520  0.22655688  0.26480976  1
  S  S108  1  0.94113765  0.12464122  0.24826955  1
  S  S109  1  0.47000861  0.59831586  0.23562192  1
  S  S110  1  0.84888363  0.75796754  0.27416247  1
  S  S111  1  0.06998012  0.34156666  0.20666720  1
  S  S112  1  0.59136918  0.13767804  0.20478470  1
  S  S113  1  0.45140056  0.45387023  0.31040827  1
  S  S114  1  0.54723507  0.76931863  0.30385122  1
  S  S115  1  0.40533246  0.21248463  0.34646120  1
  S  S116  1  0.27854581  0.89202386  0.36499089  1
  S  S117  1  0.98729129  0.94021211  0.32352491  1
  S  S118  1  0.69570192  0.16852980  0.38825934  1
  S  S119  1  0.84024211  0.71976085  0.34476744  1
  S  S120  1  0.85600317  0.38456956  0.36670776  1
  S  S121  1  0.76635140  0.55746117  0.30245216  1
  S  S122  1  0.23983799  0.66975617  0.30937308  1
  S  S123  1  0.06260274  0.10232485  0.36513979  1
  S  S124  1  0.62336754  0.99905935  0.34965455  1
  S  S125  1  0.14579878  0.47080459  0.33732726  1
  S  S126  1  0.51749128  0.63205129  0.36953291  1
  S  S127  1  0.73938264  0.21523035  0.30805778  1
  S  S128  1  0.25572535  0.01557964  0.30368410  1
  S  S129  1  0.12835879  0.33244855  0.41296255  1
  S  S130  1  0.21811269  0.64993395  0.40143078  1
  S  S131  1  0.03341115  0.09236961  0.45031152  1
  S  S132  1  0.96447485  0.77333591  0.46812448  1
  S  S133  1  0.68119851  0.80313071  0.42720914  1
  S  S134  1  0.33378955  0.09024412  0.47892361  1
  S  S135  1  0.50765426  0.61569920  0.44054810  1
  S  S136  1  0.44065827  0.43651373  0.40214868  1
  S  S137  1  0.91332123  0.54597703  0.40996863  1
  S  S138  1  0.72670604  0.98053264  0.46544031  1
  S  S139  1  0.29152411  0.89420757  0.44750837  1
  S  S140  1  0.81355013  0.34966635  0.43750980  1
  S  S141  1  0.42808447  0.09756547  0.40965022  1
  S  S142  1  0.93583830  0.89226260  0.40555689  1
  S  S143  1  0.13084261  0.96792323  0.51142587  1
