# generated using pymatgen
data_Li3PS4
_symmetry_space_group_name_H-M   'P 1'
_cell_length_a   14.91536200
_cell_length_b   18.09023401
_cell_length_c   48.27647300
_cell_angle_alpha   90.00000000
_cell_angle_beta   90.00000000
_cell_angle_gamma   54.48401034
_symmetry_Int_Tables_number   1
_chemical_formula_structural   Li3PS4
_chemical_formula_sum   'Li108 P36 S144'
_cell_volume   10602.61700474
_cell_formula_units_Z   36
loop_
 _symmetry_equiv_pos_site_id
 _symmetry_equiv_pos_as_xyz
  1  'x, y, z'
loop_
 _atom_site_type_symbol
 _atom_site_label
 _atom_site_symmetry_multiplicity
 _atom_site_fract_x
 _atom_site_fract_y
 _atom_site_fract_z
 _atom_site_occupancy
  Li  Li0  1  0.71417010  0.88126982  0.01418615  1
  Li  Li1  1  0.44613324  0.68875662  0.09263519  1
  Li  Li2  1  0.64932735  0.03807342  0.06949315  1
  Li  Li3  1  0.66650536  0.54643836  0.06632814  1
  Li  Li4  1  0.44732857  0.47017153  0.11449307  1
  Li  Li5  1  0.37232806  0.13446472  0.11305048  1
  Li  Li6  1  0.56115026  0.30342652  0.06062482  1
  Li  Li7  1  0.21170649  0.20248599  0.05659020  1
  Li  Li8  1  0.90304517  0.12766013  0.12307210  1
  Li  Li9  1  0.90427365  0.49031242  0.10496578  1
  Li  Li10  1  0.21185627  0.57681197  0.05098078  1
  Li  Li11  1  0.06391626  0.09045980  0.06450597  1
  Li  Li12  1  0.42820501  0.14472099  0.99841495  1
  Li  Li13  1  0.99635659  0.65287744  0.10538462  1
  Li  Li14  1  0.20511083  0.73891996  0.05440358  1
  Li  Li15  1  0.61138417  0.83790318  0.07496465  1
  Li  Li16  1  0.73140521  0.35075990  0.05846640  1
  Li  Li17  1  0.41786130  0.28137121  0.12524711  1
  Li  Li18  1  0.94764291  0.30438922  0.11997858  1
  Li  Li19  1  0.11614752  0.38917286  0.05652082  1
  Li  Li20  1  0.03670124  0.85260603  0.09919265  1
  Li  Li21  1  0.18087549  0.56555983  0.16030337  1
  Li  Li22  1  0.91074450  0.44827107  0.22038409  1
  Li  Li23  1  0.36231393  0.94273430  0.12528909  1
  Li  Li24  1  0.08885910  0.82597535  0.19682572  1
  Li  Li25  1  0.16404386  0.35978099  0.17713574  1
  Li  Li26  1  0.88047079  0.25203817  0.24175857  1
  Li  Li27  1  0.82080554  0.91828871  0.24035305  1
  Li  Li28  1  0.09551148  0.02526842  0.17736383  1
  Li  Li29  1  0.62915776  0.02412116  0.18429712  1
  Li  Li30  1  0.35955180  0.91165481  0.24583519  1
  Li  Li31  1  0.35622993  0.27526666  0.23117985  1
  Li  Li32  1  0.63813356  0.38088655  0.16757675  1
  Li  Li33  1  0.56331898  0.84164171  0.18444210  1
  Li  Li34  1  0.82039612  0.95493633  0.12601414  1
  Li  Li35  1  0.44566934  0.43528970  0.22877714  1
  Li  Li36  1  0.70102134  0.55433488  0.16751230  1
  Li  Li37  1  0.95173634  0.65282465  0.20736315  1
  Li  Li38  1  0.30707604  0.74789634  0.14723838  1
  Li  Li39  1  0.14033145  0.17289279  0.18607143  1
  Li  Li40  1  0.86395718  0.06645315  0.24923066  1
  Li  Li41  1  0.39129027  0.09020473  0.24246540  1
  Li  Li42  1  0.66667275  0.20031173  0.18134217  1
  Li  Li43  1  0.77520625  0.75733469  0.13375589  1
  Li  Li44  1  0.49951866  0.63342309  0.21972576  1
  Li  Li45  1  0.62584753  0.34828197  0.28681263  1
  Li  Li46  1  0.35819903  0.23581049  0.34668020  1
  Li  Li47  1  0.80432431  0.72799374  0.25983394  1
  Li  Li48  1  0.53887281  0.61095012  0.32024497  1
  Li  Li49  1  0.60784756  0.14372270  0.30356802  1
  Li  Li50  1  0.33224120  0.04518203  0.36711115  1
  Li  Li51  1  0.28437317  0.70845374  0.36486399  1
  Li  Li52  1  0.54761246  0.81020778  0.30233423  1
  Li  Li53  1  0.07933538  0.80431382  0.31032626  1
  Li  Li54  1  0.80510865  0.69848054  0.37390913  1
  Li  Li55  1  0.80327206  0.06003696  0.35900823  1
  Li  Li56  1  0.08459899  0.16631176  0.29379208  1
  Li  Li57  1  0.00786746  0.62832982  0.31267408  1
  Li  Li58  1  0.27635648  0.74271875  0.25088180  1
  Li  Li59  1  0.88908376  0.22080936  0.35553034  1
  Li  Li60  1  0.15624213  0.33507631  0.29375028  1
  Li  Li61  1  0.39916400  0.43985461  0.33289752  1
  Li  Li62  1  0.76332956  0.52205764  0.27315810  1
  Li  Li63  1  0.59124654  0.95618031  0.31260884  1
  Li  Li64  1  0.29909895  0.89127397  0.36074871  1
  Li  Li65  1  0.83025620  0.87842763  0.36922046  1
  Li  Li66  1  0.10496308  0.98570888  0.30508166  1
  Li  Li67  1  0.21734091  0.54570083  0.26023450  1
  Li  Li68  1  0.94709593  0.41848764  0.34558474  1
  Li  Li69  1  0.07393160  0.13790603  0.41016561  1
  Li  Li70  1  0.80158627  0.02048320  0.48214510  1
  Li  Li71  1  0.25459266  0.51445255  0.38586622  1
  Li  Li72  1  0.98364524  0.39751388  0.44632665  1
  Li  Li73  1  0.06316774  0.93661692  0.42961206  1
  Li  Li74  1  0.78820609  0.82892083  0.49406412  1
  Li  Li75  1  0.71601991  0.49232125  0.49186126  1
  Li  Li76  1  0.00094232  0.60133948  0.42939200  1
  Li  Li77  1  0.52733928  0.58241730  0.43857333  1
  Li  Li78  1  0.25979727  0.47357704  0.50153712  1
  Li  Li79  1  0.26114137  0.83783633  0.48361689  1
  Li  Li80  1  0.53772862  0.94072126  0.42079504  1
  Li  Li81  1  0.46213120  0.40906135  0.43902453  1
  Li  Li82  1  0.72096742  0.52868977  0.37767993  1
  Li  Li83  1  0.34459140  0.00871324  0.48022099  1
  Li  Li84  1  0.60091104  0.12263842  0.42221804  1
  Li  Li85  1  0.85284312  0.21716406  0.45939383  1
  Li  Li86  1  0.21165931  0.31091155  0.39920548  1
  Li  Li87  1  0.02913481  0.78107368  0.42524057  1
  Li  Li88  1  0.74511636  0.68169436  0.48093124  1
  Li  Li89  1  0.21932980  0.65839736  0.48737293  1
  Li  Li90  1  0.50131380  0.76226957  0.42501995  1
  Li  Li91  1  0.66503815  0.33070626  0.38672089  1
  Li  Li92  1  0.38973989  0.20513931  0.47274492  1
  Li  Li93  1  0.51533132  0.92611295  0.53687787  1
  Li  Li94  1  0.71733478  0.27493591  0.51457520  1
  Li  Li95  1  0.44903177  0.08256608  0.59231716  1
  Li  Li96  1  0.60320138  0.65990971  0.54587084  1
  Li  Li97  1  0.49734547  0.41669897  0.54129381  1
  Li  Li98  1  0.95291975  0.38728791  0.55515393  1
  Li  Li99  1  0.95359123  0.76165960  0.55036044  1
  Li  Li100  1  0.95940298  0.22538436  0.55229540  1
  Li  Li101  1  0.16876529  0.31096860  0.50143438  1
  Li  Li102  1  0.73338101  0.81700367  0.60791168  1
  Li  Li103  1  0.09985649  0.87407308  0.54219414  1
  Li  Li104  1  0.55263181  0.12646135  0.53217655  1
  Li  Li105  1  0.43361293  0.61288623  0.54853187  1
  Li  Li106  1  0.04913365  0.57414549  0.55050994  1
  Li  Li107  1  0.12734168  0.11085596  0.50724639  1
  P  P108  1  0.90403628  0.79831875  0.06195380  1
  P  P109  1  0.49438623  0.00855570  0.03733171  1
  P  P110  1  0.19540452  0.91723437  0.10319484  1
  P  P111  1  0.15186847  0.39299002  0.11547164  1
  P  P112  1  0.45082525  0.49813345  0.05048427  1
  P  P113  1  0.97229660  0.29285855  0.05451946  1
  P  P114  1  0.66290411  0.21152930  0.11469098  1
  P  P115  1  0.61458515  0.69881999  0.12214336  1
  P  P116  1  0.34404808  0.58894698  0.18798767  1
  P  P117  1  0.92421584  0.80431804  0.16799221  1
  P  P118  1  0.65648118  0.69393797  0.23022806  1
  P  P119  1  0.59997472  0.17621973  0.24189527  1
  P  P120  1  0.87654798  0.28331153  0.17996049  1
  P  P121  1  0.38663670  0.10897007  0.17531939  1
  P  P122  1  0.11377826  0.00093914  0.23932839  1
  P  P123  1  0.05913328  0.48338583  0.24988352  1
  P  P124  1  0.79011293  0.37328136  0.31499836  1
  P  P125  1  0.37421241  0.58951482  0.29143779  1
  P  P126  1  0.10426031  0.48089840  0.35684779  1
  P  P127  1  0.04919039  0.96202772  0.36709687  1
  P  P128  1  0.32823811  0.06621881  0.30450217  1
  P  P129  1  0.83589097  0.89490874  0.30262994  1
  P  P130  1  0.56000041  0.78798185  0.36407196  1
  P  P131  1  0.50745316  0.26888850  0.37614528  1
  P  P132  1  0.23934258  0.15960518  0.43863218  1
  P  P133  1  0.82077985  0.37456115  0.41838428  1
  P  P134  1  0.54879822  0.26487295  0.48464393  1
  P  P135  1  0.50187221  0.75174272  0.49173154  1
  P  P136  1  0.77889731  0.85475962  0.43190714  1
  P  P137  1  0.28917003  0.67928188  0.42706959  1
  P  P138  1  0.01240717  0.57084819  0.49139136  1
  P  P139  1  0.96786288  0.04717574  0.50356147  1
  P  P140  1  0.66908510  0.95468101  0.56954828  1
  P  P141  1  0.26023725  0.16468028  0.54447624  1
  P  P142  1  0.19249622  0.67079308  0.55251211  1
  P  P143  1  0.71363896  0.46546762  0.55622808  1
  S  S144  1  0.06929350  0.71539026  0.07649214  1
  S  S145  1  0.33735113  0.09818139  0.02217410  1
  S  S146  1  0.03011035  0.99556718  0.09385299  1
  S  S147  1  0.05345394  0.50302659  0.08935701  1
  S  S148  1  0.33248452  0.60642956  0.02718733  1
  S  S149  1  0.07990965  0.20406173  0.08461643  1
  S  S150  1  0.90801127  0.23533608  0.03481241  1
  S  S151  1  0.56546063  0.19085425  0.09055348  1
  S  S152  1  0.52115227  0.53017740  0.08142453  1
  S  S153  1  0.50610160  0.01135229  0.07991995  1
  S  S154  1  0.59837473  0.70064078  0.07964612  1
  S  S155  1  0.90638064  0.79018937  0.02059158  1
  S  S156  1  0.56024579  0.87892954  0.02551862  1
  S  S157  1  0.24770711  0.78302743  0.09603831  1
  S  S158  1  0.84866888  0.92677529  0.07604536  1
  S  S159  1  0.84519300  0.40737971  0.07701730  1
  S  S160  1  0.26554537  0.28700392  0.08945101  1
  S  S161  1  0.57478101  0.39741940  0.02676768  1
  S  S162  1  0.82484239  0.74829050  0.08073910  1
  S  S163  1  0.27443157  0.95500590  0.08012198  1
  S  S164  1  0.59308354  0.04627959  0.02047095  1
  S  S165  1  0.37513589  0.44817956  0.07190330  1
  S  S166  1  0.05420617  0.32301581  0.02806834  1
  S  S167  1  0.75754298  0.22996676  0.08958804  1
  S  S168  1  0.77502696  0.61511523  0.13558351  1
  S  S169  1  0.50809650  0.50515068  0.19880343  1
  S  S170  1  0.76045537  0.88571325  0.15718331  1
  S  S171  1  0.49471233  0.77599689  0.21816982  1
  S  S172  1  0.50752300  0.28243193  0.21483340  1
  S  S173  1  0.78736765  0.39216614  0.15359696  1
  S  S174  1  0.49049106  0.99935066  0.20064179  1
  S  S175  1  0.76554495  0.10523519  0.14103747  1
  S  S176  1  0.29074696  0.09263550  0.14935901  1
  S  S177  1  0.01925653  0.98071037  0.21403868  1
  S  S178  1  0.24182985  0.41155399  0.14312727  1
  S  S179  1  0.96809754  0.29587169  0.20898718  1
  S  S180  1  0.95405730  0.79251952  0.20986064  1
  S  S181  1  0.23240761  0.91289887  0.14477173  1
  S  S182  1  0.03423982  0.48920941  0.20775038  1
  S  S183  1  0.31504757  0.59869809  0.14620493  1
  S  S184  1  0.97875928  0.67416901  0.15543816  1
  S  S185  1  0.70929339  0.56340712  0.21876535  1
  S  S186  1  0.56432464  0.82900248  0.13264252  1
  S  S187  1  0.29210652  0.71893500  0.20015356  1
  S  S188  1  0.27599157  0.21333385  0.20233315  1
  S  S189  1  0.55262628  0.32139921  0.14025443  1
  S  S190  1  0.71804718  0.06847280  0.21716251  1
  S  S191  1  0.99104434  0.17604098  0.15471581  1
  S  S192  1  0.26262478  0.54176714  0.20647983  1
  S  S193  1  0.52818478  0.65606867  0.14033392  1
  S  S194  1  0.73689693  0.74196262  0.21191096  1
  S  S195  1  0.00368190  0.85466889  0.15068599  1
  S  S196  1  0.05009435  0.37446603  0.13794702  1
  S  S197  1  0.77225780  0.26423882  0.20113690  1
  S  S198  1  0.48191039  0.13337988  0.15211186  1
  S  S199  1  0.20741895  0.02584608  0.21573235  1
  S  S200  1  0.22170020  0.40205456  0.26156236  1
  S  S201  1  0.95445735  0.28869701  0.32576654  1
  S  S202  1  0.21045658  0.67449629  0.28046751  1
  S  S203  1  0.94131061  0.56276512  0.34559629  1
  S  S204  1  0.95007430  0.06858839  0.34073074  1
  S  S205  1  0.23453068  0.17492349  0.27844310  1
  S  S206  1  0.93885659  0.78522254  0.32789268  1
  S  S207  1  0.21939741  0.89363629  0.26508422  1
  S  S208  1  0.73926076  0.87923826  0.27653586  1
  S  S209  1  0.46902277  0.76668255  0.33745228  1
  S  S210  1  0.68860469  0.19409210  0.27045455  1
  S  S211  1  0.41825765  0.08296764  0.33288340  1
  S  S212  1  0.40324178  0.57878443  0.33335708  1
  S  S213  1  0.68200707  0.68604911  0.27248786  1
  S  S214  1  0.48322602  0.27529947  0.33390025  1
  S  S215  1  0.76002018  0.38303388  0.27321914  1
  S  S216  1  0.42420433  0.46010215  0.27946387  1
  S  S217  1  0.15695593  0.35044369  0.34517715  1
  S  S218  1  0.00588664  0.61408240  0.26133697  1
  S  S219  1  0.74015616  0.50267097  0.32696465  1
  S  S220  1  0.72419196  0.99887482  0.32955082  1
  S  S221  1  0.00115039  0.10551628  0.26606150  1
  S  S222  1  0.16517415  0.85677594  0.34116224  1
  S  S223  1  0.44376499  0.95987640  0.27913537  1
  S  S224  1  0.70773189  0.32677708  0.33331159  1
  S  S225  1  0.97949896  0.43516167  0.26870682  1
  S  S226  1  0.18399140  0.52888894  0.33798372  1
  S  S227  1  0.45780560  0.63545122  0.27352755  1
  S  S228  1  0.49762832  0.15548054  0.26323302  1
  S  S229  1  0.22633635  0.04504440  0.32650124  1
  S  S230  1  0.93091693  0.91940218  0.27942418  1
  S  S231  1  0.65837519  0.81017795  0.34145294  1
  S  S232  1  0.66910735  0.18764210  0.38859483  1
  S  S233  1  0.40395032  0.07749402  0.44878846  1
  S  S234  1  0.65703600  0.45897798  0.40736010  1
  S  S235  1  0.38855120  0.34814152  0.47105358  1
  S  S236  1  0.40004806  0.85771012  0.46525966  1
  S  S237  1  0.68034294  0.96323361  0.40599254  1
  S  S238  1  0.37944369  0.57061789  0.45342428  1
  S  S239  1  0.65922748  0.68270865  0.39087515  1
  S  S240  1  0.19640024  0.66674601  0.39849679  1
  S  S241  1  0.92256649  0.55164417  0.46387732  1
  S  S242  1  0.14028573  0.98195483  0.39397949  1
  S  S243  1  0.87312684  0.86996193  0.45898847  1
  S  S244  1  0.84933605  0.36453614  0.46022568  1
  S  S245  1  0.13123380  0.47369957  0.39893874  1
  S  S246  1  0.92969068  0.05179421  0.46206324  1
  S  S247  1  0.20636901  0.17335152  0.39692733  1
  S  S248  1  0.87176728  0.24475544  0.40630128  1
  S  S249  1  0.59990853  0.13459473  0.47408557  1
  S  S250  1  0.45475775  0.39950712  0.38749042  1
  S  S251  1  0.18584563  0.28921231  0.45141002  1
  S  S252  1  0.17463967  0.78646350  0.45251828  1
  S  S253  1  0.44436102  0.89493203  0.38952432  1
  S  S254  1  0.61244742  0.64161010  0.46621299  1
  S  S255  1  0.89233488  0.74975583  0.40526653  1
  S  S256  1  0.16094865  0.10845591  0.45600461  1
  S  S257  1  0.42726090  0.22100071  0.39467444  1
  S  S258  1  0.63487679  0.30827750  0.46664773  1
  S  S259  1  0.90292969  0.42119755  0.40002897  1
  S  S260  1  0.95249513  0.93760920  0.38992361  1
  S  S261  1  0.68136318  0.83037072  0.45394471  1
  S  S262  1  0.39174013  0.69949974  0.40554901  1
  S  S263  1  0.11378995  0.58965624  0.46875758  1
  S  S264  1  0.13335354  0.96897704  0.51275644  1
  S  S265  1  0.82559123  0.86379450  0.58484387  1
  S  S266  1  0.09510118  0.24798225  0.52989570  1
  S  S267  1  0.08550580  0.75928800  0.52227940  1
  S  S268  1  0.83264338  0.35755901  0.57951676  1
  S  S269  1  0.11152793  0.46065808  0.51743958  1
  S  S270  1  0.64206106  0.43337581  0.52565907  1
  S  S271  1  0.59914418  0.77246733  0.51596116  1
  S  S272  1  0.25700394  0.72825043  0.57212495  1
  S  S273  1  0.25708296  0.17260065  0.58585443  1
  S  S274  1  0.56447846  0.26322000  0.52719668  1
  S  S275  1  0.65787770  0.95331749  0.52688731  1
  S  S276  1  0.31583137  0.03641393  0.53019986  1
  S  S277  1  0.91528058  0.18139358  0.51069736  1
  S  S278  1  0.60413021  0.08395641  0.58157829  1
  S  S279  1  0.59031290  0.56653318  0.58001819  1
  S  S280  1  0.89951486  0.67639153  0.51755956  1
  S  S281  1  0.31941780  0.55577126  0.53015179  1
  S  S282  1  0.56920225  0.91757209  0.58591937  1
  S  S283  1  0.89014717  0.00864455  0.52688476  1
  S  S284  1  0.33982062  0.21476862  0.52597218  1
  S  S285  1  0.40717766  0.73318230  0.51678157  1
  S  S286  1  0.10993736  0.64133281  0.57897416  1
  S  S287  1  0.78871308  0.51514399  0.53438379  1
