# generated using pymatgen
data_Li3PS4
_symmetry_space_group_name_H-M   'P 1'
_cell_length_a   6.25995100
_cell_length_b   8.10679100
_cell_length_c   52.23157800
_cell_angle_alpha   90.00000000
_cell_angle_beta   90.00000000
_cell_angle_gamma   90.00000000
_symmetry_Int_Tables_number   1
_chemical_formula_structural   Li3PS4
_chemical_formula_sum   'Li18 P6 S24'
_cell_volume   2650.65409706
_cell_formula_units_Z   6
loop_
 _symmetry_equiv_pos_site_id
 _symmetry_equiv_pos_as_xyz
  1  'x, y, z'
loop_
 _atom_site_type_symbol
 _atom_site_label
 _atom_site_symmetry_multiplicity
 _atom_site_fract_x
 _atom_site_fract_y
 _atom_site_fract_z
 _atom_site_occupancy
  Li  Li0  1  0.10756280  0.96798878  0.20062502  1
  Li  Li1  1  0.60788766  0.03723026  0.15871641  1
  Li  Li2  1  0.41636530  0.97522997  0.08153364  1
  Li  Li3  1  0.41643698  0.52574926  0.08120907  1
  Li  Li4  1  0.60800171  0.46309771  0.15869150  1
  Li  Li5  1  0.10761884  0.53183361  0.20063297  1
  Li  Li6  1  0.49997375  0.00041717  0.24296074  1
  Li  Li7  1  0.98168956  0.99378918  0.11702489  1
  Li  Li8  1  0.98191370  0.50610070  0.11699938  1
  Li  Li9  1  0.50000821  0.49948083  0.24295746  1
  Li  Li10  1  0.89231324  0.03207730  0.28465507  1
  Li  Li11  1  0.58586128  0.02417864  0.40330176  1
  Li  Li12  1  0.39066843  0.96363432  0.32621062  1
  Li  Li13  1  0.39067643  0.53630814  0.32620318  1
  Li  Li14  1  0.58556968  0.47590411  0.40325475  1
  Li  Li15  1  0.89187303  0.46738147  0.28467718  1
  Li  Li16  1  0.01844932  0.00713762  0.36790121  1
  Li  Li17  1  0.01877508  0.49341145  0.36791436  1
  P  P18  1  0.84427786  0.24988754  0.22008673  1
  P  P19  1  0.34567986  0.74994907  0.13965840  1
  P  P20  1  0.66798184  0.25013922  0.09382235  1
  P  P21  1  0.15373966  0.74968273  0.26515087  1
  P  P22  1  0.33332040  0.75011546  0.39055294  1
  P  P23  1  0.65492958  0.24994231  0.34538729  1
  S  S24  1  0.72597396  0.46301846  0.20404449  1
  S  S25  1  0.22672615  0.53661204  0.15526579  1
  S  S26  1  0.78184843  0.46082867  0.07729732  1
  S  S27  1  0.78160196  0.03922949  0.07732976  1
  S  S28  1  0.22668632  0.96328401  0.15526896  1
  S  S29  1  0.72582259  0.03674565  0.20404975  1
  S  S30  1  0.27207884  0.74984159  0.22769858  1
  S  S31  1  0.78106934  0.25006357  0.13194179  1
  S  S32  1  0.22831311  0.75009670  0.10188777  1
  S  S33  1  0.16948569  0.24988661  0.21716699  1
  S  S34  1  0.67117076  0.75006749  0.14256647  1
  S  S35  1  0.33922918  0.25048926  0.09221071  1
  S  S36  1  0.27164652  0.53629739  0.28121970  1
  S  S37  1  0.22031639  0.53977343  0.40727341  1
  S  S38  1  0.77301266  0.46344418  0.32978494  1
  S  S39  1  0.77299009  0.03646847  0.32977109  1
  S  S40  1  0.22043576  0.96060366  0.40723079  1
  S  S41  1  0.27195530  0.96291021  0.28122342  1
  S  S42  1  0.72680924  0.24985592  0.25763828  1
  S  S43  1  0.77300745  0.24994139  0.38312243  1
  S  S44  1  0.21811027  0.75000368  0.35261621  1
  S  S45  1  0.82866655  0.74980057  0.26819119  1
  S  S46  1  0.66213940  0.75009572  0.39195611  1
  S  S47  1  0.32932984  0.24997501  0.34252230  1
