# generated using pymatgen
data_Li3PS4
_symmetry_space_group_name_H-M   'P 1'
_cell_length_a   14.91536200
_cell_length_b   14.48087041
_cell_length_c   46.09462300
_cell_angle_alpha   90.00000000
_cell_angle_beta   90.00000000
_cell_angle_gamma   68.72383501
_symmetry_Int_Tables_number   1
_chemical_formula_structural   Li3PS4
_chemical_formula_sum   'Li78 P26 S104'
_cell_volume   9277.29004457
_cell_formula_units_Z   26
loop_
 _symmetry_equiv_pos_site_id
 _symmetry_equiv_pos_as_xyz
  1  'x, y, z'
loop_
 _atom_site_type_symbol
 _atom_site_label
 _atom_site_symmetry_multiplicity
 _atom_site_fract_x
 _atom_site_fract_y
 _atom_site_fract_z
 _atom_site_occupancy
  Li  Li0  1  0.27870483  0.74538980  0.10168484  1
  Li  Li1  1  0.59829687  0.82463226  0.03698806  1
  Li  Li2  1  0.25706841  0.05062237  0.12710169  1
  Li  Li3  1  0.58017902  0.13291039  0.05243121  1
  Li  Li4  1  0.20408751  0.55127146  0.13634905  1
  Li  Li5  1  0.46148507  0.58525218  0.08096231  1
  Li  Li6  1  0.33812169  0.23803473  0.09109677  1
  Li  Li7  1  0.29286599  0.30682806  0.01547038  1
  Li  Li8  1  0.87382336  0.22327943  0.09798889  1
  Li  Li9  1  0.02834752  0.65120010  0.06100374  1
  Li  Li10  1  0.66982318  0.56078883  0.12954745  1
  Li  Li11  1  0.72481521  0.06260118  0.11295406  1
  Li  Li12  1  0.79522901  0.73945383  0.11548300  1
  Li  Li13  1  0.41185327  0.93791526  0.07845440  1
  Li  Li14  1  0.69217309  0.98786815  0.01158838  1
  Li  Li15  1  0.43989579  0.39183125  0.09327694  1
  Li  Li16  1  0.86465292  0.41880210  0.08194448  1
  Li  Li17  1  0.25962064  0.01353865  0.02680059  1
  Li  Li18  1  0.93556975  0.93112938  0.08684316  1
  Li  Li19  1  0.62244799  0.61625864  0.24877711  1
  Li  Li20  1  0.95318919  0.67261262  0.17556073  1
  Li  Li21  1  0.60406084  0.92731681  0.26648286  1
  Li  Li22  1  0.93997786  0.99550068  0.19086495  1
  Li  Li23  1  0.53329680  0.42425758  0.28168340  1
  Li  Li24  1  0.86768211  0.47439464  0.21002496  1
  Li  Li25  1  0.69343265  0.11784399  0.23333421  1
  Li  Li26  1  0.01841109  0.19875096  0.16112024  1
  Li  Li27  1  0.54116130  0.18327576  0.17266450  1
  Li  Li28  1  0.21462980  0.11238199  0.24237608  1
  Li  Li29  1  0.34399145  0.47932140  0.20058826  1
  Li  Li30  1  0.01174623  0.42945452  0.27329096  1
  Li  Li31  1  0.40522108  0.00468218  0.18589845  1
  Li  Li32  1  0.07609413  0.94078015  0.25739391  1
  Li  Li33  1  0.45745739  0.66467601  0.18725875  1
  Li  Li34  1  0.14990363  0.59965515  0.25747365  1
  Li  Li35  1  0.80637549  0.79475342  0.22227462  1
  Li  Li36  1  0.13484576  0.85898489  0.14839815  1
  Li  Li37  1  0.77968962  0.28519026  0.23318136  1
  Li  Li38  1  0.10659081  0.39073391  0.13652953  1
  Li  Li39  1  0.64580593  0.36597251  0.15356486  1
  Li  Li40  1  0.24079263  0.29973144  0.21784751  1
  Li  Li41  1  0.60007066  0.86202030  0.16087072  1
  Li  Li42  1  0.26925255  0.80111272  0.23141103  1
  Li  Li43  1  0.96921314  0.48890534  0.38859905  1
  Li  Li44  1  0.28850481  0.54494325  0.32405390  1
  Li  Li45  1  0.94814162  0.79902117  0.41300580  1
  Li  Li46  1  0.27440002  0.86857660  0.33952930  1
  Li  Li47  1  0.88845493  0.30380531  0.42396236  1
  Li  Li48  1  0.20727826  0.34277476  0.35403649  1
  Li  Li49  1  0.02477037  0.99033812  0.37887423  1
  Li  Li50  1  0.36040793  0.06733559  0.30545790  1
  Li  Li51  1  0.88379348  0.06137604  0.31468308  1
  Li  Li52  1  0.55847662  0.98101982  0.38522120  1
  Li  Li53  1  0.68602468  0.35870646  0.34232104  1
  Li  Li54  1  0.35320999  0.31773748  0.41776190  1
  Li  Li55  1  0.76673737  0.87738204  0.32776907  1
  Li  Li56  1  0.43149109  0.80066037  0.39993345  1
  Li  Li57  1  0.82065775  0.53682210  0.32910522  1
  Li  Li58  1  0.50087332  0.47872265  0.40260108  1
  Li  Li59  1  0.09291984  0.68080605  0.36638266  1
  Li  Li60  1  0.42506524  0.74630752  0.29283075  1
  Li  Li61  1  0.12205117  0.15075005  0.37934194  1
  Li  Li62  1  0.44730548  0.25724556  0.28290808  1
  Li  Li63  1  0.98742546  0.24135573  0.29742338  1
  Li  Li64  1  0.58302333  0.17623585  0.36218893  1
  Li  Li65  1  0.95670506  0.73980323  0.28511418  1
  Li  Li66  1  0.62719703  0.67755568  0.35535827  1
  Li  Li67  1  0.64705923  0.40704117  0.46303256  1
  Li  Li68  1  0.62898112  0.71502957  0.47810777  1
  Li  Li69  1  0.76629994  0.95512161  0.43401160  1
  Li  Li70  1  0.19907334  0.89170585  0.45535940  1
  Li  Li71  1  0.93738378  0.23500116  0.49996404  1
  Li  Li72  1  0.53535560  0.55378723  0.50367768  1
  Li  Li73  1  0.81875138  0.60304262  0.43687753  1
  Li  Li74  1  0.78677501  0.15010306  0.42219169  1
  Li  Li75  1  0.36317932  0.11995539  0.43338990  1
  Li  Li76  1  0.28974433  0.61050346  0.42881256  1
  Li  Li77  1  0.96746371  0.52895600  0.48856573  1
  P  P78  1  0.76200353  0.85738833  0.06076799  1
  P  P79  1  0.43611063  0.78961134  0.13283398  1
  P  P80  1  0.42969598  0.06683874  0.02313739  1
  P  P81  1  0.10366560  0.00105389  0.09503195  1
  P  P82  1  0.22333071  0.51724778  0.06972801  1
  P  P83  1  0.66668354  0.33109921  0.08371526  1
  P  P84  1  0.10973998  0.72922254  0.20378503  1
  P  P85  1  0.78396721  0.66561966  0.27603297  1
  P  P86  1  0.77475897  0.93987583  0.16787246  1
  P  P87  1  0.44287417  0.87677283  0.23921139  1
  P  P88  1  0.55319383  0.39412160  0.21779567  1
  P  P89  1  0.87806388  0.46216715  0.14389861  1
  P  P90  1  0.32905176  0.27106651  0.15511431  1
  P  P91  1  0.00725672  0.20934723  0.22739051  1
  P  P92  1  0.45204077  0.60121727  0.34742988  1
  P  P93  1  0.12251400  0.54010793  0.42013802  1
  P  P94  1  0.11742382  0.81227342  0.31125692  1
  P  P95  1  0.79162814  0.75097426  0.38206263  1
  P  P96  1  0.89829936  0.26978879  0.36013252  1
  P  P97  1  0.21966235  0.33147291  0.28779159  1
  P  P98  1  0.67364246  0.14773904  0.29742611  1
  P  P99  1  0.34996620  0.07877492  0.37134819  1
  P  P100  1  0.79762027  0.47532131  0.49195523  1
  P  P101  1  0.46402689  0.68364305  0.45464325  1
  P  P102  1  0.56051917  0.20952260  0.43191614  1
  P  P103  1  0.00380748  0.02519357  0.44567642  1
  S  S104  1  0.89358002  0.78349048  0.08015895  1
  S  S105  1  0.29686671  0.14749992  0.00589074  1
  S  S106  1  0.97849546  0.07632516  0.07423514  1
  S  S107  1  0.17533794  0.60218053  0.03474103  1
  S  S108  1  0.82104281  0.56207750  0.11053940  1
  S  S109  1  0.72116127  0.23249029  0.11771828  1
  S  S110  1  0.23589082  0.22842996  0.13026803  1
  S  S111  1  0.56707455  0.30384683  0.05882069  1
  S  S112  1  0.31255674  0.56363673  0.09736986  1
  S  S113  1  0.44260476  0.09168083  0.06700426  1
  S  S114  1  0.10558350  0.03445534  0.13898371  1
  S  S115  1  0.75297783  0.81608268  0.01863782  1
  S  S116  1  0.43483504  0.76009707  0.08881721  1
  S  S117  1  0.11749918  0.85396101  0.09331198  1
  S  S118  1  0.43595263  0.92120071  0.02087592  1
  S  S119  1  0.42474280  0.93678362  0.13538044  1
  S  S120  1  0.74808700  0.00670393  0.06083855  1
  S  S121  1  0.58929523  0.46351989  0.10553540  1
  S  S122  1  0.31302472  0.37523112  0.05884633  1
  S  S123  1  0.95992301  0.32989584  0.12323988  1
  S  S124  1  0.65890556  0.83079658  0.08473295  1
  S  S125  1  0.21665387  0.03189066  0.07707227  1
  S  S126  1  0.53276886  0.10195388  0.00172354  1
  S  S127  1  0.10890246  0.52105868  0.09578963  1
  S  S128  1  0.44470471  0.26660102  0.13051955  1
  S  S129  1  0.77817379  0.33371241  0.05855582  1
  S  S130  1  0.24243748  0.64621208  0.22083725  1
  S  S131  1  0.56323852  0.70989662  0.15321938  1
  S  S132  1  0.63778599  0.01665913  0.15315282  1
  S  S133  1  0.31015159  0.95227063  0.22143250  1
  S  S134  1  0.49910917  0.48397178  0.18263913  1
  S  S135  1  0.16353885  0.42771656  0.25373824  1
  S  S136  1  0.38216956  0.18219560  0.19056089  1
  S  S137  1  0.06295422  0.11266279  0.26139404  1
  S  S138  1  0.58464740  0.10406324  0.27100463  1
  S  S139  1  0.91501615  0.17241750  0.20094856  1
  S  S140  1  0.64178093  0.43878386  0.24411461  1
  S  S141  1  0.97305627  0.49684793  0.16974196  1
  S  S142  1  0.79849568  0.96459547  0.21068891  1
  S  S143  1  0.45543300  0.90380098  0.28255569  1
  S  S144  1  0.09607527  0.70573102  0.16035303  1
  S  S145  1  0.77215219  0.63823861  0.23270956  1
  S  S146  1  0.45600271  0.72800907  0.23767803  1
  S  S147  1  0.78762083  0.79091352  0.16644112  1
  S  S148  1  0.77117987  0.81425051  0.27746986  1
  S  S149  1  0.09954534  0.87566114  0.20726195  1
  S  S150  1  0.24519136  0.40964875  0.17145934  1
  S  S151  1  0.92236473  0.34197063  0.24692162  1
  S  S152  1  0.64145506  0.26006932  0.19977650  1
  S  S153  1  0.30521213  0.19905915  0.26839705  1
  S  S154  1  0.32864491  0.75717645  0.15273196  1
  S  S155  1  0.00677452  0.69377275  0.22614600  1
  S  S156  1  0.54528152  0.91074265  0.21683597  1
  S  S157  1  0.87171284  0.97525019  0.14339470  1
  S  S158  1  0.43968833  0.38844178  0.24185927  1
  S  S159  1  0.76846904  0.45492523  0.16923954  1
  S  S160  1  0.78743507  0.15274508  0.27340524  1
  S  S161  1  0.11831237  0.21613673  0.20250318  1
  S  S162  1  0.58863092  0.52374476  0.36238892  1
  S  S163  1  0.91629539  0.58948234  0.29404637  1
  S  S164  1  0.98430801  0.89472729  0.29435748  1
  S  S165  1  0.66369181  0.83029684  0.36204212  1
  S  S166  1  0.84568962  0.35888082  0.32469319  1
  S  S167  1  0.50610863  0.30865795  0.39802821  1
  S  S168  1  0.72763084  0.05769093  0.33256567  1
  S  S169  1  0.40788786  0.97796264  0.40442664  1
  S  S170  1  0.91469995  0.97929213  0.41786875  1
  S  S171  1  0.25496518  0.04423235  0.34547288  1
  S  S172  1  0.99158224  0.31213966  0.38500778  1
  S  S173  1  0.31119746  0.36932715  0.31434301  1
  S  S174  1  0.13146124  0.83545163  0.35470591  1
  S  S175  1  0.79371353  0.78055622  0.42606834  1
  S  S176  1  0.42903368  0.57726491  0.30451146  1
  S  S177  1  0.11999960  0.50624800  0.37627129  1
  S  S178  1  0.80273030  0.60383662  0.37966673  1
  S  S179  1  0.12860160  0.66545330  0.30773537  1
  S  S180  1  0.10851042  0.68715478  0.42176506  1
  S  S181  1  0.43977229  0.74995992  0.34892680  1
  S  S182  1  0.58569218  0.28204829  0.31544677  1
  S  S183  1  0.26785070  0.21052653  0.39218870  1
  S  S184  1  0.98222737  0.13140817  0.34377821  1
  S  S185  1  0.63827493  0.07769531  0.40982511  1
  S  S186  1  0.68094297  0.63247043  0.29833807  1
  S  S187  1  0.35465914  0.56613410  0.37178572  1
  S  S188  1  0.89820316  0.78416135  0.36191075  1
  S  S189  1  0.21975454  0.84871689  0.28888348  1
  S  S190  1  0.78223688  0.27472098  0.38461547  1
  S  S191  1  0.10876949  0.32458046  0.31275229  1
  S  S192  1  0.11904149  0.01997931  0.41979089  1
  S  S193  1  0.45893739  0.08787060  0.34606255  1
  S  S194  1  0.93050054  0.39525228  0.50932654  1
  S  S195  1  0.24765582  0.46487429  0.44095910  1
  S  S196  1  0.33209121  0.75805706  0.43551967  1
  S  S197  1  0.05077854  0.94081013  0.48085741  1
  S  S198  1  0.66011876  0.23606510  0.45700684  1
  S  S199  1  0.47398695  0.72537579  0.49666519  1
  S  S200  1  0.78400753  0.45026908  0.44815771  1
  S  S201  1  0.47780910  0.53437576  0.45478955  1
  S  S202  1  0.79142354  0.62105549  0.49407003  1
  S  S203  1  0.91448103  0.16736782  0.45652110  1
  S  S204  1  0.01023340  0.50841803  0.43837566  1
  S  S205  1  0.69472808  0.44041693  0.51354894  1
  S  S206  1  0.56715336  0.70939438  0.43045281  1
  S  S207  1  0.44883095  0.20626922  0.45689123  1
