# generated using pymatgen
data_Li3PS4
_symmetry_space_group_name_H-M   'P 1'
_cell_length_a   6.25995100
_cell_length_b   20.81799400
_cell_length_c   50.84910000
_cell_angle_alpha   90.00000000
_cell_angle_beta   90.00000000
_cell_angle_gamma   90.00000000
_symmetry_Int_Tables_number   1
_chemical_formula_structural   Li3PS4
_chemical_formula_sum   'Li60 P20 S80'
_cell_volume   6626.63550926
_cell_formula_units_Z   20
loop_
 _symmetry_equiv_pos_site_id
 _symmetry_equiv_pos_as_xyz
  1  'x, y, z'
loop_
 _atom_site_type_symbol
 _atom_site_label
 _atom_site_symmetry_multiplicity
 _atom_site_fract_x
 _atom_site_fract_y
 _atom_site_fract_z
 _atom_site_occupancy
  Li  Li0  1  0.88193880  0.73333405  0.12324245  1
  Li  Li1  1  0.08193574  0.31602388  0.14798680  1
  Li  Li2  1  0.05954285  0.62790934  0.05424966  1
  Li  Li3  1  0.41658933  0.13690196  0.05855270  1
  Li  Li4  1  0.37667671  0.81499636  0.15285838  1
  Li  Li5  1  0.57703114  0.23341046  0.12316088  1
  Li  Li6  1  0.62034805  0.39852764  0.07200797  1
  Li  Li7  1  0.62868142  0.09687966  0.16784086  1
  Li  Li8  1  0.42457248  0.94640429  0.10909158  1
  Li  Li9  1  0.13545619  0.44722924  0.10571748  1
  Li  Li10  1  0.91874512  0.60103943  0.16857995  1
  Li  Li11  1  0.96586998  0.91795714  0.07436095  1
  Li  Li12  1  0.43231826  0.35284574  0.19060495  1
  Li  Li13  1  0.43449116  0.64962687  0.09438543  1
  Li  Li14  1  0.93998927  0.19685340  0.07906078  1
  Li  Li15  1  0.93979625  0.88848420  0.18485058  1
  Li  Li16  1  0.07433002  0.04419986  0.13123609  1
  Li  Li17  1  0.56902200  0.50781740  0.14571725  1
  Li  Li18  1  0.56933727  0.79168760  0.05140025  1
  Li  Li19  1  0.89076161  0.12502897  0.32631697  1
  Li  Li20  1  0.87865372  0.42721691  0.22407485  1
  Li  Li21  1  0.12407488  0.70813843  0.35332277  1
  Li  Li22  1  0.11504158  0.01127127  0.25215316  1
  Li  Li23  1  0.40576607  0.51259236  0.25077184  1
  Li  Li24  1  0.40829289  0.21064385  0.35129456  1
  Li  Li25  1  0.59422214  0.92672220  0.22592756  1
  Li  Li26  1  0.62025894  0.62560447  0.32414916  1
  Li  Li27  1  0.61106833  0.79489715  0.26798445  1
  Li  Li28  1  0.57842508  0.49687972  0.36886772  1
  Li  Li29  1  0.40732304  0.64123677  0.20878545  1
  Li  Li30  1  0.37251430  0.34333673  0.30897497  1
  Li  Li31  1  0.09117998  0.83748935  0.30877450  1
  Li  Li32  1  0.12430665  0.14693674  0.20770887  1
  Li  Li33  1  0.87761686  0.98856941  0.36922139  1
  Li  Li34  1  0.89868885  0.29850734  0.26868983  1
  Li  Li35  1  0.56943250  0.78344400  0.38600060  1
  Li  Li36  1  0.52717919  0.07515504  0.28803612  1
  Li  Li37  1  0.05093953  0.55456161  0.29080601  1
  Li  Li38  1  0.06401616  0.24611377  0.39320718  1
  Li  Li39  1  0.03865343  0.72614498  0.23471454  1
  Li  Li40  1  0.93184549  0.40545826  0.34492505  1
  Li  Li41  1  0.44322738  0.92511098  0.33346044  1
  Li  Li42  1  0.54990588  0.21263103  0.24297166  1
  Li  Li43  1  0.93752363  0.50827208  0.52338287  1
  Li  Li44  1  0.92130158  0.81970383  0.42907440  1
  Li  Li45  1  0.11713803  0.40300604  0.45473352  1
  Li  Li46  1  0.42806702  0.90146425  0.45399991  1
  Li  Li47  1  0.62102781  0.32122378  0.42441483  1
  Li  Li48  1  0.58423919  0.99898156  0.51901626  1
  Li  Li49  1  0.57341016  0.18918356  0.46802086  1
  Li  Li50  1  0.37437510  0.03913427  0.40943736  1
  Li  Li51  1  0.38073780  0.73680662  0.50519785  1
  Li  Li52  1  0.02793034  0.21668248  0.50190495  1
  Li  Li53  1  0.08187103  0.53355908  0.40947804  1
  Li  Li54  1  0.86133414  0.68811276  0.47144201  1
  Li  Li55  1  0.56332915  0.48592276  0.48334510  1
  Li  Li56  1  0.06148593  0.93806411  0.49825538  1
  Li  Li57  1  0.92524820  0.09010369  0.44612721  1
  Li  Li58  1  0.42829479  0.34253394  0.52666927  1
  Li  Li59  1  0.43119815  0.62869520  0.43147613  1
  P  P60  1  0.16176015  0.48151975  0.18071677  1
  P  P61  1  0.17234607  0.78724984  0.07876153  1
  P  P62  1  0.83998043  0.56507781  0.09542912  1
  P  P63  1  0.84066035  0.26043788  0.19479805  1
  P  P64  1  0.65727097  0.75980808  0.19512766  1
  P  P65  1  0.66899936  0.06548459  0.09575602  1
  P  P66  1  0.32901749  0.28801588  0.07670590  1
  P  P67  1  0.34713709  0.98198488  0.18118147  1
  P  P68  1  0.16114405  0.87541892  0.38254045  1
  P  P69  1  0.15755024  0.17950574  0.28127453  1
  P  P70  1  0.84126105  0.95686319  0.29606405  1
  P  P71  1  0.83904981  0.65382267  0.39649775  1
  P  P72  1  0.65313835  0.15469527  0.39616842  1
  P  P73  1  0.65272656  0.45725309  0.29585047  1
  P  P74  1  0.34831724  0.67911230  0.28133861  1
  P  P75  1  0.33553633  0.37665378  0.38228595  1
  P  P76  1  0.15898387  0.57083748  0.48209609  1
  P  P77  1  0.82419981  0.34829627  0.49879939  1
  P  P78  1  0.67239560  0.84726998  0.50068609  1
  P  P79  1  0.33164235  0.06972326  0.48133571  1
  S  S80  1  0.29536828  0.56944391  0.17242207  1
  S  S81  1  0.32499503  0.87322875  0.07063294  1
  S  S82  1  0.74624027  0.47352187  0.10527194  1
  S  S83  1  0.79520738  0.97791436  0.10734638  1
  S  S84  1  0.24385642  0.38133626  0.06875786  1
  S  S85  1  0.24399992  0.07366996  0.17272675  1
  S  S86  1  0.19973018  0.25077997  0.11116967  1
  S  S87  1  0.76248073  0.80019884  0.16028719  1
  S  S88  1  0.77956871  0.09639483  0.06036832  1
  S  S89  1  0.69769388  0.60090331  0.06235524  1
  S  S90  1  0.70632789  0.29927467  0.16160891  1
  S  S91  1  0.26921941  0.74667097  0.11359707  1
  S  S92  1  0.73846875  0.62328602  0.12636874  1
  S  S93  1  0.27141202  0.42104964  0.15105118  1
  S  S94  1  0.25228571  0.72747916  0.04803566  1
  S  S95  1  0.22426059  0.23028283  0.04692932  1
  S  S96  1  0.23419157  0.92479286  0.15052126  1
  S  S97  1  0.77001590  0.12874361  0.12469967  1
  S  S98  1  0.83649006  0.49094695  0.18358588  1
  S  S99  1  0.85075123  0.80654926  0.08255505  1
  S  S100  1  0.16565535  0.56091913  0.08970030  1
  S  S101  1  0.16553551  0.25688132  0.19034203  1
  S  S102  1  0.33222224  0.75168473  0.19315343  1
  S  S103  1  0.34160103  0.05566799  0.09270435  1
  S  S104  1  0.65883687  0.28776484  0.08163127  1
  S  S105  1  0.67230888  0.98603176  0.18513628  1
  S  S106  1  0.26311935  0.96682688  0.37337802  1
  S  S107  1  0.27662948  0.26882154  0.27258910  1
  S  S108  1  0.71424266  0.86846928  0.30456560  1
  S  S109  1  0.73900982  0.16907864  0.20404607  1
  S  S110  1  0.78662052  0.67160660  0.20368056  1
  S  S111  1  0.75662141  0.36553224  0.30459241  1
  S  S112  1  0.22806888  0.76928768  0.27311952  1
  S  S113  1  0.20210942  0.46407498  0.37365600  1
  S  S114  1  0.23420583  0.63971378  0.31580970  1
  S  S115  1  0.21538548  0.94254400  0.21446725  1
  S  S116  1  0.78540907  0.19490084  0.36307144  1
  S  S117  1  0.78354941  0.49554912  0.26231738  1
  S  S118  1  0.73238761  0.99670658  0.26146432  1
  S  S119  1  0.73653853  0.69389109  0.36172101  1
  S  S120  1  0.26540694  0.44167127  0.21551206  1
  S  S121  1  0.27184222  0.14040778  0.31565076  1
  S  S122  1  0.72515050  0.01720475  0.32567347  1
  S  S123  1  0.72725984  0.31756437  0.22562378  1
  S  S124  1  0.27112952  0.81843542  0.35156535  1
  S  S125  1  0.27624263  0.12016504  0.25157926  1
  S  S126  1  0.23080060  0.61976790  0.25143546  1
  S  S127  1  0.22345053  0.31540121  0.35298214  1
  S  S128  1  0.77222443  0.82073018  0.22443951  1
  S  S129  1  0.76651671  0.51448279  0.32642079  1
  S  S130  1  0.83625793  0.87931380  0.38723735  1
  S  S131  1  0.82995655  0.18482758  0.28400174  1
  S  S132  1  0.16695143  0.94996836  0.29366325  1
  S  S133  1  0.16411498  0.64335966  0.39367183  1
  S  S134  1  0.32828124  0.14996367  0.39193021  1
  S  S135  1  0.32720345  0.45372788  0.29213670  1
  S  S136  1  0.67195919  0.68454758  0.28310614  1
  S  S137  1  0.66075361  0.38592858  0.38451456  1
  S  S138  1  0.25170192  0.66236031  0.47205144  1
  S  S139  1  0.67090921  0.26221168  0.50664436  1
  S  S140  1  0.70449926  0.56608179  0.40507604  1
  S  S141  1  0.75791795  0.06304736  0.40428356  1
  S  S142  1  0.75653071  0.75390299  0.50868359  1
  S  S143  1  0.20396139  0.15688854  0.46938669  1
  S  S144  1  0.22018988  0.03919061  0.51673570  1
  S  S145  1  0.23380367  0.33618161  0.41722979  1
  S  S146  1  0.80365492  0.88415931  0.46627160  1
  S  S147  1  0.72923170  0.38927731  0.46395513  1
  S  S148  1  0.29691930  0.83629434  0.41559708  1
  S  S149  1  0.30007361  0.53537289  0.51530211  1
  S  S150  1  0.74327116  0.40808087  0.52947617  1
  S  S151  1  0.73032136  0.71476363  0.42605600  1
  S  S152  1  0.26301402  0.51235799  0.45135131  1
  S  S153  1  0.23307253  0.00618665  0.45241246  1
  S  S154  1  0.76389156  0.21179671  0.42694482  1
  S  S155  1  0.77653805  0.90527819  0.53043895  1
  S  S156  1  0.83302723  0.57454360  0.48758272  1
  S  S157  1  0.14588812  0.32869058  0.49524909  1
  S  S158  1  0.34307857  0.84773051  0.49556834  1
  S  S159  1  0.65868457  0.08038119  0.48469688  1
