# generated using pymatgen
data_Li3PS4
_symmetry_space_group_name_H-M   'P 1'
_cell_length_a   14.91536200
_cell_length_b   14.48087041
_cell_length_c   46.09462300
_cell_angle_alpha   90.00000000
_cell_angle_beta   90.00000000
_cell_angle_gamma   68.72383501
_symmetry_Int_Tables_number   1
_chemical_formula_structural   Li3PS4
_chemical_formula_sum   'Li78 P26 S104'
_cell_volume   9277.29004457
_cell_formula_units_Z   26
loop_
 _symmetry_equiv_pos_site_id
 _symmetry_equiv_pos_as_xyz
  1  'x, y, z'
loop_
 _atom_site_type_symbol
 _atom_site_label
 _atom_site_symmetry_multiplicity
 _atom_site_fract_x
 _atom_site_fract_y
 _atom_site_fract_z
 _atom_site_occupancy
  Li  Li0  1  0.30139769  0.73593511  0.11094889  1
  Li  Li1  1  0.62089586  0.81832525  0.04744119  1
  Li  Li2  1  0.28117876  0.04453935  0.13620856  1
  Li  Li3  1  0.60335825  0.12347430  0.06135067  1
  Li  Li4  1  0.48344241  0.57785886  0.09089214  1
  Li  Li5  1  0.36190008  0.22887088  0.10102593  1
  Li  Li6  1  0.31511559  0.29661763  0.02508402  1
  Li  Li7  1  0.89695315  0.21567943  0.10744954  1
  Li  Li8  1  0.05176966  0.64069047  0.06894831  1
  Li  Li9  1  0.69261675  0.55225291  0.13889908  1
  Li  Li10  1  0.74928048  0.05450009  0.12244128  1
  Li  Li11  1  0.82082783  0.73061205  0.12502979  1
  Li  Li12  1  0.43253777  0.93012804  0.08841992  1
  Li  Li13  1  0.71613477  0.97892552  0.02121574  1
  Li  Li14  1  0.46288541  0.38241827  0.10316842  1
  Li  Li15  1  0.88748565  0.41044137  0.09110856  1
  Li  Li16  1  0.28401699  0.00184407  0.03646904  1
  Li  Li17  1  0.96023568  0.92253695  0.09631038  1
  Li  Li18  1  0.64555194  0.60575573  0.25863139  1
  Li  Li19  1  0.97719817  0.66493237  0.18521315  1
  Li  Li20  1  0.62692081  0.91867577  0.27598695  1
  Li  Li21  1  0.96423702  0.98677790  0.20046586  1
  Li  Li22  1  0.22677052  0.54202895  0.14590343  1
  Li  Li23  1  0.89068274  0.46569387  0.21921091  1
  Li  Li24  1  0.71754600  0.10852069  0.24298012  1
  Li  Li25  1  0.04296373  0.18949704  0.17056527  1
  Li  Li26  1  0.56419934  0.17553422  0.18320504  1
  Li  Li27  1  0.23813132  0.10280877  0.25190976  1
  Li  Li28  1  0.36713343  0.47217771  0.21041514  1
  Li  Li29  1  0.03353624  0.42098898  0.28293266  1
  Li  Li30  1  0.42935929  0.99677473  0.19576260  1
  Li  Li31  1  0.09948325  0.93192333  0.26729969  1
  Li  Li32  1  0.48278539  0.65662182  0.19726451  1
  Li  Li33  1  0.17412199  0.59207558  0.26751904  1
  Li  Li34  1  0.82614708  0.78633825  0.23177967  1
  Li  Li35  1  0.15982724  0.84990112  0.15794000  1
  Li  Li36  1  0.80357867  0.27568897  0.24258450  1
  Li  Li37  1  0.12876756  0.38351200  0.14626192  1
  Li  Li38  1  0.66789531  0.35764170  0.16297956  1
  Li  Li39  1  0.26198188  0.29154892  0.22760296  1
  Li  Li40  1  0.62352474  0.85486818  0.16879733  1
  Li  Li41  1  0.29389110  0.79319632  0.24063717  1
  Li  Li42  1  0.99300383  0.48094300  0.39831667  1
  Li  Li43  1  0.30993997  0.53759227  0.33395538  1
  Li  Li44  1  0.97148372  0.78868429  0.42390714  1
  Li  Li45  1  0.29546777  0.85977701  0.34973794  1
  Li  Li46  1  0.55598111  0.41463373  0.29173139  1
  Li  Li47  1  0.23063434  0.33460579  0.36355298  1
  Li  Li48  1  0.04500571  0.98296134  0.38885559  1
  Li  Li49  1  0.38192622  0.05821413  0.31519647  1
  Li  Li50  1  0.90551310  0.05321440  0.32441637  1
  Li  Li51  1  0.57982089  0.97258664  0.39550628  1
  Li  Li52  1  0.70747548  0.34753171  0.35193400  1
  Li  Li53  1  0.37534819  0.30918950  0.42742843  1
  Li  Li54  1  0.79221736  0.86700985  0.33760707  1
  Li  Li55  1  0.45258145  0.79216943  0.40952833  1
  Li  Li56  1  0.84352963  0.52848856  0.33890382  1
  Li  Li57  1  0.52404937  0.47000119  0.41244432  1
  Li  Li58  1  0.11384348  0.67385250  0.37628814  1
  Li  Li59  1  0.44732229  0.73728760  0.30304430  1
  Li  Li60  1  0.14384234  0.14181021  0.38853739  1
  Li  Li61  1  0.46995890  0.24843593  0.29168676  1
  Li  Li62  1  0.00945536  0.23310740  0.30724989  1
  Li  Li63  1  0.60481802  0.16664356  0.37150265  1
  Li  Li64  1  0.98072277  0.73086601  0.29416021  1
  Li  Li65  1  0.65009154  0.66961087  0.36491307  1
  Li  Li66  1  0.67036895  0.40044118  0.47242533  1
  Li  Li67  1  0.65277300  0.70721437  0.48708445  1
  Li  Li68  1  0.91209709  0.29588170  0.43365195  1
  Li  Li69  1  0.78872529  0.94601170  0.44415779  1
  Li  Li70  1  0.22140408  0.88324356  0.46479452  1
  Li  Li71  1  0.96202100  0.22490600  0.50967670  1
  Li  Li72  1  0.55846293  0.54506214  0.51356539  1
  Li  Li73  1  0.84160745  0.59381073  0.44649383  1
  Li  Li74  1  0.80916378  0.14249491  0.43213078  1
  Li  Li75  1  0.38586688  0.11219783  0.44290008  1
  Li  Li76  1  0.31430705  0.60059482  0.43871183  1
  Li  Li77  1  0.99080334  0.51987613  0.49814298  1
  P  P78  1  0.78655002  0.84886392  0.07041982  1
  P  P79  1  0.45887008  0.78092176  0.14253693  1
  P  P80  1  0.45301094  0.05680961  0.03282764  1
  P  P81  1  0.12764591  0.99296496  0.10466338  1
  P  P82  1  0.24678943  0.50730262  0.07906904  1
  P  P83  1  0.68947751  0.32229072  0.09328120  1
  P  P84  1  0.13379121  0.72059173  0.21371081  1
  P  P85  1  0.80654925  0.65672615  0.28570641  1
  P  P86  1  0.79864098  0.93166146  0.17753509  1
  P  P87  1  0.46657770  0.86750696  0.24885879  1
  P  P88  1  0.57679376  0.38569289  0.22772872  1
  P  P89  1  0.90097493  0.45419705  0.15318413  1
  P  P90  1  0.35227734  0.26290837  0.16501265  1
  P  P91  1  0.03043128  0.20092089  0.23703196  1
  P  P92  1  0.47547636  0.59208352  0.35718083  1
  P  P93  1  0.14606984  0.53132828  0.43010254  1
  P  P94  1  0.13910823  0.80409698  0.32113069  1
  P  P95  1  0.81429061  0.74287127  0.39223847  1
  P  P96  1  0.92028382  0.26210268  0.36974585  1
  P  P97  1  0.24179869  0.32356530  0.29733324  1
  P  P98  1  0.69638767  0.13850092  0.30697966  1
  P  P99  1  0.37180309  0.07000555  0.38105872  1
  P  P100  1  0.82075715  0.46653852  0.50173652  1
  P  P101  1  0.48753208  0.67528874  0.46426970  1
  P  P102  1  0.58288878  0.20148673  0.44141331  1
  P  P103  1  0.02617147  0.01709414  0.45552486  1
  S  S104  1  0.91891677  0.77430150  0.08924405  1
  S  S105  1  0.32009343  0.13688791  0.01560725  1
  S  S106  1  0.00228866  0.06832458  0.08400422  1
  S  S107  1  0.20052555  0.59119220  0.04375339  1
  S  S108  1  0.84386893  0.55392076  0.11978766  1
  S  S109  1  0.74461725  0.22418611  0.12735655  1
  S  S110  1  0.25862671  0.22116455  0.14010460  1
  S  S111  1  0.58984431  0.29427003  0.06861776  1
  S  S112  1  0.33529171  0.55411213  0.10690321  1
  S  S113  1  0.46674413  0.08227323  0.07662739  1
  S  S114  1  0.77575781  0.80706656  0.02846110  1
  S  S115  1  0.45717235  0.75223725  0.09846475  1
  S  S116  1  0.14126871  0.84595698  0.10289846  1
  S  S117  1  0.45936514  0.91108100  0.03086646  1
  S  S118  1  0.77260558  0.99817596  0.07020055  1
  S  S119  1  0.61177647  0.45500802  0.11497365  1
  S  S120  1  0.33653904  0.36499470  0.06849918  1
  S  S121  1  0.98322392  0.32190439  0.13262646  1
  S  S122  1  0.68382187  0.82346748  0.09491593  1
  S  S123  1  0.24005530  0.02433018  0.08641941  1
  S  S124  1  0.55603542  0.09127194  0.01111921  1
  S  S125  1  0.13137513  0.51269474  0.10483282  1
  S  S126  1  0.46850945  0.25734796  0.14053954  1
  S  S127  1  0.80069959  0.32517899  0.06799896  1
  S  S128  1  0.26649353  0.63800857  0.23082917  1
  S  S129  1  0.58667553  0.70184622  0.16263352  1
  S  S130  1  0.66167219  0.00927226  0.16292624  1
  S  S131  1  0.33423341  0.94337247  0.23080326  1
  S  S132  1  0.52318694  0.47596661  0.19262928  1
  S  S133  1  0.18523903  0.42027201  0.26340866  1
  S  S134  1  0.40452305  0.17417884  0.20053917  1
  S  S135  1  0.08603588  0.10451729  0.27109495  1
  S  S136  1  0.60784316  0.09488464  0.28041593  1
  S  S137  1  0.93878334  0.16332011  0.21050558  1
  S  S138  1  0.66545330  0.42906454  0.25431185  1
  S  S139  1  0.99541437  0.48951006  0.17915844  1
  S  S140  1  0.82282760  0.95545469  0.22035391  1
  S  S141  1  0.13087314  0.02586437  0.14857597  1
  S  S142  1  0.12043295  0.69688452  0.17024192  1
  S  S143  1  0.79472947  0.62871378  0.24241845  1
  S  S144  1  0.47919164  0.71886080  0.24758921  1
  S  S145  1  0.81141290  0.78268053  0.17591991  1
  S  S146  1  0.44744382  0.92828937  0.14515460  1
  S  S147  1  0.12329170  0.86712839  0.21706007  1
  S  S148  1  0.26863305  0.40161679  0.18125202  1
  S  S149  1  0.94488016  0.33362599  0.25633945  1
  S  S150  1  0.66485200  0.25165266  0.20962400  1
  S  S151  1  0.32713818  0.19076598  0.27805158  1
  S  S152  1  0.35239415  0.74696410  0.16241735  1
  S  S153  1  0.03087041  0.68482647  0.23595422  1
  S  S154  1  0.56950218  0.90033969  0.22645362  1
  S  S155  1  0.89544132  0.96713001  0.15299123  1
  S  S156  1  0.46279363  0.38018138  0.25159577  1
  S  S157  1  0.79158053  0.44625572  0.17848392  1
  S  S158  1  0.81018513  0.14446714  0.28313309  1
  S  S159  1  0.14147806  0.20771305  0.21212243  1
  S  S160  1  0.61225414  0.51470270  0.37189625  1
  S  S161  1  0.93895276  0.58108740  0.30373902  1
  S  S162  1  0.00649928  0.88658562  0.30395337  1
  S  S163  1  0.68681734  0.82257445  0.37206954  1
  S  S164  1  0.86719212  0.35074925  0.33426599  1
  S  S165  1  0.52811168  0.30010322  0.40741944  1
  S  S166  1  0.75019029  0.04819504  0.34204237  1
  S  S167  1  0.42898792  0.96946850  0.41426626  1
  S  S168  1  0.93685046  0.97045346  0.42799418  1
  S  S169  1  0.27672259  0.03542597  0.35520352  1
  S  S170  1  0.01424882  0.30408213  0.39443143  1
  S  S171  1  0.33397977  0.36124668  0.32363272  1
  S  S172  1  0.15193816  0.82797905  0.36460534  1
  S  S173  1  0.47806102  0.89532163  0.29218659  1
  S  S174  1  0.45161268  0.56828483  0.31431556  1
  S  S175  1  0.14384794  0.49804871  0.38615103  1
  S  S176  1  0.82577198  0.59567008  0.38955793  1
  S  S177  1  0.15002246  0.65731593  0.31776200  1
  S  S178  1  0.79374346  0.80528911  0.28711007  1
  S  S179  1  0.46237237  0.74117373  0.35874149  1
  S  S180  1  0.60758610  0.27213084  0.32519339  1
  S  S181  1  0.28997310  0.20218928  0.40172343  1
  S  S182  1  0.00391605  0.12329800  0.35351533  1
  S  S183  1  0.66096780  0.06904086  0.41967878  1
  S  S184  1  0.70371701  0.62356090  0.30812962  1
  S  S185  1  0.37830442  0.55690674  0.38160742  1
  S  S186  1  0.92132529  0.77638965  0.37248292  1
  S  S187  1  0.24239341  0.83932152  0.29893058  1
  S  S188  1  0.80470401  0.26700787  0.39444144  1
  S  S189  1  0.13118950  0.31652516  0.32244461  1
  S  S190  1  0.14105057  0.01170696  0.42945649  1
  S  S191  1  0.48125941  0.07790389  0.35575319  1
  S  S192  1  0.95358919  0.38610229  0.51905580  1
  S  S193  1  0.27089876  0.45595474  0.45106068  1
  S  S194  1  0.35500740  0.74920700  0.44539984  1
  S  S195  1  0.07376643  0.93334511  0.49078987  1
  S  S196  1  0.68167512  0.22972320  0.46643614  1
  S  S197  1  0.49835177  0.71695239  0.50622947  1
  S  S198  1  0.81611377  0.77157930  0.43634529  1
  S  S199  1  0.80735005  0.44185612  0.45787251  1
  S  S200  1  0.50131884  0.52597971  0.46447572  1
  S  S201  1  0.13229318  0.67825604  0.43183759  1
  S  S202  1  0.81465494  0.61212589  0.50387116  1
  S  S203  1  0.93711646  0.15950141  0.46619760  1
  S  S204  1  0.03362423  0.49949365  0.44812725  1
  S  S205  1  0.71769544  0.43152418  0.52316653  1
  S  S206  1  0.58980742  0.70112657  0.43972391  1
  S  S207  1  0.47142279  0.19795992  0.46646672  1
