# generated using pymatgen
data_Li3PS4
_symmetry_space_group_name_H-M   'P 1'
_cell_length_a   8.10679100
_cell_length_b   18.09023400
_cell_length_c   45.18558600
_cell_angle_alpha   90.00000000
_cell_angle_beta   90.00000000
_cell_angle_gamma   90.00000000
_symmetry_Int_Tables_number   1
_chemical_formula_structural   Li3PS4
_chemical_formula_sum   'Li54 P18 S72'
_cell_volume   6626.63546020
_cell_formula_units_Z   18
loop_
 _symmetry_equiv_pos_site_id
 _symmetry_equiv_pos_as_xyz
  1  'x, y, z'
loop_
 _atom_site_type_symbol
 _atom_site_label
 _atom_site_symmetry_multiplicity
 _atom_site_fract_x
 _atom_site_fract_y
 _atom_site_fract_z
 _atom_site_occupancy
  Li  Li0  1  0.01556724  0.95382898  0.08273484  1
  Li  Li1  1  0.91536442  0.46297217  0.09298313  1
  Li  Li2  1  0.81221966  0.17354241  0.11178655  1
  Li  Li3  1  0.52147993  0.16868912  0.06812526  1
  Li  Li4  1  0.31391877  0.46308722  0.09735515  1
  Li  Li5  1  0.44313412  0.93566215  0.08376675  1
  Li  Li6  1  0.01046621  0.29032627  0.07323430  1
  Li  Li7  1  0.31337540  0.29521090  0.10502089  1
  Li  Li8  1  0.01268583  0.47691777  0.15010178  1
  Li  Li9  1  0.02660073  0.72173578  0.18208261  1
  Li  Li10  1  0.06865661  0.30491937  0.15108726  1
  Li  Li11  1  0.96828484  0.92142915  0.16509659  1
  Li  Li12  1  0.54091519  0.91701712  0.16841629  1
  Li  Li13  1  0.50603434  0.28689832  0.16328246  1
  Li  Li14  1  0.46532876  0.72118794  0.18308297  1
  Li  Li15  1  0.54030013  0.50738134  0.14249340  1
  Li  Li16  1  0.01121304  0.72796988  0.09794485  1
  Li  Li17  1  0.04760232  0.08436307  0.16590939  1
  Li  Li18  1  0.46874454  0.08459864  0.16278071  1
  Li  Li19  1  0.47355738  0.73284351  0.09610570  1
  Li  Li20  1  0.95841505  0.26227590  0.23479299  1
  Li  Li21  1  0.04224840  0.48343568  0.29013625  1
  Li  Li22  1  0.03120783  0.06020559  0.25553895  1
  Li  Li23  1  0.97750531  0.69489402  0.26779450  1
  Li  Li24  1  0.54234209  0.68291336  0.27049755  1
  Li  Li25  1  0.46636894  0.05083489  0.25483536  1
  Li  Li26  1  0.47848087  0.48801130  0.28238496  1
  Li  Li27  1  0.52270090  0.25418905  0.24234952  1
  Li  Li28  1  0.96473473  0.48595625  0.22119941  1
  Li  Li29  1  0.94786738  0.89210446  0.25729043  1
  Li  Li30  1  0.45150950  0.85349732  0.26680226  1
  Li  Li31  1  0.47810842  0.49965346  0.20854490  1
  Li  Li32  1  0.97342793  0.02137925  0.34202536  1
  Li  Li33  1  0.99012585  0.26495200  0.37437698  1
  Li  Li34  1  0.03740484  0.82384866  0.35737862  1
  Li  Li35  1  0.93173419  0.43737660  0.37427184  1
  Li  Li36  1  0.49639782  0.45650600  0.36202624  1
  Li  Li37  1  0.46564487  0.82410201  0.35789327  1
  Li  Li38  1  0.46396948  0.23632327  0.38218695  1
  Li  Li39  1  0.53521080  0.02489537  0.34129419  1
  Li  Li40  1  0.04016253  0.25934641  0.30345781  1
  Li  Li41  1  0.95817393  0.65978070  0.35783704  1
  Li  Li42  1  0.53412544  0.65779702  0.36214078  1
  Li  Li43  1  0.52298586  0.24530114  0.31593320  1
  Li  Li44  1  0.98373236  0.78863272  0.44087387  1
  Li  Li45  1  0.18595524  0.56693093  0.41295285  1
  Li  Li46  1  0.08459043  0.28013040  0.43210716  1
  Li  Li47  1  0.68683745  0.28019655  0.42792623  1
  Li  Li48  1  0.47895579  0.57617852  0.45580643  1
  Li  Li49  1  0.55639737  0.80908781  0.44187992  1
  Li  Li50  1  0.98583194  0.01376411  0.42597557  1
  Li  Li51  1  0.98969674  0.45373186  0.45225584  1
  Li  Li52  1  0.68751861  0.45037397  0.42004751  1
  Li  Li53  1  0.52358038  0.01106465  0.42913698  1
  P  P54  1  0.16840643  0.81767847  0.03595798  1
  P  P55  1  0.74450397  0.85492961  0.09600426  1
  P  P56  1  0.24064608  0.60009016  0.13156681  1
  P  P57  1  0.75262818  0.61979513  0.19726825  1
  P  P58  1  0.73084090  0.34336112  0.11069480  1
  P  P59  1  0.24311064  0.13539484  0.10735948  1
  P  P60  1  0.25068983  0.36390043  0.22935109  1
  P  P61  1  0.75213080  0.38019211  0.29550929  1
  P  P62  1  0.75076007  0.07446080  0.21207299  1
  P  P63  1  0.24473227  0.90671156  0.21035455  1
  P  P64  1  0.24793119  0.12443880  0.32701613  1
  P  P65  1  0.76090827  0.14353265  0.39303521  1
  P  P66  1  0.74955791  0.83741091  0.31389556  1
  P  P67  1  0.25626841  0.66906615  0.31215914  1
  P  P68  1  0.25604588  0.88791910  0.42842122  1
  P  P69  1  0.83283911  0.92508214  0.48883834  1
  P  P70  1  0.76075541  0.60892117  0.41720812  1
  P  P71  1  0.27065360  0.39896615  0.41433998  1
  S  S72  1  0.16446444  0.80601433  0.99026800  1
  S  S73  1  0.93764961  0.80020060  0.01761716  1
  S  S74  1  0.74722109  0.75959558  0.07168229  1
  S  S75  1  0.22557607  0.92274674  0.04744520  1
  S  S76  1  0.72208499  0.26479592  0.07435297  1
  S  S77  1  0.24337454  0.73153423  0.06000450  1
  S  S78  1  0.72986092  0.94757677  0.07038102  1
  S  S79  1  0.23843717  0.20079475  0.06983831  1
  S  S80  1  0.43310699  0.58578881  0.10216585  1
  S  S81  1  0.53486026  0.85062445  0.12238300  1
  S  S82  1  0.49565669  0.37888383  0.12393310  1
  S  S83  1  0.45364948  0.07239631  0.10474410  1
  S  S84  1  0.02896293  0.07638643  0.11082481  1
  S  S85  1  0.10372702  0.37967169  0.10672513  1
  S  S86  1  0.96324795  0.85639120  0.11957485  1
  S  S87  1  0.01344006  0.58412314  0.11178418  1
  S  S88  1  0.75164850  0.51121676  0.18050400  1
  S  S89  1  0.24580789  0.70787990  0.14550149  1
  S  S90  1  0.26438322  0.19586565  0.14666666  1
  S  S91  1  0.74998466  0.02041380  0.17124436  1
  S  S92  1  0.26928637  0.52351483  0.16484185  1
  S  S93  1  0.74536875  0.69932562  0.16592452  1
  S  S94  1  0.78652976  0.27123659  0.14675967  1
  S  S95  1  0.25273377  0.97529372  0.17352152  1
  S  S96  1  0.47445350  0.35933123  0.20844621  1
  S  S97  1  0.53883751  0.62699523  0.22212377  1
  S  S98  1  0.53664644  0.13591456  0.21275882  1
  S  S99  1  0.45424426  0.84353128  0.21081031  1
  S  S100  1  0.03088472  0.84612463  0.20802520  1
  S  S101  1  0.96223542  0.13761114  0.21265072  1
  S  S102  1  0.96748025  0.62582521  0.22130117  1
  S  S103  1  0.04807823  0.36056076  0.20151587  1
  S  S104  1  0.75836352  0.27599620  0.27597031  1
  S  S105  1  0.24337601  0.46808609  0.24891982  1
  S  S106  1  0.23908775  0.96006546  0.25101003  1
  S  S107  1  0.74538268  0.78412383  0.27320678  1
  S  S108  1  0.23581892  0.27539926  0.25755739  1
  S  S109  1  0.76609615  0.46845286  0.26718029  1
  S  S110  1  0.75047335  0.00663694  0.24824453  1
  S  S111  1  0.26336709  0.73669520  0.27598679  1
  S  S112  1  0.46017227  0.11792224  0.30173601  1
  S  S113  1  0.52930999  0.38463523  0.31674556  1
  S  S114  1  0.53808967  0.89983090  0.31565211  1
  S  S115  1  0.46515700  0.60381894  0.31298291  1
  S  S116  1  0.03938701  0.61026264  0.30997721  1
  S  S117  1  0.96136955  0.89883892  0.31408390  1
  S  S118  1  0.95513650  0.38400410  0.32325314  1
  S  S119  1  0.03142337  0.11940005  0.30344572  1
  S  S120  1  0.75551814  0.03590293  0.37892343  1
  S  S121  1  0.25070516  0.23258930  0.34424542  1
  S  S122  1  0.25348308  0.72280826  0.35305522  1
  S  S123  1  0.73807401  0.54719292  0.37824077  1
  S  S124  1  0.25469363  0.04433542  0.35812193  1
  S  S125  1  0.73251714  0.22016685  0.35976699  1
  S  S126  1  0.75142161  0.76834467  0.35061834  1
  S  S127  1  0.21442779  0.47021837  0.37800402  1
  S  S128  1  0.46833975  0.89340221  0.40287634  1
  S  S129  1  0.56832577  0.15749220  0.42246700  1
  S  S130  1  0.55118119  0.67252591  0.41961291  1
  S  S131  1  0.50710574  0.36476106  0.40140164  1
  S  S132  1  0.89659255  0.36433307  0.41894370  1
  S  S133  1  0.97615316  0.66669567  0.41315430  1
  S  S134  1  0.98787218  0.15933141  0.41287244  1
  S  S135  1  0.03982522  0.88589046  0.40401816  1
  S  S136  1  0.77808012  0.81987663  0.47720898  1
  S  S137  1  0.24937224  0.98313285  0.45282871  1
  S  S138  1  0.27929623  0.47817620  0.45052263  1
  S  S139  1  0.26894890  0.79523568  0.45402237  1
  S  S140  1  0.75686479  0.01088916  0.46464954  1
  S  S141  1  0.76388308  0.54478940  0.45509464  1
  S  S142  1  0.83567350  0.93681924  0.53451451  1
  S  S143  1  0.06290303  0.94360797  0.50720612  1
