# generated using pymatgen
data_Li3PS4
_symmetry_space_group_name_H-M   'P 1'
_cell_length_a   6.25995100
_cell_length_b   20.81799400
_cell_length_c   50.84910000
_cell_angle_alpha   90.00000000
_cell_angle_beta   90.00000000
_cell_angle_gamma   90.00000000
_symmetry_Int_Tables_number   1
_chemical_formula_structural   Li3PS4
_chemical_formula_sum   'Li60 P20 S80'
_cell_volume   6626.63550926
_cell_formula_units_Z   20
loop_
 _symmetry_equiv_pos_site_id
 _symmetry_equiv_pos_as_xyz
  1  'x, y, z'
loop_
 _atom_site_type_symbol
 _atom_site_label
 _atom_site_symmetry_multiplicity
 _atom_site_fract_x
 _atom_site_fract_y
 _atom_site_fract_z
 _atom_site_occupancy
  Li  Li0  1  0.88070276  0.72034904  0.11667228  1
  Li  Li1  1  0.07504643  0.30297659  0.14168326  1
  Li  Li2  1  0.06414193  0.61404056  0.04782027  1
  Li  Li3  1  0.40869298  0.12240481  0.05139338  1
  Li  Li4  1  0.37485027  0.80130277  0.14665780  1
  Li  Li5  1  0.56929772  0.22092250  0.11655928  1
  Li  Li6  1  0.61967364  0.38671297  0.06560852  1
  Li  Li7  1  0.62511662  0.08384290  0.16098488  1
  Li  Li8  1  0.42257039  0.93334598  0.10267040  1
  Li  Li9  1  0.13862081  0.43356695  0.09908572  1
  Li  Li10  1  0.92088328  0.58913362  0.16226475  1
  Li  Li11  1  0.96735179  0.90517803  0.06859434  1
  Li  Li12  1  0.43023114  0.34048349  0.18413819  1
  Li  Li13  1  0.43930388  0.63667954  0.08800046  1
  Li  Li14  1  0.93446020  0.18490311  0.07219175  1
  Li  Li15  1  0.93403984  0.87658619  0.17802311  1
  Li  Li16  1  0.07110087  0.03328834  0.12451273  1
  Li  Li17  1  0.56861223  0.49509227  0.13936745  1
  Li  Li18  1  0.56828666  0.77917657  0.04455138  1
  Li  Li19  1  0.89424163  0.11176381  0.31945806  1
  Li  Li20  1  0.87781725  0.41374111  0.21764492  1
  Li  Li21  1  0.12246954  0.69656732  0.34689606  1
  Li  Li22  1  0.10788310  0.99904176  0.24499193  1
  Li  Li23  1  0.39020926  0.49826005  0.24554330  1
  Li  Li24  1  0.41285475  0.19724608  0.34455581  1
  Li  Li25  1  0.58671643  0.91281380  0.21977331  1
  Li  Li26  1  0.60752144  0.61194015  0.31938386  1
  Li  Li27  1  0.62482429  0.77932948  0.26216533  1
  Li  Li28  1  0.58191598  0.48376312  0.36253849  1
  Li  Li29  1  0.41666166  0.62658664  0.20284738  1
  Li  Li30  1  0.37641519  0.33043259  0.30251782  1
  Li  Li31  1  0.09727529  0.82461573  0.30218881  1
  Li  Li32  1  0.12385410  0.13418729  0.20133678  1
  Li  Li33  1  0.87629432  0.97630931  0.36317696  1
  Li  Li34  1  0.89952021  0.28521183  0.26229922  1
  Li  Li35  1  0.56955077  0.77083697  0.38016416  1
  Li  Li36  1  0.50550025  0.05607731  0.28213046  1
  Li  Li37  1  0.99427735  0.55602562  0.28223710  1
  Li  Li38  1  0.06698734  0.23332860  0.38621144  1
  Li  Li39  1  0.05724168  0.71622670  0.22714489  1
  Li  Li40  1  0.94017896  0.39511751  0.33775461  1
  Li  Li41  1  0.44344418  0.91236818  0.32725796  1
  Li  Li42  1  0.54953024  0.19892656  0.23670693  1
  Li  Li43  1  0.94232737  0.49576062  0.51706459  1
  Li  Li44  1  0.92481255  0.80714575  0.42263562  1
  Li  Li45  1  0.12444958  0.38965078  0.44789519  1
  Li  Li46  1  0.42905229  0.88997372  0.44782885  1
  Li  Li47  1  0.62502600  0.30838410  0.41766522  1
  Li  Li48  1  0.58716826  0.98718867  0.51255040  1
  Li  Li49  1  0.57692825  0.17808373  0.46170776  1
  Li  Li50  1  0.37308311  0.02656981  0.40285802  1
  Li  Li51  1  0.38313984  0.72445502  0.49851384  1
  Li  Li52  1  0.03629266  0.20534999  0.49581180  1
  Li  Li53  1  0.08015413  0.52110046  0.40265623  1
  Li  Li54  1  0.86157930  0.67519312  0.46516591  1
  Li  Li55  1  0.56493423  0.47261155  0.47644911  1
  Li  Li56  1  0.06428077  0.92621387  0.49180620  1
  Li  Li57  1  0.92682590  0.07805850  0.43981579  1
  Li  Li58  1  0.43579014  0.33047687  0.52006727  1
  Li  Li59  1  0.43055507  0.61508938  0.42512428  1
  P  P60  1  0.16067709  0.46909747  0.17440214  1
  P  P61  1  0.17217618  0.77425996  0.07216242  1
  P  P62  1  0.84273845  0.55178954  0.08912281  1
  P  P63  1  0.83672396  0.24691721  0.18829170  1
  P  P64  1  0.65978833  0.74655139  0.18897291  1
  P  P65  1  0.66503091  0.05303567  0.08915001  1
  P  P66  1  0.32541430  0.27563993  0.06995163  1
  P  P67  1  0.34310747  0.96852362  0.17454742  1
  P  P68  1  0.16190176  0.86330293  0.37609835  1
  P  P69  1  0.15755399  0.16679828  0.27483453  1
  P  P70  1  0.84172611  0.94330059  0.28970875  1
  P  P71  1  0.83938793  0.64164457  0.39022491  1
  P  P72  1  0.65567884  0.14163748  0.38974442  1
  P  P73  1  0.64909139  0.44397430  0.28947957  1
  P  P74  1  0.34885135  0.66591333  0.27528446  1
  P  P75  1  0.33880398  0.36336694  0.37571880  1
  P  P76  1  0.16011768  0.55805324  0.47547526  1
  P  P77  1  0.83119311  0.33617339  0.49222963  1
  P  P78  1  0.67498799  0.83515862  0.49420305  1
  P  P79  1  0.33393878  0.05794447  0.47490165  1
  S  S80  1  0.29596453  0.55689680  0.16617524  1
  S  S81  1  0.32533323  0.86026851  0.06420557  1
  S  S82  1  0.74915155  0.46028237  0.09904949  1
  S  S83  1  0.73641056  0.15547191  0.19751405  1
  S  S84  1  0.79264311  0.65897026  0.19767804  1
  S  S85  1  0.79261754  0.96587916  0.10105906  1
  S  S86  1  0.24236262  0.36898231  0.06169664  1
  S  S87  1  0.24033360  0.06032319  0.16612596  1
  S  S88  1  0.19336026  0.23917337  0.10439466  1
  S  S89  1  0.76126438  0.78676292  0.15392512  1
  S  S90  1  0.77511560  0.08369365  0.05369432  1
  S  S91  1  0.70117621  0.58744991  0.05596716  1
  S  S92  1  0.70064134  0.28568364  0.15516662  1
  S  S93  1  0.26851461  0.73335158  0.10696886  1
  S  S94  1  0.73956640  0.61005608  0.11999287  1
  S  S95  1  0.26914188  0.40827505  0.14475622  1
  S  S96  1  0.25162381  0.71479444  0.04134982  1
  S  S97  1  0.22144168  0.21734389  0.04028131  1
  S  S98  1  0.23175323  0.91105702  0.14390155  1
  S  S99  1  0.76443071  0.11667698  0.11800545  1
  S  S100  1  0.83559831  0.47908291  0.17731745  1
  S  S101  1  0.85038909  0.79370997  0.07596306  1
  S  S102  1  0.16853518  0.54794054  0.08355431  1
  S  S103  1  0.16158063  0.24386199  0.18362185  1
  S  S104  1  0.33460000  0.73731117  0.18693400  1
  S  S105  1  0.33788934  0.04245639  0.08603248  1
  S  S106  1  0.65456639  0.27543487  0.07517422  1
  S  S107  1  0.66778939  0.97295842  0.17890856  1
  S  S108  1  0.26204031  0.95482124  0.36685939  1
  S  S109  1  0.27801192  0.25587945  0.26611227  1
  S  S110  1  0.71959241  0.85451335  0.29853507  1
  S  S111  1  0.70508717  0.55379754  0.39865599  1
  S  S112  1  0.75826553  0.04993687  0.39819308  1
  S  S113  1  0.76104232  0.35305964  0.29809476  1
  S  S114  1  0.23970943  0.75714869  0.26666848  1
  S  S115  1  0.20524759  0.45100321  0.36725479  1
  S  S116  1  0.22513649  0.62755527  0.30932960  1
  S  S117  1  0.20974767  0.92927274  0.20779175  1
  S  S118  1  0.78893610  0.18117483  0.35655463  1
  S  S119  1  0.77241277  0.48240804  0.25538772  1
  S  S120  1  0.72816017  0.98238342  0.25520474  1
  S  S121  1  0.73604407  0.68181982  0.35546818  1
  S  S122  1  0.26398204  0.42877861  0.20910431  1
  S  S123  1  0.27269582  0.12751593  0.30920489  1
  S  S124  1  0.72527470  0.00364653  0.31928085  1
  S  S125  1  0.72465440  0.30416900  0.21912269  1
  S  S126  1  0.27339772  0.80618370  0.34522830  1
  S  S127  1  0.27536811  0.10695746  0.24516768  1
  S  S128  1  0.23045841  0.60789791  0.24507825  1
  S  S129  1  0.22630759  0.30220332  0.34645815  1
  S  S130  1  0.77258084  0.80801810  0.21814159  1
  S  S131  1  0.76590947  0.50232000  0.31972280  1
  S  S132  1  0.83716400  0.86663133  0.38077317  1
  S  S133  1  0.83101590  0.17195306  0.27756942  1
  S  S134  1  0.16813050  0.93776159  0.28685195  1
  S  S135  1  0.16436432  0.63154635  0.38731076  1
  S  S136  1  0.33098186  0.13726739  0.38533282  1
  S  S137  1  0.32480636  0.44051755  0.28684491  1
  S  S138  1  0.67359172  0.66901484  0.27790419  1
  S  S139  1  0.66395011  0.37309965  0.37780214  1
  S  S140  1  0.25243649  0.64968064  0.46553128  1
  S  S141  1  0.67893524  0.24999829  0.50023750  1
  S  S142  1  0.75906047  0.74180329  0.50225441  1
  S  S143  1  0.20679040  0.14507926  0.46287922  1
  S  S144  1  0.22292464  0.02733308  0.51033544  1
  S  S145  1  0.23846412  0.32254270  0.41065320  1
  S  S146  1  0.80539497  0.87204976  0.45973835  1
  S  S147  1  0.73567024  0.37644868  0.45729708  1
  S  S148  1  0.29860007  0.82473010  0.40921656  1
  S  S149  1  0.30365777  0.52253040  0.50852234  1
  S  S150  1  0.74977139  0.39581277  0.52291234  1
  S  S151  1  0.73083503  0.70239950  0.41981014  1
  S  S152  1  0.26363016  0.49996439  0.44454331  1
  S  S153  1  0.23417047  0.99409774  0.44612479  1
  S  S154  1  0.76722470  0.19896074  0.42038079  1
  S  S155  1  0.77902564  0.89324180  0.52392747  1
  S  S156  1  0.83452455  0.56150849  0.48119031  1
  S  S157  1  0.15332081  0.31701588  0.48870114  1
  S  S158  1  0.34542651  0.83554355  0.48920387  1
  S  S159  1  0.66081564  0.06848757  0.47825121  1
