# generated using pymatgen
data_Li3PS4
_symmetry_space_group_name_H-M   'P 1'
_cell_length_a   6.25995100
_cell_length_b   8.10679100
_cell_length_c   52.23157800
_cell_angle_alpha   90.00000000
_cell_angle_beta   90.00000000
_cell_angle_gamma   90.00000000
_symmetry_Int_Tables_number   1
_chemical_formula_structural   Li3PS4
_chemical_formula_sum   'Li18 P6 S24'
_cell_volume   2650.65409706
_cell_formula_units_Z   6
loop_
 _symmetry_equiv_pos_site_id
 _symmetry_equiv_pos_as_xyz
  1  'x, y, z'
loop_
 _atom_site_type_symbol
 _atom_site_label
 _atom_site_symmetry_multiplicity
 _atom_site_fract_x
 _atom_site_fract_y
 _atom_site_fract_z
 _atom_site_occupancy
  Li  Li0  1  0.10679391  0.96759499  0.17610708  1
  Li  Li1  1  0.60827110  0.03831804  0.13443497  1
  Li  Li2  1  0.41664091  0.97442046  0.05739027  1
  Li  Li3  1  0.41642139  0.52560655  0.05739973  1
  Li  Li4  1  0.60838298  0.46169193  0.13444783  1
  Li  Li5  1  0.10693980  0.53242232  0.17610303  1
  Li  Li6  1  0.49974027  0.99972564  0.21787536  1
  Li  Li7  1  0.98263834  0.99365096  0.09300889  1
  Li  Li8  1  0.98324871  0.50618061  0.09302984  1
  Li  Li9  1  0.49975356  0.50022003  0.21787057  1
  Li  Li10  1  0.89258482  0.03257331  0.25983519  1
  Li  Li11  1  0.58534898  0.02388548  0.37921529  1
  Li  Li12  1  0.39213458  0.96313575  0.30170948  1
  Li  Li13  1  0.39169949  0.53683973  0.30168574  1
  Li  Li14  1  0.58552590  0.47610597  0.37921274  1
  Li  Li15  1  0.89243026  0.46738582  0.25983567  1
  Li  Li16  1  0.01914363  0.00865724  0.34294716  1
  Li  Li17  1  0.01942059  0.49101770  0.34296332  1
  P  P18  1  0.84411386  0.25019117  0.19554721  1
  P  P19  1  0.15518415  0.74995260  0.24062010  1
  P  P20  1  0.34609948  0.75000887  0.11562894  1
  P  P21  1  0.66842442  0.25003622  0.06990228  1
  P  P22  1  0.33147306  0.74994753  0.36598219  1
  P  P23  1  0.65327126  0.25000685  0.32072031  1
  S  S24  1  0.72669421  0.46353085  0.17945551  1
  S  S25  1  0.22730925  0.53639022  0.13115695  1
  S  S26  1  0.78186169  0.46085669  0.05337259  1
  S  S27  1  0.78173987  0.03919413  0.05335765  1
  S  S28  1  0.22705432  0.96352960  0.13115426  1
  S  S29  1  0.72645511  0.03704863  0.17943282  1
  S  S30  1  0.27262680  0.75000448  0.20308880  1
  S  S31  1  0.72605555  0.25014268  0.23300575  1
  S  S32  1  0.78275416  0.25002770  0.10795272  1
  S  S33  1  0.22841147  0.75003099  0.07786696  1
  S  S34  1  0.16927347  0.24997740  0.19266208  1
  S  S35  1  0.83011293  0.75004400  0.24366944  1
  S  S36  1  0.67136757  0.75003920  0.11856245  1
  S  S37  1  0.33964213  0.25003878  0.06845752  1
  S  S38  1  0.27335067  0.53654270  0.25658433  1
  S  S39  1  0.21885663  0.53905985  0.38263197  1
  S  S40  1  0.77223011  0.46324572  0.30508785  1
  S  S41  1  0.77221195  0.03674689  0.30508802  1
  S  S42  1  0.21868310  0.96075059  0.38263824  1
  S  S43  1  0.27343122  0.96330972  0.25659538  1
  S  S44  1  0.76994375  0.24995979  0.35850918  1
  S  S45  1  0.21640660  0.74991560  0.32801075  1
  S  S46  1  0.66021569  0.75008043  0.36741173  1
  S  S47  1  0.32762631  0.24995761  0.31768087  1
