# generated using pymatgen
data_Li3PS4
_symmetry_space_group_name_H-M   'P 1'
_cell_length_a   6.25995100
_cell_length_b   13.05789500
_cell_length_c   48.64074600
_cell_angle_alpha   90.00000000
_cell_angle_beta   90.00000000
_cell_angle_gamma   90.00000000
_symmetry_Int_Tables_number   1
_chemical_formula_structural   Li3PS4
_chemical_formula_sum   'Li36 P12 S48'
_cell_volume   3975.98129783
_cell_formula_units_Z   12
loop_
 _symmetry_equiv_pos_site_id
 _symmetry_equiv_pos_as_xyz
  1  'x, y, z'
loop_
 _atom_site_type_symbol
 _atom_site_label
 _atom_site_symmetry_multiplicity
 _atom_site_fract_x
 _atom_site_fract_y
 _atom_site_fract_z
 _atom_site_occupancy
  Li  Li0  1  0.89580315  0.16243578  0.14582123  1
  Li  Li1  1  0.08998175  0.83917694  0.13479043  1
  Li  Li2  1  0.38829980  0.33874176  0.13873312  1
  Li  Li3  1  0.56726627  0.66838022  0.14848145  1
  Li  Li4  1  0.34946411  0.30814306  0.07210452  1
  Li  Li5  1  0.96062818  0.68338589  0.08387498  1
  Li  Li6  1  0.44330453  0.99693193  0.14640150  1
  Li  Li7  1  0.95199185  0.50265192  0.13542479  1
  Li  Li8  1  0.55085252  0.02063138  0.07386399  1
  Li  Li9  1  0.88859331  0.16591462  0.31431691  1
  Li  Li10  1  0.10037877  0.83312065  0.30317104  1
  Li  Li11  1  0.39169416  0.33441830  0.30354978  1
  Li  Li12  1  0.60325717  0.66557906  0.31576212  1
  Li  Li13  1  0.62917913  0.66444101  0.22155798  1
  Li  Li14  1  0.41597383  0.33375101  0.23252594  1
  Li  Li15  1  0.12845967  0.83709830  0.22901692  1
  Li  Li16  1  0.91431469  0.17340498  0.21871744  1
  Li  Li17  1  0.48241436  0.99720891  0.31132177  1
  Li  Li18  1  0.99849210  0.50005968  0.30950719  1
  Li  Li19  1  0.06094521  0.49598155  0.21940327  1
  Li  Li20  1  0.56610719  0.01025193  0.23216079  1
  Li  Li21  1  0.91071661  0.15995338  0.48375226  1
  Li  Li22  1  0.10821778  0.83805795  0.47309333  1
  Li  Li23  1  0.43427986  0.33233709  0.47009626  1
  Li  Li24  1  0.61035660  0.66198221  0.48057678  1
  Li  Li25  1  0.59219722  0.66818108  0.38678213  1
  Li  Li26  1  0.36809910  0.33523018  0.39728779  1
  Li  Li27  1  0.09286814  0.82689381  0.39987039  1
  Li  Li28  1  0.87093372  0.16385092  0.38951421  1
  Li  Li29  1  0.55819078  0.00265729  0.47252964  1
  Li  Li30  1  0.04974390  0.49719860  0.48373823  1
  Li  Li31  1  0.94237471  0.50361638  0.39977887  1
  Li  Li32  1  0.44052716  0.99076038  0.38720222  1
  Li  Li33  1  0.66349576  0.69014504  0.54829271  1
  Li  Li34  1  0.03386217  0.31335136  0.53467556  1
  Li  Li35  1  0.45040416  0.98082165  0.54458635  1
  P  P36  1  0.15006252  0.08691642  0.09632658  1
  P  P37  1  0.35016107  0.58431641  0.09580866  1
  P  P38  1  0.16271750  0.08980815  0.26697766  1
  P  P39  1  0.84141542  0.91278154  0.18301271  1
  P  P40  1  0.66467613  0.41256584  0.18465597  1
  P  P41  1  0.34947727  0.59137575  0.26782128  1
  P  P42  1  0.15901651  0.08700864  0.43570482  1
  P  P43  1  0.83799089  0.91082290  0.35161575  1
  P  P44  1  0.64724918  0.40887533  0.35128854  1
  P  P45  1  0.33764752  0.58808312  0.43411458  1
  P  P46  1  0.85169583  0.91315829  0.52258137  1
  P  P47  1  0.64725301  0.41492807  0.52305942  1
  S  S48  1  0.27683810  0.13995534  0.05989012  1
  S  S49  1  0.27244569  0.64076300  0.05900652  1
  S  S50  1  0.18749972  0.65833539  0.12802390  1
  S  S51  1  0.77073899  0.34314008  0.14922743  1
  S  S52  1  0.70910289  0.84823793  0.14828228  1
  S  S53  1  0.27493737  0.15850296  0.13100813  1
  S  S54  1  0.25560030  0.93662533  0.09821060  1
  S  S55  1  0.23391525  0.43534857  0.10125628  1
  S  S56  1  0.82804362  0.10822798  0.09865240  1
  S  S57  1  0.67081453  0.59447566  0.10458520  1
  S  S58  1  0.29098520  0.15323087  0.23206359  1
  S  S59  1  0.74157932  0.84735839  0.21929728  1
  S  S60  1  0.79257029  0.35221856  0.22004446  1
  S  S61  1  0.24171740  0.65643197  0.23173576  1
  S  S62  1  0.22347705  0.65482976  0.30306586  1
  S  S63  1  0.77308151  0.34540612  0.31604728  1
  S  S64  1  0.72357517  0.84631066  0.31598063  1
  S  S65  1  0.27001181  0.15398965  0.30307433  1
  S  S66  1  0.72872749  0.06292745  0.18384652  1
  S  S67  1  0.27697185  0.93959614  0.26765557  1
  S  S68  1  0.23169338  0.44170426  0.26713190  1
  S  S69  1  0.77556288  0.56281179  0.18288019  1
  S  S70  1  0.83671204  0.10503381  0.26606221  1
  S  S71  1  0.16767266  0.90021436  0.18128244  1
  S  S72  1  0.33813846  0.39901756  0.18586769  1
  S  S73  1  0.67367411  0.60299761  0.26899629  1
  S  S74  1  0.25766512  0.15225186  0.39936208  1
  S  S75  1  0.71597550  0.84791077  0.38698311  1
  S  S76  1  0.75426352  0.34392193  0.38745076  1
  S  S77  1  0.21261236  0.64824079  0.39857330  1
  S  S78  1  0.22873048  0.65709483  0.46946800  1
  S  S79  1  0.81104055  0.34148966  0.49078359  1
  S  S80  1  0.72802774  0.84184146  0.48782609  1
  S  S81  1  0.29132822  0.15177421  0.47040787  1
  S  S82  1  0.72177929  0.06061870  0.35112525  1
  S  S83  1  0.27364931  0.93708686  0.43495623  1
  S  S84  1  0.22582362  0.43787071  0.43585997  1
  S  S85  1  0.76684026  0.55828821  0.35193540  1
  S  S86  1  0.83268409  0.09905227  0.43745748  1
  S  S87  1  0.16471358  0.89589010  0.35184505  1
  S  S88  1  0.32293757  0.39755403  0.35013391  1
  S  S89  1  0.66413929  0.60164352  0.43334457  1
  S  S90  1  0.72287647  0.86086375  0.55898408  1
  S  S91  1  0.72557086  0.35862088  0.55985470  1
  S  S92  1  0.74734396  0.06376914  0.52064300  1
  S  S93  1  0.76270329  0.56409106  0.51770809  1
  S  S94  1  0.17342790  0.89111312  0.52051532  1
  S  S95  1  0.32674767  0.40356227  0.51428801  1
