# generated using pymatgen
data_Li3PS4
_symmetry_space_group_name_H-M   'P 1'
_cell_length_a   6.25995100
_cell_length_b   20.81799400
_cell_length_c   50.84910000
_cell_angle_alpha   90.00000000
_cell_angle_beta   90.00000000
_cell_angle_gamma   90.00000000
_symmetry_Int_Tables_number   1
_chemical_formula_structural   Li3PS4
_chemical_formula_sum   'Li60 P20 S80'
_cell_volume   6626.63550926
_cell_formula_units_Z   20
loop_
 _symmetry_equiv_pos_site_id
 _symmetry_equiv_pos_as_xyz
  1  'x, y, z'
loop_
 _atom_site_type_symbol
 _atom_site_label
 _atom_site_symmetry_multiplicity
 _atom_site_fract_x
 _atom_site_fract_y
 _atom_site_fract_z
 _atom_site_occupancy
  Li  Li0  1  0.87856375  0.66982010  0.09095504  1
  Li  Li1  1  0.88006969  0.36378655  0.19185406  1
  Li  Li2  1  0.08119874  0.25217597  0.11636212  1
  Li  Li3  1  0.05966609  0.56416005  0.02201131  1
  Li  Li4  1  0.41137725  0.07420454  0.02615441  1
  Li  Li5  1  0.37621179  0.75147622  0.12073594  1
  Li  Li6  1  0.58941610  0.86260178  0.19425330  1
  Li  Li7  1  0.57343195  0.17139379  0.09076920  1
  Li  Li8  1  0.61571426  0.33630033  0.03969679  1
  Li  Li9  1  0.62507955  0.03379583  0.13555725  1
  Li  Li10  1  0.41487877  0.57736719  0.17665165  1
  Li  Li11  1  0.41782282  0.88339913  0.07656764  1
  Li  Li12  1  0.13526414  0.38345943  0.07351719  1
  Li  Li13  1  0.11779195  0.08345886  0.17555754  1
  Li  Li14  1  0.92121083  0.53872922  0.13629979  1
  Li  Li15  1  0.96187495  0.85500714  0.04282065  1
  Li  Li16  1  0.43195493  0.29012152  0.15882092  1
  Li  Li17  1  0.43621565  0.58701904  0.06222463  1
  Li  Li18  1  0.93679608  0.13388970  0.04708360  1
  Li  Li19  1  0.93486860  0.82638312  0.15204778  1
  Li  Li20  1  0.07141745  0.98145592  0.09903480  1
  Li  Li21  1  0.56993164  0.44476566  0.11358698  1
  Li  Li22  1  0.56478228  0.73002464  0.01895367  1
  Li  Li23  1  0.89268197  0.06121014  0.29383544  1
  Li  Li24  1  0.92522066  0.75618156  0.39667637  1
  Li  Li25  1  0.12497455  0.64572306  0.32111539  1
  Li  Li26  1  0.10962559  0.94712195  0.21921357  1
  Li  Li27  1  0.40436787  0.44938333  0.21882800  1
  Li  Li28  1  0.40827950  0.14636426  0.31903893  1
  Li  Li29  1  0.62353948  0.25760004  0.39232677  1
  Li  Li30  1  0.61962526  0.56136647  0.29232483  1
  Li  Li31  1  0.61671249  0.72980177  0.23605309  1
  Li  Li32  1  0.58272266  0.43331320  0.33666947  1
  Li  Li33  1  0.37399650  0.97534399  0.37743142  1
  Li  Li34  1  0.37061984  0.28044453  0.27683770  1
  Li  Li35  1  0.09577396  0.77398591  0.27667165  1
  Li  Li36  1  0.08296648  0.47078135  0.37606252  1
  Li  Li37  1  0.87525851  0.92513302  0.33735123  1
  Li  Li38  1  0.90031423  0.23475145  0.23686809  1
  Li  Li39  1  0.57013500  0.71949602  0.35428466  1
  Li  Li40  1  0.49995343  0.00475119  0.25646747  1
  Li  Li41  1  0.04678027  0.49261404  0.25848543  1
  Li  Li42  1  0.05706972  0.18318576  0.36095066  1
  Li  Li43  1  0.05016917  0.66328504  0.20158972  1
  Li  Li44  1  0.93147936  0.34211552  0.31264731  1
  Li  Li45  1  0.44349761  0.86215103  0.30150536  1
  Li  Li46  1  0.55350038  0.14776713  0.21131361  1
  Li  Li47  1  0.93949412  0.44525921  0.49076477  1
  Li  Li48  1  0.12095490  0.33891895  0.42214259  1
  Li  Li49  1  0.42797910  0.83855681  0.42230819  1
  Li  Li50  1  0.59152356  0.93613075  0.48684873  1
  Li  Li51  1  0.57509386  0.12627265  0.43610119  1
  Li  Li52  1  0.38305712  0.67229376  0.47311047  1
  Li  Li53  1  0.03508359  0.15448194  0.47045280  1
  Li  Li54  1  0.86169992  0.62501417  0.43920921  1
  Li  Li55  1  0.56422812  0.42238345  0.45051186  1
  Li  Li56  1  0.06597275  0.87426606  0.46611079  1
  Li  Li57  1  0.92655892  0.02739813  0.41401314  1
  Li  Li58  1  0.43329193  0.28004368  0.49402377  1
  Li  Li59  1  0.43238003  0.56502597  0.39924646  1
  P  P60  1  0.16245089  0.41912203  0.14860552  1
  P  P61  1  0.16921601  0.72411841  0.04657542  1
  P  P62  1  0.84055092  0.50169693  0.06328234  1
  P  P63  1  0.83759973  0.19728245  0.16261199  1
  P  P64  1  0.65977665  0.69671070  0.16298404  1
  P  P65  1  0.66362252  0.00276877  0.06361187  1
  P  P66  1  0.32419194  0.22543410  0.04431571  1
  P  P67  1  0.34522259  0.91829504  0.14897907  1
  P  P68  1  0.16263394  0.81253994  0.35032906  1
  P  P69  1  0.15660618  0.11631065  0.24905016  1
  P  P70  1  0.84148948  0.89322126  0.26393530  1
  P  P71  1  0.84139020  0.59075937  0.36417148  1
  P  P72  1  0.65309151  0.09073813  0.36407272  1
  P  P73  1  0.65340352  0.39385510  0.26369713  1
  P  P74  1  0.34934523  0.61573030  0.24927219  1
  P  P75  1  0.33741225  0.31247243  0.34986025  1
  P  P76  1  0.15971525  0.50722656  0.44941143  1
  P  P77  1  0.82921551  0.28499597  0.46666554  1
  P  P78  1  0.67542022  0.78357691  0.46848066  1
  P  P79  1  0.33418680  0.00653084  0.44949250  1
  S  S80  1  0.29689683  0.50680856  0.14013467  1
  S  S81  1  0.32017370  0.81044245  0.03840619  1
  S  S82  1  0.74696394  0.41008195  0.07307796  1
  S  S83  1  0.73375009  0.10600989  0.17165584  1
  S  S84  1  0.79136205  0.60874005  0.17143821  1
  S  S85  1  0.78922200  0.91531386  0.07547712  1
  S  S86  1  0.23969786  0.31870110  0.03622242  1
  S  S87  1  0.24044581  0.00990124  0.14064919  1
  S  S88  1  0.19590625  0.18860079  0.07892306  1
  S  S89  1  0.21289988  0.87800538  0.18205780  1
  S  S90  1  0.76214754  0.73706487  0.12800754  1
  S  S91  1  0.77410174  0.03345360  0.02819247  1
  S  S92  1  0.69804446  0.53748634  0.03020345  1
  S  S93  1  0.70373084  0.23650168  0.12946747  1
  S  S94  1  0.26661720  0.37928680  0.18341154  1
  S  S95  1  0.26651973  0.68357572  0.08138650  1
  S  S96  1  0.73748174  0.55975553  0.09422537  1
  S  S97  1  0.72672139  0.25428227  0.19357264  1
  S  S98  1  0.27027184  0.35803705  0.11906654  1
  S  S99  1  0.25018470  0.66458989  0.01583105  1
  S  S100  1  0.21770670  0.16746968  0.01469725  1
  S  S101  1  0.23381551  0.86121445  0.11820557  1
  S  S102  1  0.77343330  0.75763744  0.19226253  1
  S  S103  1  0.76492797  0.06623176  0.09244952  1
  S  S104  1  0.83729878  0.42887891  0.15161431  1
  S  S105  1  0.84720204  0.74303281  0.05037225  1
  S  S106  1  0.16620545  0.49796025  0.05771305  1
  S  S107  1  0.16260386  0.19336011  0.15825382  1
  S  S108  1  0.33467566  0.68779904  0.16102301  1
  S  S109  1  0.33624701  0.99278626  0.06039735  1
  S  S110  1  0.65380918  0.22505145  0.04903472  1
  S  S111  1  0.66990158  0.92311571  0.15333606  1
  S  S112  1  0.26201271  0.90415048  0.34106780  1
  S  S113  1  0.27847738  0.20523184  0.24034373  1
  S  S114  1  0.71797459  0.80452034  0.27254810  1
  S  S115  1  0.70771457  0.50284428  0.37267656  1
  S  S116  1  0.75801018  0.99917561  0.37236268  1
  S  S117  1  0.75612789  0.30202009  0.27242128  1
  S  S118  1  0.23194346  0.70615699  0.24081678  1
  S  S119  1  0.20559395  0.39999885  0.34094885  1
  S  S120  1  0.23304366  0.57681956  0.28371118  1
  S  S121  1  0.23582828  0.27211809  0.38483207  1
  S  S122  1  0.78520587  0.13069075  0.33087846  1
  S  S123  1  0.78332522  0.43212343  0.23010150  1
  S  S124  1  0.72884488  0.93282045  0.22949146  1
  S  S125  1  0.73785732  0.63076248  0.32945821  1
  S  S126  1  0.29938219  0.77392227  0.38343031  1
  S  S127  1  0.27106608  0.07690598  0.28344984  1
  S  S128  1  0.72512948  0.95326988  0.29361323  1
  S  S129  1  0.73174931  0.65143267  0.39377977  1
  S  S130  1  0.27452133  0.75552874  0.31945808  1
  S  S131  1  0.27282176  0.05633990  0.21937572  1
  S  S132  1  0.23214030  0.55665015  0.21928771  1
  S  S133  1  0.22411231  0.25115525  0.32070075  1
  S  S134  1  0.76510497  0.14797244  0.39481358  1
  S  S135  1  0.76949620  0.45094933  0.29424577  1
  S  S136  1  0.83783390  0.81557710  0.35501772  1
  S  S137  1  0.83014226  0.12195189  0.25196359  1
  S  S138  1  0.16789154  0.88711136  0.26117159  1
  S  S139  1  0.16667962  0.58115485  0.36137027  1
  S  S140  1  0.32841851  0.08631871  0.35995848  1
  S  S141  1  0.32777359  0.39100223  0.26026843  1
  S  S142  1  0.67315013  0.62000502  0.25118946  1
  S  S143  1  0.66278644  0.32194644  0.35221342  1
  S  S144  1  0.25209822  0.59896768  0.43964270  1
  S  S145  1  0.67681812  0.19891784  0.47470207  1
  S  S146  1  0.75958384  0.69019677  0.47655309  1
  S  S147  1  0.20582085  0.09376585  0.43777202  1
  S  S148  1  0.22536864  0.97523710  0.48488830  1
  S  S149  1  0.80530628  0.82051732  0.43400291  1
  S  S150  1  0.73264688  0.32550301  0.43177017  1
  S  S151  1  0.30185207  0.47153179  0.48253307  1
  S  S152  1  0.74950085  0.34477352  0.49733432  1
  S  S153  1  0.26293466  0.44913849  0.41849751  1
  S  S154  1  0.23439929  0.94313532  0.42055891  1
  S  S155  1  0.77993382  0.84162909  0.49818710  1
  S  S156  1  0.83373791  0.51091393  0.45497061  1
  S  S157  1  0.15109066  0.26578621  0.46282800  1
  S  S158  1  0.34586607  0.78361210  0.46358745  1
  S  S159  1  0.66125231  0.01738874  0.45255565  1
