# generated using pymatgen
data_Li3PS4
_symmetry_space_group_name_H-M   'P 1'
_cell_length_a   10.24241400
_cell_length_b   14.48086959
_cell_length_c   46.32433700
_cell_angle_alpha   90.00000000
_cell_angle_beta   90.00000000
_cell_angle_gamma   74.68014200
_symmetry_Int_Tables_number   1
_chemical_formula_structural   Li3PS4
_chemical_formula_sum   'Li60 P20 S80'
_cell_volume   6626.63516060
_cell_formula_units_Z   20
loop_
 _symmetry_equiv_pos_site_id
 _symmetry_equiv_pos_as_xyz
  1  'x, y, z'
loop_
 _atom_site_type_symbol
 _atom_site_label
 _atom_site_symmetry_multiplicity
 _atom_site_fract_x
 _atom_site_fract_y
 _atom_site_fract_z
 _atom_site_occupancy
  Li  Li0  1  0.80107032  0.76350005  0.05977857  1
  Li  Li1  1  0.78686254  0.04751025  0.07620091  1
  Li  Li2  1  0.76503941  0.28489992  0.04426073  1
  Li  Li3  1  0.21722520  0.20322842  0.09046104  1
  Li  Li4  1  0.25250124  0.67610052  0.03861296  1
  Li  Li5  1  0.55524753  0.74300042  0.02789018  1
  Li  Li6  1  0.87113364  0.44845493  0.03694124  1
  Li  Li7  1  0.34336155  0.40867077  0.07612840  1
  Li  Li8  1  0.29103483  0.90894928  0.08342950  1
  Li  Li9  1  0.43807510  0.63420711  0.16190789  1
  Li  Li10  1  0.45031813  0.93500326  0.18011223  1
  Li  Li11  1  0.67305328  0.54101234  0.09828369  1
  Li  Li12  1  0.50442123  0.14165040  0.14058568  1
  Li  Li13  1  0.88815249  0.09122645  0.19657287  1
  Li  Li14  1  0.98371695  0.48833537  0.14140175  1
  Li  Li15  1  0.05697644  0.01592463  0.12420247  1
  Li  Li16  1  0.14938088  0.66913742  0.12030527  1
  Li  Li17  1  0.64863254  0.84402054  0.11702529  1
  Li  Li18  1  0.61563138  0.32384281  0.13196371  1
  Li  Li19  1  0.98894257  0.28976481  0.16992570  1
  Li  Li20  1  0.93911013  0.79031730  0.16095881  1
  Li  Li21  1  0.11211884  0.50360801  0.25976738  1
  Li  Li22  1  0.11609689  0.81425428  0.28223468  1
  Li  Li23  1  0.36067655  0.41047099  0.20156268  1
  Li  Li24  1  0.18343565  0.02443756  0.24031494  1
  Li  Li25  1  0.56128371  0.95879019  0.29807798  1
  Li  Li26  1  0.66659921  0.36089891  0.24431702  1
  Li  Li27  1  0.74553522  0.88388188  0.22225830  1
  Li  Li28  1  0.82691908  0.55895663  0.21694814  1
  Li  Li29  1  0.22999818  0.72927867  0.22239614  1
  Li  Li30  1  0.29246335  0.20007231  0.23087804  1
  Li  Li31  1  0.62218627  0.16234591  0.27095162  1
  Li  Li32  1  0.61322836  0.65886898  0.27029772  1
  Li  Li33  1  0.77887699  0.38369042  0.36270482  1
  Li  Li34  1  0.79181464  0.68424131  0.37974065  1
  Li  Li35  1  0.04401863  0.29295261  0.30202561  1
  Li  Li36  1  0.86764726  0.90796876  0.34071777  1
  Li  Li37  1  0.24493343  0.82893170  0.40153242  1
  Li  Li38  1  0.33927384  0.22891523  0.34537410  1
  Li  Li39  1  0.40373588  0.75851320  0.32536903  1
  Li  Li40  1  0.48217054  0.43556132  0.32006461  1
  Li  Li41  1  0.99681336  0.58867976  0.31955120  1
  Li  Li42  1  0.93788499  0.11579019  0.31288850  1
  Li  Li43  1  0.23974997  0.02780332  0.37219086  1
  Li  Li44  1  0.29333142  0.52785751  0.38185597  1
  Li  Li45  1  0.44356660  0.26913659  0.46492922  1
  Li  Li46  1  0.42770557  0.55378456  0.48295121  1
  Li  Li47  1  0.72616772  0.17457055  0.40175688  1
  Li  Li48  1  0.56103351  0.77624444  0.44379247  1
  Li  Li49  1  0.97413776  0.64662973  0.50228395  1
  Li  Li50  1  0.01329812  0.11172584  0.45180133  1
  Li  Li51  1  0.07943286  0.64645822  0.42220884  1
  Li  Li52  1  0.17142082  0.30158939  0.41786022  1
  Li  Li53  1  0.58253248  0.47397530  0.42546393  1
  Li  Li54  1  0.61116986  0.99466380  0.40933759  1
  Li  Li55  1  0.88314731  0.91121875  0.46602202  1
  Li  Li56  1  0.93564066  0.40775031  0.45893443  1
  Li  Li57  1  0.46164778  0.03168182  0.49801877  1
  Li  Li58  1  0.68150627  0.57264047  0.51386115  1
  Li  Li59  1  0.35932615  0.86800008  0.50573552  1
  P  P60  1  0.04866908  0.81483891  0.07486624  1
  P  P61  1  0.53169964  0.00159161  0.06723742  1
  P  P62  1  0.58237534  0.53624138  0.03366132  1
  P  P63  1  0.69544782  0.69256172  0.17016899  1
  P  P64  1  0.19157182  0.87776128  0.17083148  1
  P  P65  1  0.28626604  0.40804883  0.13776755  1
  P  P66  1  0.90291727  0.28027267  0.10098177  1
  P  P67  1  0.35925042  0.56973350  0.27114296  1
  P  P68  1  0.86815281  0.74889894  0.27100698  1
  P  P69  1  0.97125846  0.28647434  0.23903026  1
  P  P70  1  0.58465542  0.15494210  0.20299193  1
  P  P71  1  0.03849629  0.44079776  0.37152151  1
  P  P72  1  0.53510701  0.62533705  0.37225899  1
  P  P73  1  0.64355793  0.16434508  0.33943501  1
  P  P74  1  0.25641890  0.03103265  0.30322303  1
  P  P75  1  0.69862725  0.31438657  0.47475638  1
  P  P76  1  0.18108959  0.50119387  0.46751978  1
  P  P77  1  0.32735315  0.03589016  0.44123562  1
  P  P78  1  0.94229519  0.90902122  0.40432580  1
  P  P79  1  0.64870267  0.78036375  0.50877687  1
  S  S80  1  0.24838982  0.74950561  0.08455524  1
  S  S81  1  0.32693294  0.05775834  0.06500829  1
  S  S82  1  0.45236131  0.63031229  0.00708578  1
  S  S83  1  0.74413997  0.22464826  0.09091707  1
  S  S84  1  0.73181437  0.60020480  0.04938243  1
  S  S85  1  0.00838086  0.76862385  0.03501793  1
  S  S86  1  0.55801486  0.85071229  0.06631959  1
  S  S87  1  0.02618839  0.96018332  0.07574068  1
  S  S88  1  0.68275344  0.41642182  0.01138540  1
  S  S89  1  0.63672274  0.04721426  0.03655188  1
  S  S90  1  0.48579738  0.51059833  0.07033354  1
  S  S91  1  0.99599760  0.30451950  0.06321037  1
  S  S92  1  0.89945944  0.62588482  0.17279277  1
  S  S93  1  0.98853379  0.94663161  0.16821275  1
  S  S94  1  0.16696650  0.50032929  0.10848770  1
  S  S95  1  0.04655597  0.18965605  0.12614216  1
  S  S96  1  0.42309547  0.10894138  0.18867365  1
  S  S97  1  0.44188535  0.45709255  0.15445010  1
  S  S98  1  0.61302909  0.01579618  0.10789727  1
  S  S99  1  0.60759851  0.68137954  0.13086813  1
  S  S100  1  0.20101998  0.73191988  0.16750395  1
  S  S101  1  0.68507932  0.83861889  0.17357479  1
  S  S102  1  0.81994330  0.40094061  0.12590677  1
  S  S103  1  0.37954773  0.28732267  0.11320948  1
  S  S104  1  0.92654605  0.76728977  0.10448289  1
  S  S105  1  0.29309039  0.93406119  0.14047799  1
  S  S106  1  0.17057478  0.38596113  0.17163693  1
  S  S107  1  0.69188147  0.18327819  0.16837109  1
  S  S108  1  0.56132933  0.50049481  0.27525448  1
  S  S109  1  0.66622652  0.81837249  0.26692962  1
  S  S110  1  0.84778952  0.38315836  0.21179091  1
  S  S111  1  0.71576362  0.05889196  0.22925264  1
  S  S112  1  0.09701161  0.98622039  0.28657527  1
  S  S113  1  0.13001074  0.33159294  0.25590570  1
  S  S114  1  0.27941516  0.88665329  0.21027520  1
  S  S115  1  0.27830778  0.55571042  0.23113531  1
  S  S116  1  0.87877986  0.60353207  0.26708747  1
  S  S117  1  0.34889078  0.71494525  0.27503431  1
  S  S118  1  0.50039029  0.27236825  0.22953873  1
  S  S119  1  0.06078490  0.16930923  0.21314224  1
  S  S120  1  0.59514319  0.64096748  0.20165916  1
  S  S121  1  0.97254903  0.80197125  0.24028559  1
  S  S122  1  0.85665514  0.25911967  0.27283300  1
  S  S123  1  0.37070809  0.05831887  0.26948298  1
  S  S124  1  0.24154269  0.37185355  0.37425764  1
  S  S125  1  0.33119968  0.69237568  0.36986747  1
  S  S126  1  0.51343199  0.26018190  0.31295672  1
  S  S127  1  0.38035244  0.93463102  0.33046412  1
  S  S128  1  0.78599389  0.86111443  0.38745426  1
  S  S129  1  0.80551527  0.20979517  0.35387244  1
  S  S130  1  0.94916864  0.76262888  0.31100703  1
  S  S131  1  0.95032102  0.43129834  0.33214652  1
  S  S132  1  0.54464877  0.47947686  0.36876651  1
  S  S133  1  0.02917709  0.58650141  0.37467414  1
  S  S134  1  0.16762163  0.14840063  0.32919357  1
  S  S135  1  0.72824626  0.04666111  0.31299407  1
  S  S136  1  0.25522554  0.51648301  0.30184388  1
  S  S137  1  0.63443660  0.67659719  0.34053826  1
  S  S138  1  0.53535460  0.13661720  0.37397502  1
  S  S139  1  0.05921072  0.93051095  0.37061211  1
  S  S140  1  0.90330283  0.25800496  0.47712265  1
  S  S141  1  0.98114553  0.56589857  0.45762497  1
  S  S142  1  0.18359092  0.12680439  0.41619030  1
  S  S143  1  0.05985397  0.81652474  0.43376441  1
  S  S144  1  0.50003509  0.71672569  0.49264062  1
  S  S145  1  0.48611253  0.09130424  0.45143506  1
  S  S146  1  0.62485053  0.63583759  0.41138585  1
  S  S147  1  0.61829973  0.30157965  0.43388792  1
  S  S148  1  0.20418452  0.35584898  0.46649597  1
  S  S149  1  0.67229627  0.46540829  0.47593471  1
  S  S150  1  0.84973821  0.03022205  0.42877518  1
  S  S151  1  0.41035794  0.91537827  0.41632181  1
  S  S152  1  0.93690648  0.38423424  0.40185097  1
  S  S153  1  0.30319740  0.54965364  0.43802872  1
  S  S154  1  0.23399051  0.01083217  0.47891694  1
  S  S155  1  0.74883625  0.80455714  0.47239244  1
  S  S156  1  0.77857196  0.68668950  0.53542943  1
  S  S157  1  0.21953504  0.54825434  0.50734650  1
  S  S158  1  0.54798665  0.90066134  0.53081280  1
  S  S159  1  0.59232317  0.26867186  0.50513329  1
