# generated using pymatgen
data_Li3PS4
_symmetry_space_group_name_H-M   'P 1'
_cell_length_a   13.05789500
_cell_length_b   14.91536200
_cell_length_c   47.63368400
_cell_angle_alpha   90.00000000
_cell_angle_beta   90.00000000
_cell_angle_gamma   90.00000000
_symmetry_Int_Tables_number   1
_chemical_formula_structural   Li3PS4
_chemical_formula_sum   'Li84 P28 S112'
_cell_volume   9277.29019470
_cell_formula_units_Z   28
loop_
 _symmetry_equiv_pos_site_id
 _symmetry_equiv_pos_as_xyz
  1  'x, y, z'
loop_
 _atom_site_type_symbol
 _atom_site_label
 _atom_site_symmetry_multiplicity
 _atom_site_fract_x
 _atom_site_fract_y
 _atom_site_fract_z
 _atom_site_occupancy
  Li  Li0  1  0.16435462  0.32645344  0.14567240  1
  Li  Li1  1  0.16115068  0.67382558  0.06034302  1
  Li  Li2  1  0.87338504  0.58562389  0.07192911  1
  Li  Li3  1  0.31883432  0.47154841  0.09472176  1
  Li  Li4  1  0.67137423  0.45363981  0.11483210  1
  Li  Li5  1  0.67411853  0.71026097  0.06026038  1
  Li  Li6  1  0.66860939  0.91958687  0.09909850  1
  Li  Li7  1  0.29036223  0.47801884  0.01866144  1
  Li  Li8  1  0.33368004  0.01041669  0.09623736  1
  Li  Li9  1  0.77961648  0.46087911  0.02943976  1
  Li  Li10  1  0.78336080  0.21824468  0.10927023  1
  Li  Li11  1  0.14601817  0.22898306  0.05816811  1
  Li  Li12  1  0.17198808  0.80417575  0.12633644  1
  Li  Li13  1  0.99820132  0.43468503  0.10407935  1
  Li  Li14  1  0.47195120  0.62966085  0.08172979  1
  Li  Li15  1  0.51317479  0.30255300  0.13324723  1
  Li  Li16  1  0.50285808  0.82000147  0.14058113  1
  Li  Li17  1  0.53684998  0.18618099  0.07416464  1
  Li  Li18  1  0.00834498  0.96123207  0.10111021  1
  Li  Li19  1  0.17072563  0.63394963  0.28256429  1
  Li  Li20  1  0.17350024  0.98082669  0.21012782  1
  Li  Li21  1  0.83692388  0.89021109  0.21518037  1
  Li  Li22  1  0.84539129  0.18259177  0.16543730  1
  Li  Li23  1  0.32503764  0.79149062  0.23615215  1
  Li  Li24  1  0.34397734  0.14551236  0.16221750  1
  Li  Li25  1  0.67127823  0.74630940  0.26019768  1
  Li  Li26  1  0.65644889  0.06901272  0.18818997  1
  Li  Li27  1  0.65981008  0.57074674  0.17983646  1
  Li  Li28  1  0.66833802  0.21327024  0.25306861  1
  Li  Li29  1  0.33758405  0.66149788  0.17401799  1
  Li  Li30  1  0.32718761  0.30639094  0.24714187  1
  Li  Li31  1  0.82636229  0.77361743  0.14984063  1
  Li  Li32  1  0.82931991  0.42586115  0.22535966  1
  Li  Li33  1  0.16267188  0.48155910  0.19991418  1
  Li  Li34  1  0.15910247  0.11153907  0.27256337  1
  Li  Li35  1  0.00609856  0.73149355  0.24615001  1
  Li  Li36  1  0.01685289  0.06195333  0.17260092  1
  Li  Li37  1  0.48736317  0.93373903  0.22228677  1
  Li  Li38  1  0.50932035  0.59578707  0.27192567  1
  Li  Li39  1  0.49386360  0.06527440  0.28375028  1
  Li  Li40  1  0.49260893  0.40410737  0.21050689  1
  Li  Li41  1  0.98651540  0.62090000  0.16365731  1
  Li  Li42  1  0.99516696  0.27390190  0.23832547  1
  Li  Li43  1  0.15331677  0.99405650  0.40332327  1
  Li  Li44  1  0.16493241  0.28732599  0.35309297  1
  Li  Li45  1  0.82632625  0.19810392  0.35823367  1
  Li  Li46  1  0.82936420  0.54237297  0.28621701  1
  Li  Li47  1  0.34437046  0.10460109  0.37995415  1
  Li  Li48  1  0.33855705  0.44441351  0.30808939  1
  Li  Li49  1  0.65650833  0.04010881  0.40554774  1
  Li  Li50  1  0.67090105  0.39589157  0.33227968  1
  Li  Li51  1  0.66403167  0.86310558  0.32590520  1
  Li  Li52  1  0.66404057  0.51031029  0.39669655  1
  Li  Li53  1  0.32937299  0.95732550  0.31922557  1
  Li  Li54  1  0.33368374  0.59972941  0.39199746  1
  Li  Li55  1  0.83958653  0.06108338  0.29640123  1
  Li  Li56  1  0.83871081  0.69350862  0.36898442  1
  Li  Li57  1  0.17210091  0.75087223  0.34305036  1
  Li  Li58  1  0.17088769  0.40027893  0.41915290  1
  Li  Li59  1  0.98246603  0.11522693  0.39585296  1
  Li  Li60  1  0.99568813  0.44429592  0.32313996  1
  Li  Li61  1  0.50984934  0.24582442  0.34410525  1
  Li  Li62  1  0.48975036  0.87758886  0.43062322  1
  Li  Li63  1  0.49749158  0.35378233  0.42857486  1
  Li  Li64  1  0.49018302  0.70195377  0.35372674  1
  Li  Li65  1  0.00565916  0.90207772  0.33047811  1
  Li  Li66  1  0.01480775  0.55596457  0.40479019  1
  Li  Li67  1  0.12655220  0.59004162  0.49638760  1
  Li  Li68  1  0.83743378  0.50342952  0.50815322  1
  Li  Li69  1  0.83583238  0.85089354  0.42219892  1
  Li  Li70  1  0.32567272  0.46635071  0.50802912  1
  Li  Li71  1  0.33245157  0.72313769  0.45330783  1
  Li  Li72  1  0.67944658  0.70520186  0.47375768  1
  Li  Li73  1  0.66860512  0.16471189  0.47266356  1
  Li  Li74  1  0.71118579  0.70015515  0.55000025  1
  Li  Li75  1  0.33108727  0.25594407  0.46921954  1
  Li  Li76  1  0.82918206  0.37110228  0.44267202  1
  Li  Li77  1  0.85523510  0.94733868  0.51022141  1
  Li  Li78  1  0.21690606  0.95682853  0.45953854  1
  Li  Li79  1  0.22178936  0.71532414  0.53865362  1
  Li  Li80  1  0.00193198  0.74166975  0.46435117  1
  Li  Li81  1  0.52723171  0.54717434  0.48724284  1
  Li  Li82  1  0.46511417  0.98722495  0.49350346  1
  Li  Li83  1  0.99039723  0.21428710  0.46850562  1
  P  P84  1  0.09802478  0.47501814  0.04474169  1
  P  P85  1  0.08618991  0.16146265  0.11650296  1
  P  P86  1  0.91461246  0.76764918  0.09094929  1
  P  P87  1  0.40769419  0.83262360  0.07843336  1
  P  P88  1  0.57638472  0.43824806  0.05389528  1
  P  P89  1  0.59626442  0.09490668  0.12650574  1
  P  P90  1  0.08787674  0.80527365  0.18704647  1
  P  P91  1  0.08865334  0.46227251  0.26015572  1
  P  P92  1  0.90340825  0.41658048  0.16564651  1
  P  P93  1  0.91233909  0.07065947  0.23613568  1
  P  P94  1  0.40784052  0.48118495  0.15315519  1
  P  P95  1  0.41000817  0.13341230  0.22427028  1
  P  P96  1  0.58756969  0.75023735  0.20158829  1
  P  P97  1  0.58851000  0.39382486  0.27296612  1
  P  P98  1  0.08806801  0.10563202  0.33272174  1
  P  P99  1  0.09649708  0.75972076  0.40290190  1
  P  P100  1  0.91208547  0.71441956  0.30886000  1
  P  P101  1  0.91173587  0.37231280  0.38153741  1
  P  P102  1  0.41307033  0.78245174  0.29487494  1
  P  P103  1  0.41200991  0.42900634  0.36822490  1
  P  P104  1  0.58957599  0.04317746  0.34498573  1
  P  P105  1  0.59189917  0.69251261  0.41529819  1
  P  P106  1  0.08479753  0.40817721  0.47807983  1
  P  P107  1  0.91383209  0.01508877  0.45188731  1
  P  P108  1  0.90273425  0.70185879  0.52391415  1
  P  P109  1  0.40334769  0.08112091  0.44188439  1
  P  P110  1  0.42438834  0.73860324  0.51437613  1
  P  P111  1  0.59310281  0.34268398  0.49055233  1
  S  S112  1  0.16845368  0.36151584  0.02934053  1
  S  S113  1  0.14842127  0.07698212  0.08674529  1
  S  S114  1  0.84741545  0.87723889  0.11022580  1
  S  S115  1  0.34233121  0.86246749  0.11747766  1
  S  S116  1  0.62172331  0.39908565  0.01576769  1
  S  S117  1  0.67316605  0.08855445  0.08888864  1
  S  S118  1  0.67094585  0.54202813  0.06991342  1
  S  S119  1  0.34266984  0.37062709  0.13418517  1
  S  S120  1  0.34498920  0.72388222  0.05916904  1
  S  S121  1  0.83750224  0.38582190  0.12744979  1
  S  S122  1  0.85298891  0.73565543  0.05271975  1
  S  S123  1  0.14630341  0.51640722  0.08419130  1
  S  S124  1  0.06543154  0.80326000  0.08431804  1
  S  S125  1  0.94243758  0.44946939  0.05221586  1
  S  S126  1  0.93822638  0.11450332  0.12387169  1
  S  S127  1  0.43035573  0.49004301  0.05399044  1
  S  S128  1  0.44732200  0.13817005  0.11784262  1
  S  S129  1  0.55717099  0.78786949  0.09037734  1
  S  S130  1  0.09372179  0.28783869  0.10047819  1
  S  S131  1  0.13441298  0.57566004  0.01778208  1
  S  S132  1  0.89313373  0.65782510  0.11711923  1
  S  S133  1  0.38507693  0.59200659  0.12883567  1
  S  S134  1  0.41161189  0.94466635  0.05528224  1
  S  S135  1  0.59703138  0.33671582  0.08376308  1
  S  S136  1  0.15420575  0.69950059  0.16610883  1
  S  S137  1  0.15414739  0.36202620  0.23644715  1
  S  S138  1  0.84070153  0.52743851  0.18472768  1
  S  S139  1  0.85238727  0.17725124  0.25769994  1
  S  S140  1  0.35056047  0.50579194  0.19247544  1
  S  S141  1  0.34374319  0.15007156  0.26306362  1
  S  S142  1  0.64832919  0.72724359  0.16256191  1
  S  S143  1  0.65507860  0.36745934  0.23471186  1
  S  S144  1  0.65328947  0.85656600  0.22268373  1
  S  S145  1  0.65946231  0.19640706  0.15083019  1
  S  S146  1  0.34713663  0.67985634  0.27226110  1
  S  S147  1  0.35056315  0.03026023  0.20074171  1
  S  S148  1  0.84564465  0.69650920  0.26992592  1
  S  S149  1  0.84608782  0.04796202  0.19661705  1
  S  S150  1  0.14570913  0.82732050  0.22666439  1
  S  S151  1  0.15755571  0.16165202  0.15506880  1
  S  S152  1  0.05354066  0.45535430  0.15744581  1
  S  S153  1  0.06274130  0.10674233  0.22703738  1
  S  S154  1  0.93596565  0.76851446  0.19320750  1
  S  S155  1  0.93947351  0.42137569  0.26799288  1
  S  S156  1  0.43660961  0.78879012  0.19415067  1
  S  S157  1  0.43800847  0.43018925  0.26409828  1
  S  S158  1  0.56133077  0.44632742  0.15907046  1
  S  S159  1  0.56039988  0.09321768  0.23269449  1
  S  S160  1  0.10246506  0.57898271  0.23766973  1
  S  S161  1  0.11174747  0.91893515  0.16362997  1
  S  S162  1  0.89613995  0.95712705  0.25893266  1
  S  S163  1  0.89031434  0.31004260  0.19272685  1
  S  S164  1  0.39478388  0.89981771  0.27234488  1
  S  S165  1  0.39611652  0.24864571  0.20131180  1
  S  S166  1  0.60574348  0.63634728  0.22517286  1
  S  S167  1  0.60743592  0.97699055  0.14757601  1
  S  S168  1  0.14870896  0.99821299  0.31153385  1
  S  S169  1  0.15878744  0.64939773  0.38339456  1
  S  S170  1  0.84609639  0.81441885  0.33243631  1
  S  S171  1  0.84794206  0.47729740  0.40331113  1
  S  S172  1  0.34961384  0.80060380  0.33382950  1
  S  S173  1  0.35038398  0.44432984  0.40753627  1
  S  S174  1  0.65670859  0.01820182  0.30655746  1
  S  S175  1  0.65297765  0.66334303  0.37652751  1
  S  S176  1  0.64831101  0.15138166  0.36637683  1
  S  S177  1  0.64911019  0.50275441  0.29347705  1
  S  S178  1  0.33878070  0.97957227  0.41772171  1
  S  S179  1  0.34596951  0.32784584  0.34485844  1
  S  S180  1  0.84233125  0.01555074  0.41333771  1
  S  S181  1  0.85101327  0.35295893  0.34208927  1
  S  S182  1  0.15452365  0.12919933  0.37207732  1
  S  S183  1  0.15596311  0.47970745  0.29890761  1
  S  S184  1  0.06134032  0.75541872  0.30080540  1
  S  S185  1  0.06398108  0.40795680  0.37509559  1
  S  S186  1  0.93742844  0.07033751  0.34161310  1
  S  S187  1  0.94655376  0.72104682  0.41125657  1
  S  S188  1  0.43905059  0.08249614  0.33555554  1
  S  S189  1  0.43863735  0.72582049  0.40860979  1
  S  S190  1  0.56279822  0.74281891  0.30231496  1
  S  S191  1  0.56252492  0.38880338  0.37489090  1
  S  S192  1  0.10909225  0.86652960  0.37585271  1
  S  S193  1  0.10473437  0.21824353  0.30950791  1
  S  S194  1  0.88829655  0.25792664  0.40460272  1
  S  S195  1  0.89862038  0.59714805  0.33099017  1
  S  S196  1  0.39124641  0.19882786  0.42074016  1
  S  S197  1  0.39501177  0.54575128  0.34587880  1
  S  S198  1  0.59920659  0.93201923  0.36941593  1
  S  S199  1  0.60679976  0.28199692  0.29749578  1
  S  S200  1  0.15120393  0.29783522  0.45901355  1
  S  S201  1  0.85119627  0.09896006  0.48182062  1
  S  S202  1  0.83389286  0.81597312  0.53948488  1
  S  S203  1  0.32805105  0.08680296  0.47970495  1
  S  S204  1  0.37795944  0.77959529  0.55222781  1
  S  S205  1  0.65857470  0.31327477  0.45144524  1
  S  S206  1  0.65432579  0.45236129  0.50965950  1
  S  S207  1  0.65706633  0.80389079  0.43354112  1
  S  S208  1  0.33008728  0.63411758  0.49846473  1
  S  S209  1  0.85314412  0.66112487  0.48451553  1
  S  S210  1  0.14697886  0.44099910  0.51613743  1
  S  S211  1  0.16355113  0.78933176  0.44095394  1
  S  S212  1  0.06188679  0.06188999  0.44484805  1
  S  S213  1  0.05838622  0.72638568  0.51617431  1
  S  S214  1  0.93398631  0.37301993  0.48489628  1
  S  S215  1  0.44313230  0.38620355  0.47863662  1
  S  S216  1  0.55285246  0.03834431  0.44995392  1
  S  S217  1  0.57026550  0.68622307  0.51497330  1
  S  S218  1  0.10631513  0.51724063  0.45157587  1
  S  S219  1  0.86594974  0.60143255  0.55088700  1
  S  S220  1  0.90554636  0.88844480  0.46767365  1
  S  S221  1  0.40601005  0.83796751  0.48390644  1
  S  S222  1  0.59130883  0.23064657  0.51371823  1
  S  S223  1  0.61380918  0.58347727  0.44055349  1
