# generated using pymatgen
data_Li3PS4
_symmetry_space_group_name_H-M   'P 1'
_cell_length_a   14.91536200
_cell_length_b   14.48087041
_cell_length_c   46.09462300
_cell_angle_alpha   90.00000000
_cell_angle_beta   90.00000000
_cell_angle_gamma   68.72383501
_symmetry_Int_Tables_number   1
_chemical_formula_structural   Li3PS4
_chemical_formula_sum   'Li78 P26 S104'
_cell_volume   9277.29004457
_cell_formula_units_Z   26
loop_
 _symmetry_equiv_pos_site_id
 _symmetry_equiv_pos_as_xyz
  1  'x, y, z'
loop_
 _atom_site_type_symbol
 _atom_site_label
 _atom_site_symmetry_multiplicity
 _atom_site_fract_x
 _atom_site_fract_y
 _atom_site_fract_z
 _atom_site_occupancy
  Li  Li0  1  0.29225595  0.74002670  0.10629964  1
  Li  Li1  1  0.61182198  0.82016675  0.04267641  1
  Li  Li2  1  0.27001034  0.04916180  0.13154119  1
  Li  Li3  1  0.59284775  0.12922696  0.05729817  1
  Li  Li4  1  0.47367924  0.58148996  0.08620431  1
  Li  Li5  1  0.35345910  0.23389983  0.09645706  1
  Li  Li6  1  0.30456114  0.30010041  0.02069142  1
  Li  Li7  1  0.88781983  0.21858590  0.10206302  1
  Li  Li8  1  0.04263810  0.64533734  0.06505087  1
  Li  Li9  1  0.68283943  0.55647024  0.13504542  1
  Li  Li10  1  0.73976223  0.05867496  0.11795757  1
  Li  Li11  1  0.81118501  0.73508394  0.12047190  1
  Li  Li12  1  0.42363396  0.93309006  0.08341428  1
  Li  Li13  1  0.70520406  0.98414831  0.01678157  1
  Li  Li14  1  0.45278583  0.38691753  0.09847094  1
  Li  Li15  1  0.87608738  0.41593026  0.08687144  1
  Li  Li16  1  0.27382512  0.00642324  0.03175230  1
  Li  Li17  1  0.94916302  0.92692423  0.09118844  1
  Li  Li18  1  0.63511805  0.61000426  0.25426809  1
  Li  Li19  1  0.96650190  0.66737058  0.18093971  1
  Li  Li20  1  0.61626752  0.92165307  0.27204074  1
  Li  Li21  1  0.95259540  0.99229935  0.19617790  1
  Li  Li22  1  0.21632275  0.54644877  0.14139366  1
  Li  Li23  1  0.88101384  0.46974982  0.21483848  1
  Li  Li24  1  0.70670211  0.11280020  0.23877064  1
  Li  Li25  1  0.03297287  0.19299950  0.16610166  1
  Li  Li26  1  0.55391310  0.17928331  0.17867010  1
  Li  Li27  1  0.22791124  0.10669910  0.24761377  1
  Li  Li28  1  0.35654741  0.47612825  0.20595875  1
  Li  Li29  1  0.02396156  0.42514482  0.27820410  1
  Li  Li30  1  0.42044646  0.99859014  0.19099388  1
  Li  Li31  1  0.09137055  0.93620354  0.26264002  1
  Li  Li32  1  0.47329022  0.66103319  0.19238798  1
  Li  Li33  1  0.16145567  0.59561119  0.26298619  1
  Li  Li34  1  0.81833121  0.79057078  0.22774033  1
  Li  Li35  1  0.14711179  0.85486777  0.15371722  1
  Li  Li36  1  0.79274096  0.28042774  0.23855605  1
  Li  Li37  1  0.11869447  0.38618835  0.14100019  1
  Li  Li38  1  0.65680836  0.36167942  0.15827643  1
  Li  Li39  1  0.25230252  0.29587677  0.22291556  1
  Li  Li40  1  0.61446424  0.85902037  0.16480014  1
  Li  Li41  1  0.28318549  0.79760158  0.23432503  1
  Li  Li42  1  0.98077717  0.48487432  0.39432239  1
  Li  Li43  1  0.29916692  0.53998534  0.32962882  1
  Li  Li44  1  0.96073658  0.79321214  0.41865982  1
  Li  Li45  1  0.28548828  0.86415972  0.34470498  1
  Li  Li46  1  0.54468788  0.41974984  0.28714258  1
  Li  Li47  1  0.21757827  0.33873694  0.35950021  1
  Li  Li48  1  0.03662280  0.98588626  0.38448731  1
  Li  Li49  1  0.37199564  0.06202283  0.31057265  1
  Li  Li50  1  0.89593349  0.05618270  0.32023689  1
  Li  Li51  1  0.56785806  0.97783978  0.39081385  1
  Li  Li52  1  0.69804450  0.35391756  0.34731996  1
  Li  Li53  1  0.36556452  0.31180578  0.42283350  1
  Li  Li54  1  0.77784839  0.87114432  0.33328527  1
  Li  Li55  1  0.44198488  0.79729162  0.40491673  1
  Li  Li56  1  0.83274387  0.53162366  0.33455077  1
  Li  Li57  1  0.51283172  0.47480802  0.40782616  1
  Li  Li58  1  0.10396221  0.67715361  0.37180817  1
  Li  Li59  1  0.43118718  0.74300059  0.29797835  1
  Li  Li60  1  0.13276721  0.14576906  0.38415172  1
  Li  Li61  1  0.45940303  0.25237259  0.28730823  1
  Li  Li62  1  0.99868995  0.23688406  0.30253736  1
  Li  Li63  1  0.59512882  0.17077131  0.36724858  1
  Li  Li64  1  0.96854970  0.73572884  0.29073803  1
  Li  Li65  1  0.63774913  0.67400736  0.36072574  1
  Li  Li66  1  0.65853955  0.40268133  0.46849823  1
  Li  Li67  1  0.64065582  0.70879422  0.48331014  1
  Li  Li68  1  0.90136633  0.29807204  0.42919968  1
  Li  Li69  1  0.77808674  0.95004090  0.43893443  1
  Li  Li70  1  0.20960376  0.88734334  0.46080401  1
  Li  Li71  1  0.94813026  0.22871957  0.50544197  1
  Li  Li72  1  0.54401620  0.54946298  0.50904358  1
  Li  Li73  1  0.82915862  0.59767100  0.44243089  1
  Li  Li74  1  0.79792434  0.14584873  0.42729083  1
  Li  Li75  1  0.37392934  0.11676390  0.43865164  1
  Li  Li76  1  0.30253805  0.60486065  0.43485319  1
  Li  Li77  1  0.98002802  0.52175396  0.49417413  1
  P  P78  1  0.77617583  0.85320901  0.06582143  1
  P  P79  1  0.44889334  0.78569250  0.13793418  1
  P  P80  1  0.44326622  0.06119061  0.02836558  1
  P  P81  1  0.11739982  0.99645275  0.09991634  1
  P  P82  1  0.23693908  0.51223855  0.07467249  1
  P  P83  1  0.67974746  0.32725117  0.08864133  1
  P  P84  1  0.12197495  0.72465418  0.20911676  1
  P  P85  1  0.79609130  0.66031816  0.28135968  1
  P  P86  1  0.78829751  0.93606063  0.17296588  1
  P  P87  1  0.45600312  0.87140347  0.24431999  1
  P  P88  1  0.56630102  0.38961386  0.22310714  1
  P  P89  1  0.89089207  0.45737513  0.14882381  1
  P  P90  1  0.34216676  0.26673484  0.16036248  1
  P  P91  1  0.02019287  0.20527698  0.23257942  1
  P  P92  1  0.46339199  0.59666714  0.35259024  1
  P  P93  1  0.13449938  0.53489462  0.42559726  1
  P  P94  1  0.12967112  0.80770592  0.31646476  1
  P  P95  1  0.80294056  0.74622955  0.38777178  1
  P  P96  1  0.91018755  0.26559051  0.36533362  1
  P  P97  1  0.23150607  0.32691842  0.29323620  1
  P  P98  1  0.68595956  0.14256920  0.30283133  1
  P  P99  1  0.36043191  0.07471657  0.37661043  1
  P  P100  1  0.80845530  0.46985306  0.49735647  1
  P  P101  1  0.47490894  0.67975365  0.45980339  1
  P  P102  1  0.57237429  0.20510153  0.43707876  1
  P  P103  1  0.01473267  0.02002819  0.45099163  1
  S  S104  1  0.90855361  0.77855712  0.08466896  1
  S  S105  1  0.31040923  0.14055356  0.01091819  1
  S  S106  1  0.99259572  0.07145909  0.07888814  1
  S  S107  1  0.19067392  0.59718621  0.03959542  1
  S  S108  1  0.83336493  0.55819560  0.11566987  1
  S  S109  1  0.73538656  0.22870548  0.12256739  1
  S  S110  1  0.24895084  0.22516547  0.13517821  1
  S  S111  1  0.57970916  0.29994506  0.06393336  1
  S  S112  1  0.32561038  0.55822960  0.10261168  1
  S  S113  1  0.45625705  0.08668780  0.07217145  1
  S  S114  1  0.76560275  0.81237824  0.02375227  1
  S  S115  1  0.44759833  0.75584407  0.09391632  1
  S  S116  1  0.13102156  0.84950005  0.09844934  1
  S  S117  1  0.45021881  0.91524237  0.02627798  1
  S  S118  1  0.43729197  0.93296940  0.14036567  1
  S  S119  1  0.76241169  0.00251592  0.06582245  1
  S  S120  1  0.60236192  0.45965035  0.11051039  1
  S  S121  1  0.32608272  0.37001042  0.06380866  1
  S  S122  1  0.97265302  0.32555055  0.12796931  1
  S  S123  1  0.67379829  0.82688558  0.09021614  1
  S  S124  1  0.23005432  0.02753374  0.08178559  1
  S  S125  1  0.54577234  0.09691922  0.00681145  1
  S  S126  1  0.12160220  0.51686807  0.10042444  1
  S  S127  1  0.45850510  0.26194962  0.13601041  1
  S  S128  1  0.79072964  0.33002059  0.06321718  1
  S  S129  1  0.25444567  0.64215181  0.22631612  1
  S  S130  1  0.57667885  0.70685016  0.15811532  1
  S  S131  1  0.65151932  0.01367071  0.15816271  1
  S  S132  1  0.32382309  0.94782296  0.22619313  1
  S  S133  1  0.51247271  0.48012990  0.18806118  1
  S  S134  1  0.17622541  0.42353124  0.25916099  1
  S  S135  1  0.39421515  0.17738422  0.19577676  1
  S  S136  1  0.07550775  0.10886834  0.26666780  1
  S  S137  1  0.59723023  0.09879983  0.27632522  1
  S  S138  1  0.92800475  0.16831398  0.20614631  1
  S  S139  1  0.65469686  0.43348238  0.24968628  1
  S  S140  1  0.98627911  0.49177138  0.17460527  1
  S  S141  1  0.81168826  0.96016828  0.21583407  1
  S  S142  1  0.11975944  0.03013057  0.14381355  1
  S  S143  1  0.10884797  0.70086372  0.16567339  1
  S  S144  1  0.78473766  0.63288819  0.23800763  1
  S  S145  1  0.46855458  0.72285589  0.24273456  1
  S  S146  1  0.80101257  0.78717640  0.17142638  1
  S  S147  1  0.78309755  0.80913834  0.28284868  1
  S  S148  1  0.11168685  0.87140017  0.21237322  1
  S  S149  1  0.25849562  0.40535264  0.17666689  1
  S  S150  1  0.93489003  0.33804766  0.25193533  1
  S  S151  1  0.65448290  0.25560041  0.20506481  1
  S  S152  1  0.31679983  0.19454102  0.27373062  1
  S  S153  1  0.34219957  0.75214889  0.15789099  1
  S  S154  1  0.01897062  0.68929456  0.23146952  1
  S  S155  1  0.55933112  0.90434472  0.22218183  1
  S  S156  1  0.88558931  0.97106970  0.14853463  1
  S  S157  1  0.45238869  0.38415106  0.24705349  1
  S  S158  1  0.78183872  0.44925797  0.17423276  1
  S  S159  1  0.79987079  0.14774053  0.27885960  1
  S  S160  1  0.13148162  0.21141527  0.20767893  1
  S  S161  1  0.60036279  0.51936887  0.36731276  1
  S  S162  1  0.92837764  0.58463908  0.29948781  1
  S  S163  1  0.99738653  0.89071298  0.29927275  1
  S  S164  1  0.67469009  0.82613129  0.36794068  1
  S  S165  1  0.85754993  0.35419247  0.32979109  1
  S  S166  1  0.51800247  0.30423080  0.40321811  1
  S  S167  1  0.73977084  0.05187676  0.33783585  1
  S  S168  1  0.41753457  0.97433831  0.40987647  1
  S  S169  1  0.92630876  0.97437253  0.42284181  1
  S  S170  1  0.26578194  0.03994691  0.35063969  1
  S  S171  1  0.00353089  0.30790951  0.39018270  1
  S  S172  1  0.32342731  0.36378604  0.31979212  1
  S  S173  1  0.14284335  0.83129127  0.35992193  1
  S  S174  1  0.46698389  0.89857779  0.28771655  1
  S  S175  1  0.43942848  0.57262368  0.30975585  1
  S  S176  1  0.13105198  0.50209375  0.38166901  1
  S  S177  1  0.81416118  0.59914864  0.38523048  1
  S  S178  1  0.13981949  0.66114820  0.31317483  1
  S  S179  1  0.12105732  0.68186228  0.42724080  1
  S  S180  1  0.45083142  0.74554756  0.35407140  1
  S  S181  1  0.59783368  0.27678206  0.32086769  1
  S  S182  1  0.27844689  0.20662501  0.39740052  1
  S  S183  1  0.99421527  0.12689103  0.34914788  1
  S  S184  1  0.64993488  0.07318585  0.41500764  1
  S  S185  1  0.69302319  0.62733044  0.30367460  1
  S  S186  1  0.36660917  0.56153926  0.37716304  1
  S  S187  1  0.90940311  0.77948465  0.36752433  1
  S  S188  1  0.23286906  0.84284146  0.29412680  1
  S  S189  1  0.79413466  0.27054487  0.38979498  1
  S  S190  1  0.12005836  0.32034275  0.31798089  1
  S  S191  1  0.13039728  0.01600261  0.42548314  1
  S  S192  1  0.46976070  0.08313552  0.35136811  1
  S  S193  1  0.94081596  0.38910157  0.51494072  1
  S  S194  1  0.25974405  0.45906364  0.44626483  1
  S  S195  1  0.34306180  0.75422464  0.44071226  1
  S  S196  1  0.06089459  0.93470739  0.48602680  1
  S  S197  1  0.67177584  0.23182255  0.46218263  1
  S  S198  1  0.48498352  0.72107261  0.50186998  1
  S  S199  1  0.80563881  0.77546961  0.43174334  1
  S  S200  1  0.79550380  0.44441624  0.45354184  1
  S  S201  1  0.48849888  0.53037632  0.45992212  1
  S  S202  1  0.80333950  0.61513785  0.49943295  1
  S  S203  1  0.92544304  0.16216819  0.46187256  1
  S  S204  1  0.02225223  0.50352254  0.44398673  1
  S  S205  1  0.70439173  0.43660787  0.51886681  1
  S  S206  1  0.57806809  0.70526917  0.43558503  1
  S  S207  1  0.46091728  0.20141616  0.46210106  1
