# generated using pymatgen
data_Li2O
_symmetry_space_group_name_H-M   'P 1'
_cell_length_a   4.62116000
_cell_length_b   4.62116000
_cell_length_c   50.78121384
_cell_angle_alpha   90.00000000
_cell_angle_beta   90.00000000
_cell_angle_gamma   90.00000000
_symmetry_Int_Tables_number   1
_chemical_formula_structural   Li2O
_chemical_formula_sum   'Li88 O44'
_cell_volume   1084.43890247
_cell_formula_units_Z   44
loop_
 _symmetry_equiv_pos_site_id
 _symmetry_equiv_pos_as_xyz
  1  'x, y, z'
loop_
 _atom_site_type_symbol
 _atom_site_label
 _atom_site_symmetry_multiplicity
 _atom_site_fract_x
 _atom_site_fract_y
 _atom_site_fract_z
 _atom_site_occupancy
  Li  Li0  1  0.75000009  0.75000002  0.04552069  1
  Li  Li1  1  0.25000010  0.25000001  0.04552069  1
  Li  Li2  1  0.75000009  0.25000001  0.04552153  1
  Li  Li3  1  0.25000009  0.75000000  0.00000035  1
  Li  Li4  1  0.75000009  0.25000001  0.00000035  1
  Li  Li5  1  0.25000012  0.75000000  0.04552153  1
  Li  Li6  1  0.25000008  0.25000003  0.09103557  1
  Li  Li7  1  0.75000004  0.75000001  0.13645201  1
  Li  Li8  1  0.25000006  0.25000002  0.13645200  1
  Li  Li9  1  0.75000009  0.75000003  0.09103557  1
  Li  Li10  1  0.75000005  0.25000001  0.13655625  1
  Li  Li11  1  0.25000007  0.75000001  0.09104918  1
  Li  Li12  1  0.75000006  0.25000001  0.09104918  1
  Li  Li13  1  0.25000007  0.75000001  0.13655625  1
  Li  Li14  1  0.25000007  0.25000000  0.18183990  1
  Li  Li15  1  0.75000004  0.75000002  0.22718626  1
  Li  Li16  1  0.25000011  0.25000001  0.22718626  1
  Li  Li17  1  0.75000008  0.75000002  0.18183990  1
  Li  Li18  1  0.75000003  0.25000004  0.22718732  1
  Li  Li19  1  0.25000007  0.75000004  0.18185254  1
  Li  Li20  1  0.75000004  0.25000005  0.18185253  1
  Li  Li21  1  0.25000006  0.75000002  0.22718733  1
  Li  Li22  1  0.25000008  0.24999999  0.27281354  1
  Li  Li23  1  0.75000005  0.74999990  0.31816010  1
  Li  Li24  1  0.25000009  0.24999995  0.31816009  1
  Li  Li25  1  0.75000002  0.74999998  0.27281355  1
  Li  Li26  1  0.75000005  0.24999996  0.31814758  1
  Li  Li27  1  0.25000011  0.74999995  0.27281249  1
  Li  Li28  1  0.75000005  0.24999994  0.27281249  1
  Li  Li29  1  0.25000005  0.74999996  0.31814757  1
  Li  Li30  1  0.25000001  0.24999996  0.36354771  1
  Li  Li31  1  0.75000004  0.75000000  0.40896481  1
  Li  Li32  1  0.25000000  0.25000001  0.40896481  1
  Li  Li33  1  0.75000003  0.74999995  0.36354771  1
  Li  Li34  1  0.75000004  0.25000000  0.40895139  1
  Li  Li35  1  0.25000000  0.74999999  0.36344391  1
  Li  Li36  1  0.75000007  0.24999999  0.36344390  1
  Li  Li37  1  0.25000001  0.74999999  0.40895139  1
  Li  Li38  1  0.25000000  0.25000003  0.45447989  1
  Li  Li39  1  0.75000003  0.75000002  0.45447989  1
  Li  Li40  1  0.75000001  0.25000004  0.49999992  1
  Li  Li41  1  0.24999997  0.75000006  0.45447899  1
  Li  Li42  1  0.75000002  0.25000005  0.45447899  1
  Li  Li43  1  0.24999998  0.75000002  0.49999992  1
  Li  Li44  1  0.74999999  0.25000008  0.54551972  1
  Li  Li45  1  0.24999995  0.75000009  0.54551973  1
  Li  Li46  1  0.75000002  0.75000001  0.54552065  1
  Li  Li47  1  0.24999994  0.25000008  0.49999968  1
  Li  Li48  1  0.74999998  0.75000005  0.49999968  1
  Li  Li49  1  0.24999999  0.24999999  0.54552065  1
  Li  Li50  1  0.24999999  0.75000004  0.59103488  1
  Li  Li51  1  0.74999996  0.24999999  0.63645208  1
  Li  Li52  1  0.24999998  0.75000000  0.63645208  1
  Li  Li53  1  0.74999998  0.25000001  0.59103487  1
  Li  Li54  1  0.74999999  0.75000000  0.63655576  1
  Li  Li55  1  0.24999996  0.25000001  0.59104823  1
  Li  Li56  1  0.74999998  0.75000004  0.59104824  1
  Li  Li57  1  0.24999996  0.24999999  0.63655576  1
  Li  Li58  1  0.24999998  0.75000002  0.68183980  1
  Li  Li59  1  0.74999993  0.24999993  0.72718655  1
  Li  Li60  1  0.24999986  0.74999994  0.72718656  1
  Li  Li61  1  0.74999996  0.25000002  0.68183980  1
  Li  Li62  1  0.74999995  0.75000004  0.72718761  1
  Li  Li63  1  0.24999998  0.24999995  0.68185227  1
  Li  Li64  1  0.74999997  0.74999995  0.68185227  1
  Li  Li65  1  0.24999986  0.25000003  0.72718762  1
  Li  Li66  1  0.24999974  0.75000006  0.77281345  1
  Li  Li67  1  0.74999983  0.24999995  0.81815997  1
  Li  Li68  1  0.24999977  0.74999992  0.81815997  1
  Li  Li69  1  0.74999981  0.25000002  0.77281345  1
  Li  Li70  1  0.74999980  0.74999996  0.81814737  1
  Li  Li71  1  0.24999978  0.24999992  0.77281239  1
  Li  Li72  1  0.74999986  0.74999996  0.77281240  1
  Li  Li73  1  0.24999976  0.25000001  0.81814737  1
  Li  Li74  1  0.24999992  0.74999996  0.86354808  1
  Li  Li75  1  0.75000002  0.24999997  0.90896505  1
  Li  Li76  1  0.25000001  0.74999998  0.90896505  1
  Li  Li77  1  0.74999990  0.24999997  0.86354807  1
  Li  Li78  1  0.75000003  0.75000000  0.90895154  1
  Li  Li79  1  0.24999993  0.24999998  0.86344382  1
  Li  Li80  1  0.74999989  0.74999999  0.86344382  1
  Li  Li81  1  0.25000003  0.25000000  0.90895154  1
  Li  Li82  1  0.25000008  0.74999999  0.95448034  1
  Li  Li83  1  0.75000009  0.24999999  0.95448034  1
  Li  Li84  1  0.75000009  0.74999998  0.00000064  1
  Li  Li85  1  0.25000006  0.25000000  0.95447942  1
  Li  Li86  1  0.75000006  0.74999999  0.95447941  1
  Li  Li87  1  0.25000010  0.25000000  0.00000064  1
  O  O88  1  0.00000025  0.50000006  0.06826144  1
  O  O89  1  0.00000031  0.00000002  0.02275778  1
  O  O90  1  0.50000027  0.00000000  0.06826144  1
  O  O91  1  0.50000033  0.49999999  0.02275778  1
  O  O92  1  0.00000016  0.50000008  0.15917922  1
  O  O93  1  0.00000014  0.00000006  0.11378570  1
  O  O94  1  0.50000019  0.00000009  0.15917922  1
  O  O95  1  0.50000020  0.50000008  0.11378570  1
  O  O96  1  0.00000017  0.49999998  0.24999984  1
  O  O97  1  0.00000016  0.00000003  0.20454567  1
  O  O98  1  0.50000017  -0.00000002  0.24999983  1
  O  O99  1  0.50000017  0.50000011  0.20454567  1
  O  O100  1  0.00000020  0.49999981  0.34081671  1
  O  O101  1  0.00000014  0.99999987  0.29545134  1
  O  O102  1  0.50000016  0.99999983  0.34081672  1
  O  O103  1  0.50000020  0.49999984  0.29545134  1
  O  O104  1  0.00000003  0.50000006  0.43173968  1
  O  O105  1  0.00000010  0.99999991  0.38621430  1
  O  O106  1  0.50000004  0.00000007  0.43173968  1
  O  O107  1  0.50000004  0.49999993  0.38621431  1
  O  O108  1  -0.00000004  0.00000019  0.47724265  1
  O  O109  1  0.49999996  0.50000015  0.47724265  1
  O  O110  1  0.49999996  0.50000009  0.56825978  1
  O  O111  1  0.49999994  0.00000015  0.52275674  1
  O  O112  1  -0.00000006  0.00000009  0.56825978  1
  O  O113  1  -0.00000005  0.50000012  0.52275674  1
  O  O114  1  0.49999983  0.49999994  0.65918310  1
  O  O115  1  0.49999995  0.00000005  0.61378534  1
  O  O116  1  0.99999985  -0.00000002  0.65918310  1
  O  O117  1  -0.00000011  0.50000005  0.61378534  1
  O  O118  1  0.49999959  0.50000000  0.75000066  1
  O  O119  1  0.49999986  0.99999987  0.70454887  1
  O  O120  1  0.99999958  0.99999998  0.75000066  1
  O  O121  1  -0.00000015  0.49999989  0.70454887  1
  O  O122  1  0.49999950  0.49999991  0.84081782  1
  O  O123  1  0.49999928  -0.00000003  0.79545316  1
  O  O124  1  0.99999952  -0.00000005  0.84081782  1
  O  O125  1  0.99999930  0.49999996  0.79545316  1
  O  O126  1  0.50000016  0.49999998  0.93174058  1
  O  O127  1  0.49999993  -0.00000009  0.88621423  1
  O  O128  1  0.00000017  0.99999998  0.93174058  1
  O  O129  1  0.99999993  0.49999997  0.88621423  1
  O  O130  1  0.50000031  0.00000004  0.97724417  1
  O  O131  1  0.00000030  0.50000001  0.97724417  1
