# generated using pymatgen
data_Li2O
_symmetry_space_group_name_H-M   'P 1'
_cell_length_a   4.62116000
_cell_length_b   6.53530700
_cell_length_c   52.35996726
_cell_angle_alpha   90.00000000
_cell_angle_beta   90.00000000
_cell_angle_gamma   90.00000000
_symmetry_Int_Tables_number   1
_chemical_formula_structural   Li2O
_chemical_formula_sum   'Li128 O64'
_cell_volume   1581.30762632
_cell_formula_units_Z   64
loop_
 _symmetry_equiv_pos_site_id
 _symmetry_equiv_pos_as_xyz
  1  'x, y, z'
loop_
 _atom_site_type_symbol
 _atom_site_label
 _atom_site_symmetry_multiplicity
 _atom_site_fract_x
 _atom_site_fract_y
 _atom_site_fract_z
 _atom_site_occupancy
  Li  Li0  1  0.74903848  0.37486387  0.01584160  1
  Li  Li1  1  0.24436604  0.87494630  0.01547632  1
  Li  Li2  1  0.75012485  0.12426567  0.04701630  1
  Li  Li3  1  0.24980559  0.62568512  0.04701519  1
  Li  Li4  1  0.74446170  0.87493232  0.01546369  1
  Li  Li5  1  0.24892163  0.37486825  0.01584278  1
  Li  Li6  1  0.75010417  0.62579973  0.04704972  1
  Li  Li7  1  0.24981044  0.12418004  0.04705070  1
  Li  Li8  1  0.74973310  0.87503443  0.07820542  1
  Li  Li9  1  0.25019464  0.37503117  0.07818257  1
  Li  Li10  1  0.75009177  0.62500666  0.10926289  1
  Li  Li11  1  0.24994592  0.12500250  0.10926527  1
  Li  Li12  1  0.74976131  0.37499772  0.07818192  1
  Li  Li13  1  0.25016676  0.87497751  0.07820517  1
  Li  Li14  1  0.75009006  0.12501525  0.10926337  1
  Li  Li15  1  0.24994564  0.62500533  0.10926511  1
  Li  Li16  1  0.74877858  0.37500486  0.14052026  1
  Li  Li17  1  0.24873359  0.87494857  0.14054994  1
  Li  Li18  1  0.75037218  0.12499485  0.17209808  1
  Li  Li19  1  0.25011758  0.62432858  0.17217481  1
  Li  Li20  1  0.74875623  0.87499961  0.14052243  1
  Li  Li21  1  0.24875446  0.37500184  0.14053898  1
  Li  Li22  1  0.75029632  0.62502886  0.17209530  1
  Li  Li23  1  0.25049993  0.12502124  0.17211153  1
  Li  Li24  1  0.74718907  0.87498814  0.20330150  1
  Li  Li25  1  0.24765119  0.37490545  0.20335021  1
  Li  Li26  1  0.74982066  0.62498123  0.23436672  1
  Li  Li27  1  0.24940536  0.12480837  0.23460457  1
  Li  Li28  1  0.74719190  0.37497896  0.20330270  1
  Li  Li29  1  0.24766038  0.87495814  0.20334020  1
  Li  Li30  1  0.74982254  0.12497996  0.23436651  1
  Li  Li31  1  0.24940898  0.62481465  0.23460507  1
  Li  Li32  1  0.74962245  0.37495656  0.26539627  1
  Li  Li33  1  0.24986456  0.87493339  0.26563564  1
  Li  Li34  1  0.74739473  0.12478633  0.29666244  1
  Li  Li35  1  0.24711267  0.62482478  0.29669597  1
  Li  Li36  1  0.74962167  0.87495872  0.26539619  1
  Li  Li37  1  0.24986388  0.37493620  0.26563563  1
  Li  Li38  1  0.74739224  0.62478801  0.29666184  1
  Li  Li39  1  0.24711161  0.12482471  0.29669497  1
  Li  Li40  1  0.74976802  0.87493406  0.32789574  1
  Li  Li41  1  0.24977964  0.37379674  0.32785746  1
  Li  Li42  1  0.74874427  0.62497738  0.35945805  1
  Li  Li43  1  0.24875888  0.12483897  0.35947167  1
  Li  Li44  1  0.74963511  0.37499114  0.32789512  1
  Li  Li45  1  0.24975915  0.87375669  0.32785873  1
  Li  Li46  1  0.74874648  0.12497835  0.35945761  1
  Li  Li47  1  0.24875828  0.62484102  0.35947058  1
  Li  Li48  1  0.74994513  0.37502094  0.39073241  1
  Li  Li49  1  0.25008783  0.87500305  0.39073174  1
  Li  Li50  1  0.75023457  0.12510663  0.42179673  1
  Li  Li51  1  0.24980731  0.62506049  0.42178974  1
  Li  Li52  1  0.74994309  0.87502062  0.39073263  1
  Li  Li53  1  0.25009037  0.37501394  0.39073095  1
  Li  Li54  1  0.75024260  0.62511118  0.42179777  1
  Li  Li55  1  0.24980233  0.12506731  0.42178874  1
  Li  Li56  1  0.74970172  0.87555441  0.45296067  1
  Li  Li57  1  0.24996972  0.37511089  0.45288015  1
  Li  Li58  1  0.74922023  0.62527183  0.48418216  1
  Li  Li59  1  0.24908636  0.12524988  0.48417769  1
  Li  Li60  1  0.74967517  0.37555030  0.45295823  1
  Li  Li61  1  0.25000927  0.87510072  0.45287574  1
  Li  Li62  1  0.74884471  0.12542121  0.48418500  1
  Li  Li63  1  0.24969140  0.62551963  0.48417740  1
  Li  Li64  1  0.24902791  0.87518955  0.51584178  1
  Li  Li65  1  0.74912978  0.37518631  0.51583851  1
  Li  Li66  1  0.24968124  0.12564808  0.54708160  1
  Li  Li67  1  0.74988109  0.62546817  0.54711062  1
  Li  Li68  1  0.24881713  0.37547228  0.51582306  1
  Li  Li69  1  0.74918757  0.87519695  0.51583597  1
  Li  Li70  1  0.24966618  0.62554110  0.54711234  1
  Li  Li71  1  0.74990443  0.12545935  0.54710751  1
  Li  Li72  1  0.25020672  0.37512002  0.57820901  1
  Li  Li73  1  0.74959238  0.87529924  0.57820751  1
  Li  Li74  1  0.25012742  0.62510269  0.60925358  1
  Li  Li75  1  0.75022148  0.12508977  0.60925212  1
  Li  Li76  1  0.25014831  0.87515982  0.57820855  1
  Li  Li77  1  0.74982669  0.37514347  0.57820748  1
  Li  Li78  1  0.25009919  0.12507140  0.60925519  1
  Li  Li79  1  0.75027329  0.62507396  0.60924871  1
  Li  Li80  1  0.24870009  0.87506038  0.64050033  1
  Li  Li81  1  0.74765644  0.37503603  0.64043818  1
  Li  Li82  1  0.25606751  0.12505954  0.67189242  1
  Li  Li83  1  0.75734205  0.62498698  0.67185823  1
  Li  Li84  1  0.24769331  0.37501969  0.64047501  1
  Li  Li85  1  0.74793277  0.87506500  0.64043678  1
  Li  Li86  1  0.25752745  0.62499220  0.67187765  1
  Li  Li87  1  0.75599568  0.12506605  0.67187839  1
  Li  Li88  1  0.25327820  0.37499714  0.70327949  1
  Li  Li89  1  0.75291834  0.87494440  0.70324678  1
  Li  Li90  1  0.25136402  0.62508045  0.73441573  1
  Li  Li91  1  0.75162452  0.12496262  0.73450018  1
  Li  Li92  1  0.25317905  0.87504184  0.70327473  1
  Li  Li93  1  0.75318376  0.37508413  0.70329677  1
  Li  Li94  1  0.25118889  0.12495523  0.73448020  1
  Li  Li95  1  0.75151905  0.62508173  0.73460448  1
  Li  Li96  1  0.25147868  0.87496672  0.76557685  1
  Li  Li97  1  0.75076608  0.37483162  0.76565927  1
  Li  Li98  1  0.24847739  0.12505821  0.79676320  1
  Li  Li99  1  0.75279932  0.62504236  0.79677711  1
  Li  Li100  1  0.25145143  0.37507236  0.76552044  1
  Li  Li101  1  0.75073120  0.87522084  0.76565486  1
  Li  Li102  1  0.25262788  0.62498002  0.79677880  1
  Li  Li103  1  0.74968522  0.12492828  0.79683661  1
  Li  Li104  1  0.25563915  0.37502514  0.82813847  1
  Li  Li105  1  0.74528194  0.87502218  0.82817014  1
  Li  Li106  1  0.25025366  0.62500129  0.85956347  1
  Li  Li107  1  0.75274468  0.12501244  0.85964284  1
  Li  Li108  1  0.24515795  0.87500599  0.82814280  1
  Li  Li109  1  0.75566486  0.37500143  0.82813812  1
  Li  Li110  1  0.25274057  0.12502644  0.85953239  1
  Li  Li111  1  0.75024823  0.62498891  0.85956475  1
  Li  Li112  1  0.25018566  0.87500974  0.89075187  1
  Li  Li113  1  0.75016296  0.37503731  0.89075988  1
  Li  Li114  1  0.24992665  0.12488935  0.92179989  1
  Li  Li115  1  0.75028383  0.62496911  0.92178993  1
  Li  Li116  1  0.25026682  0.37497510  0.89075312  1
  Li  Li117  1  0.75005929  0.87493941  0.89076001  1
  Li  Li118  1  0.24991519  0.62497864  0.92178828  1
  Li  Li119  1  0.75029686  0.12489332  0.92179920  1
  Li  Li120  1  0.25007452  0.37489377  0.95286202  1
  Li  Li121  1  0.74963902  0.87433139  0.95292417  1
  Li  Li122  1  0.24952055  0.62402847  0.98415693  1
  Li  Li123  1  0.74885302  0.12514997  0.98410249  1
  Li  Li124  1  0.24983798  0.87446712  0.95291972  1
  Li  Li125  1  0.74997300  0.37491157  0.95285908  1
  Li  Li126  1  0.24907189  0.12515863  0.98413209  1
  Li  Li127  1  0.74943924  0.62368822  0.98418699  1
  O  O128  1  0.49944623  0.37498794  0.04701028  1
  O  O129  1  0.99875437  0.62478232  0.01560057  1
  O  O130  1  0.99870957  0.12473612  0.01559801  1
  O  O131  1  0.49895384  0.87497214  0.04695325  1
  O  O132  1  0.49981921  0.87501054  0.10931736  1
  O  O133  1  0.99980455  0.12485397  0.07816631  1
  O  O134  1  0.99981126  0.62518249  0.07816669  1
  O  O135  1  0.49982095  0.37499743  0.10931750  1
  O  O136  1  0.49941561  0.37497441  0.17199757  1
  O  O137  1  0.99953220  0.62492579  0.14062954  1
  O  O138  1  0.99955032  0.12498378  0.14062698  1
  O  O139  1  0.49942854  0.87497058  0.17199604  1
  O  O140  1  0.49898667  0.87487604  0.23443606  1
  O  O141  1  0.99889327  0.12498232  0.20332534  1
  O  O142  1  0.99888989  0.62494124  0.20332615  1
  O  O143  1  0.49898427  0.37488306  0.23443578  1
  O  O144  1  0.49867657  0.37480223  0.29668073  1
  O  O145  1  0.99894495  0.62486864  0.26557357  1
  O  O146  1  0.99894522  0.12487075  0.26557357  1
  O  O147  1  0.49868662  0.87481163  0.29668042  1
  O  O148  1  0.49944143  0.87485499  0.35937145  1
  O  O149  1  0.99916821  0.12474529  0.32799832  1
  O  O150  1  0.99916082  0.62474416  0.32799801  1
  O  O151  1  0.49944483  0.37485480  0.35937308  1
  O  O152  1  0.49993745  0.37519880  0.42181766  1
  O  O153  1  0.99979570  0.62503507  0.39068070  1
  O  O154  1  0.99979895  0.12503536  0.39068124  1
  O  O155  1  0.49992420  0.87520438  0.42181789  1
  O  O156  1  0.49962972  0.87548120  0.48431353  1
  O  O157  1  0.99969703  0.12527369  0.45295384  1
  O  O158  1  0.99979807  0.62529448  0.45295475  1
  O  O159  1  0.49960528  0.37552194  0.48431131  1
  O  O160  1  0.49966696  0.87541192  0.54706466  1
  O  O161  1  0.99958761  0.62549514  0.51571346  1
  O  O162  1  0.99957247  0.12549638  0.51570552  1
  O  O163  1  0.49968131  0.37542058  0.54706338  1
  O  O164  1  0.49996162  0.37512096  0.60930558  1
  O  O165  1  0.99990367  0.12536153  0.57818155  1
  O  O166  1  0.99990421  0.62536054  0.57818514  1
  O  O167  1  0.50003706  0.87515617  0.60930625  1
  O  O168  1  0.50306256  0.87507646  0.67186575  1
  O  O169  1  0.00118074  0.62512280  0.64050678  1
  O  O170  1  0.00101406  0.12510868  0.64051591  1
  O  O171  1  0.50302479  0.37504114  0.67187056  1
  O  O172  1  0.50216197  0.37500924  0.73445150  1
  O  O173  1  0.00318587  0.12501304  0.70323344  1
  O  O174  1  0.00332857  0.62503648  0.70323208  1
  O  O175  1  0.50216276  0.87503535  0.73445228  1
  O  O176  1  0.50027508  0.87505123  0.79684737  1
  O  O177  1  0.00180259  0.62503491  0.76563762  1
  O  O178  1  0.00125159  0.12500606  0.76563912  1
  O  O179  1  0.50184970  0.37499984  0.79682979  1
  O  O180  1  0.50159887  0.37501341  0.85952182  1
  O  O181  1  0.00074510  0.12504295  0.82817681  1
  O  O182  1  0.00082679  0.62499897  0.82817132  1
  O  O183  1  0.50010826  0.87503172  0.85951534  1
  O  O184  1  0.50018362  0.87476342  0.92182358  1
  O  O185  1  0.00033701  0.62499762  0.89070881  1
  O  O186  1  0.00075043  0.12498649  0.89071275  1
  O  O187  1  0.50019830  0.37490619  0.92182193  1
  O  O188  1  0.49947472  0.37457790  0.98426745  1
  O  O189  1  0.99968632  0.12480558  0.95292587  1
  O  O190  1  0.99977660  0.62456399  0.95293458  1
  O  O191  1  0.49871977  0.87447359  0.98419535  1
