# generated using pymatgen
data_Li2O
_symmetry_space_group_name_H-M   'P 1'
_cell_length_a   6.53530700
_cell_length_b   6.53530735
_cell_length_c   53.68574794
_cell_angle_alpha   90.00000000
_cell_angle_beta   90.00000000
_cell_angle_gamma   59.99999671
_symmetry_Int_Tables_number   1
_chemical_formula_structural   Li2O
_chemical_formula_sum   'Li160 O80'
_cell_volume   1985.73657880
_cell_formula_units_Z   80
loop_
 _symmetry_equiv_pos_site_id
 _symmetry_equiv_pos_as_xyz
  1  'x, y, z'
loop_
 _atom_site_type_symbol
 _atom_site_label
 _atom_site_symmetry_multiplicity
 _atom_site_fract_x
 _atom_site_fract_y
 _atom_site_fract_z
 _atom_site_occupancy
  Li  Li0  1  0.00000072  0.99999804  0.03847942  1
  Li  Li1  1  0.66666864  0.66666525  0.01314191  1
  Li  Li2  1  0.16666865  0.16666525  0.01314191  1
  Li  Li3  1  0.50000072  0.49999804  0.03847942  1
  Li  Li4  1  0.50000072  0.99999804  0.03847942  1
  Li  Li5  1  0.16666865  0.66666525  0.01314191  1
  Li  Li6  1  0.66666864  0.16666525  0.01314191  1
  Li  Li7  1  0.00000072  0.49999804  0.03847942  1
  Li  Li8  1  0.66666687  0.66666427  0.08788316  1
  Li  Li9  1  0.33333476  0.33333185  0.06320218  1
  Li  Li10  1  0.83333476  0.83333185  0.06320218  1
  Li  Li11  1  0.16666686  0.16666427  0.08788316  1
  Li  Li12  1  0.16666687  0.66666427  0.08788316  1
  Li  Li13  1  0.83333476  0.33333185  0.06320218  1
  Li  Li14  1  0.33333476  0.83333185  0.06320218  1
  Li  Li15  1  0.66666687  0.16666427  0.08788316  1
  Li  Li16  1  0.33332400  0.33332125  0.13780499  1
  Li  Li17  1  0.99999947  0.99999676  0.11311300  1
  Li  Li18  1  0.49999947  0.49999677  0.11311300  1
  Li  Li19  1  0.83332400  0.83332125  0.13780499  1
  Li  Li20  1  0.83332400  0.33332125  0.13780499  1
  Li  Li21  1  0.49999947  0.99999676  0.11311300  1
  Li  Li22  1  0.99999947  0.49999676  0.11311300  1
  Li  Li23  1  0.33332400  0.83332125  0.13780499  1
  Li  Li24  1  0.99990428  0.99990122  0.18772753  1
  Li  Li25  1  0.66663698  0.66663401  0.16304361  1
  Li  Li26  1  0.16663698  0.16663401  0.16304361  1
  Li  Li27  1  0.49990428  0.49990122  0.18772753  1
  Li  Li28  1  0.49990428  0.99990123  0.18772753  1
  Li  Li29  1  0.16663698  0.66663402  0.16304361  1
  Li  Li30  1  0.66663698  0.16663402  0.16304361  1
  Li  Li31  1  0.99990428  0.49990123  0.18772753  1
  Li  Li32  1  0.66633512  0.66632028  0.23746677  1
  Li  Li33  1  0.33279088  0.33278727  0.21265835  1
  Li  Li34  1  0.83279088  0.83278727  0.21265835  1
  Li  Li35  1  0.16633511  0.16632028  0.23746677  1
  Li  Li36  1  0.16633511  0.66632028  0.23746677  1
  Li  Li37  1  0.83279088  0.33278727  0.21265835  1
  Li  Li38  1  0.33279088  0.83278726  0.21265835  1
  Li  Li39  1  0.66633512  0.16632028  0.23746677  1
  Li  Li40  1  0.33283818  0.33255445  0.28735669  1
  Li  Li41  1  0.99968849  0.99962989  0.26254743  1
  Li  Li42  1  0.49968849  0.49962989  0.26254743  1
  Li  Li43  1  0.83283819  0.83255445  0.28735669  1
  Li  Li44  1  0.83283819  0.33255445  0.28735669  1
  Li  Li45  1  0.49968849  0.99962989  0.26254743  1
  Li  Li46  1  0.99968849  0.49962988  0.26254743  1
  Li  Li47  1  0.33283818  0.83255445  0.28735669  1
  Li  Li48  1  0.99917387  0.99915896  0.33706173  1
  Li  Li49  1  0.66630909  0.66626186  0.31230365  1
  Li  Li50  1  0.16630909  0.16626186  0.31230365  1
  Li  Li51  1  0.49917387  0.49915896  0.33706173  1
  Li  Li52  1  0.49917387  0.99915896  0.33706173  1
  Li  Li53  1  0.16630909  0.66626186  0.31230365  1
  Li  Li54  1  0.66630909  0.16626186  0.31230365  1
  Li  Li55  1  0.99917387  0.49915896  0.33706173  1
  Li  Li56  1  0.66661498  0.66661120  0.38692820  1
  Li  Li57  1  0.33319887  0.33318964  0.36223524  1
  Li  Li58  1  0.83319888  0.83318964  0.36223524  1
  Li  Li59  1  0.16661498  0.16661121  0.38692820  1
  Li  Li60  1  0.16661498  0.66661121  0.38692820  1
  Li  Li61  1  0.83319888  0.33318964  0.36223524  1
  Li  Li62  1  0.33319887  0.83318964  0.36223524  1
  Li  Li63  1  0.66661498  0.16661121  0.38692820  1
  Li  Li64  1  0.33332718  0.33332350  0.43682253  1
  Li  Li65  1  0.99998053  0.99997712  0.41216019  1
  Li  Li66  1  0.49998053  0.49997712  0.41216019  1
  Li  Li67  1  0.83332717  0.83332350  0.43682253  1
  Li  Li68  1  0.83332717  0.33332350  0.43682253  1
  Li  Li69  1  0.49998053  0.99997712  0.41216019  1
  Li  Li70  1  0.99998053  0.49997712  0.41216019  1
  Li  Li71  1  0.33332718  0.83332350  0.43682253  1
  Li  Li72  1  0.99999939  0.99999783  0.48558946  1
  Li  Li73  1  0.66666522  0.66666243  0.46171160  1
  Li  Li74  1  0.16666522  0.16666243  0.46171161  1
  Li  Li75  1  0.49999939  0.49999783  0.48558946  1
  Li  Li76  1  0.49999939  0.99999783  0.48558946  1
  Li  Li77  1  0.16666522  0.66666243  0.46171160  1
  Li  Li78  1  0.66666522  0.16666243  0.46171160  1
  Li  Li79  1  0.99999939  0.49999783  0.48558946  1
  Li  Li80  1  0.50000146  0.99999880  0.53847939  1
  Li  Li81  1  0.83333429  0.33333089  0.51314198  1
  Li  Li82  1  0.33333429  0.83333089  0.51314198  1
  Li  Li83  1  0.00000145  0.49999880  0.53847939  1
  Li  Li84  1  0.00000145  0.99999880  0.53847939  1
  Li  Li85  1  0.33333428  0.33333089  0.51314198  1
  Li  Li86  1  0.83333429  0.83333089  0.51314198  1
  Li  Li87  1  0.50000146  0.49999879  0.53847939  1
  Li  Li88  1  0.83333469  0.33333293  0.58788309  1
  Li  Li89  1  0.16666756  0.66666481  0.56320222  1
  Li  Li90  1  0.66666757  0.16666479  0.56320222  1
  Li  Li91  1  0.33333467  0.83333295  0.58788309  1
  Li  Li92  1  0.33333468  0.33333294  0.58788309  1
  Li  Li93  1  0.66666757  0.66666480  0.56320222  1
  Li  Li94  1  0.16666756  0.16666479  0.56320222  1
  Li  Li95  1  0.83333469  0.83333294  0.58788309  1
  Li  Li96  1  0.16667043  0.66668172  0.63780496  1
  Li  Li97  1  0.50000103  0.00000111  0.61311302  1
  Li  Li98  1  0.00000103  0.50000112  0.61311302  1
  Li  Li99  1  0.66667042  0.16668172  0.63780496  1
  Li  Li100  1  0.66667042  0.66668172  0.63780496  1
  Li  Li101  1  0.00000103  0.00000111  0.61311302  1
  Li  Li102  1  0.50000103  0.50000112  0.61311302  1
  Li  Li103  1  0.16667043  0.16668172  0.63780495  1
  Li  Li104  1  0.50004171  0.00014830  0.68772779  1
  Li  Li105  1  0.83334220  0.33338356  0.66304368  1
  Li  Li106  1  0.33334220  0.83338356  0.66304368  1
  Li  Li107  1  0.00004170  0.50014831  0.68772779  1
  Li  Li108  1  0.00004171  0.00014830  0.68772779  1
  Li  Li109  1  0.33334221  0.33338356  0.66304368  1
  Li  Li110  1  0.83334220  0.83338356  0.66304368  1
  Li  Li111  1  0.50004171  0.50014830  0.68772779  1
  Li  Li112  1  0.83361020  0.33372789  0.73746796  1
  Li  Li113  1  0.16693896  0.66754621  0.71266610  1
  Li  Li114  1  0.66693895  0.16754621  0.71266610  1
  Li  Li115  1  0.33361021  0.83372788  0.73746796  1
  Li  Li116  1  0.33361021  0.33372789  0.73746796  1
  Li  Li117  1  0.66693896  0.66754620  0.71266610  1
  Li  Li118  1  0.16693895  0.16754621  0.71266610  1
  Li  Li119  1  0.83361020  0.83372789  0.73746796  1
  Li  Li120  1  0.16754212  0.66707090  0.78735307  1
  Li  Li121  1  0.50032668  0.00035202  0.76254805  1
  Li  Li122  1  0.00032668  0.50035202  0.76254805  1
  Li  Li123  1  0.66754212  0.16707090  0.78735307  1
  Li  Li124  1  0.66754212  0.66707090  0.78735307  1
  Li  Li125  1  0.00032668  0.00035201  0.76254805  1
  Li  Li126  1  0.50032668  0.50035201  0.76254805  1
  Li  Li127  1  0.16754212  0.16707090  0.78735307  1
  Li  Li128  1  0.50083341  0.00083211  0.83706203  1
  Li  Li129  1  0.83371812  0.33370831  0.81230390  1
  Li  Li130  1  0.33371813  0.83370830  0.81230390  1
  Li  Li131  1  0.00083340  0.50083212  0.83706203  1
  Li  Li132  1  0.00083341  0.00083212  0.83706203  1
  Li  Li133  1  0.33371812  0.33370830  0.81230390  1
  Li  Li134  1  0.83371812  0.83370829  0.81230390  1
  Li  Li135  1  0.50083341  0.50083211  0.83706204  1
  Li  Li136  1  0.83338780  0.33338473  0.88692818  1
  Li  Li137  1  0.16680761  0.66680227  0.86223531  1
  Li  Li138  1  0.66680762  0.16680226  0.86223531  1
  Li  Li139  1  0.33338779  0.83338474  0.88692818  1
  Li  Li140  1  0.33338779  0.33338474  0.88692818  1
  Li  Li141  1  0.66680762  0.66680227  0.86223531  1
  Li  Li142  1  0.16680761  0.16680227  0.86223532  1
  Li  Li143  1  0.83338780  0.83338473  0.88692818  1
  Li  Li144  1  0.16667597  0.66667230  0.93682253  1
  Li  Li145  1  0.50002220  0.00001897  0.91216017  1
  Li  Li146  1  0.00002221  0.50001897  0.91216017  1
  Li  Li147  1  0.66667596  0.16667230  0.93682253  1
  Li  Li148  1  0.66667597  0.66667230  0.93682253  1
  Li  Li149  1  0.00002221  0.00001897  0.91216017  1
  Li  Li150  1  0.50002221  0.50001897  0.91216017  1
  Li  Li151  1  0.16667597  0.16667230  0.93682253  1
  Li  Li152  1  0.50000143  0.99999993  0.98558943  1
  Li  Li153  1  0.83333689  0.33333415  0.96171158  1
  Li  Li154  1  0.33333689  0.83333415  0.96171158  1
  Li  Li155  1  0.00000143  0.49999993  0.98558943  1
  Li  Li156  1  0.00000143  0.99999994  0.98558943  1
  Li  Li157  1  0.33333689  0.33333415  0.96171159  1
  Li  Li158  1  0.83333689  0.83333415  0.96171159  1
  Li  Li159  1  0.50000143  0.49999994  0.98558943  1
  O  O160  1  0.83334471  0.33332248  0.02581325  1
  O  O161  1  0.83334471  0.83332248  0.02581325  1
  O  O162  1  0.33334471  0.83332248  0.02581325  1
  O  O163  1  0.33334471  0.33332248  0.02581325  1
  O  O164  1  0.50000862  0.99999048  0.07571439  1
  O  O165  1  0.50000862  0.49999048  0.07571439  1
  O  O166  1  0.00000862  0.49999048  0.07571439  1
  O  O167  1  0.00000862  0.99999048  0.07571439  1
  O  O168  1  0.16666601  0.66664780  0.12553802  1
  O  O169  1  0.16666601  0.16664780  0.12553802  1
  O  O170  1  0.66666601  0.16664780  0.12553802  1
  O  O171  1  0.66666601  0.66664780  0.12553802  1
  O  O172  1  0.83320954  0.33318931  0.17538975  1
  O  O173  1  0.83320954  0.83318931  0.17538975  1
  O  O174  1  0.33320954  0.83318931  0.17538975  1
  O  O175  1  0.33320954  0.33318931  0.17538975  1
  O  O176  1  0.49960728  0.99958328  0.22514698  1
  O  O177  1  0.49960728  0.49958329  0.22514698  1
  O  O178  1  0.99960728  0.49958328  0.22514698  1
  O  O179  1  0.99960728  0.99958328  0.22514698  1
  O  O180  1  0.16619653  0.66602432  0.27500377  1
  O  O181  1  0.16619653  0.16602432  0.27500377  1
  O  O182  1  0.66619653  0.16602432  0.27500377  1
  O  O183  1  0.66619653  0.66602433  0.27500377  1
  O  O184  1  0.83275240  0.33273699  0.32481131  1
  O  O185  1  0.83275240  0.83273699  0.32481131  1
  O  O186  1  0.33275240  0.83273700  0.32481131  1
  O  O187  1  0.33275239  0.33273700  0.32481131  1
  O  O188  1  0.49980727  0.99978404  0.37469368  1
  O  O189  1  0.49980727  0.49978404  0.37469368  1
  O  O190  1  0.99980727  0.49978404  0.37469368  1
  O  O191  1  0.99980727  0.99978404  0.37469368  1
  O  O192  1  0.16664636  0.66662372  0.42451325  1
  O  O193  1  0.16664636  0.16662372  0.42451325  1
  O  O194  1  0.66664636  0.16662372  0.42451325  1
  O  O195  1  0.66664635  0.66662372  0.42451325  1
  O  O196  1  0.83333891  0.33332131  0.47412866  1
  O  O197  1  0.83333891  0.83332132  0.47412866  1
  O  O198  1  0.33333891  0.83332131  0.47412866  1
  O  O199  1  0.33333892  0.33332131  0.47412866  1
  O  O200  1  0.66667820  0.66665610  0.52581325  1
  O  O201  1  0.66667820  0.16665610  0.52581325  1
  O  O202  1  0.16667820  0.16665610  0.52581326  1
  O  O203  1  0.16667820  0.66665610  0.52581326  1
  O  O204  1  0.00000924  0.99999194  0.57571434  1
  O  O205  1  0.00000924  0.49999194  0.57571435  1
  O  O206  1  0.50000924  0.49999194  0.57571434  1
  O  O207  1  0.50000924  0.99999194  0.57571435  1
  O  O208  1  0.33334447  0.33333993  0.62553817  1
  O  O209  1  0.33334447  0.83333993  0.62553817  1
  O  O210  1  0.83334446  0.83333993  0.62553817  1
  O  O211  1  0.83334446  0.33333994  0.62553817  1
  O  O212  1  0.66671390  0.66687751  0.67539179  1
  O  O213  1  0.66671390  0.16687752  0.67539179  1
  O  O214  1  0.16671391  0.16687751  0.67539179  1
  O  O215  1  0.16671390  0.66687751  0.67539179  1
  O  O216  1  0.00023316  0.00056559  0.72515605  1
  O  O217  1  0.00023316  0.50056558  0.72515605  1
  O  O218  1  0.50023315  0.50056557  0.72515605  1
  O  O219  1  0.50023316  0.00056557  0.72515605  1
  O  O220  1  0.33388823  0.33388627  0.77500431  1
  O  O221  1  0.33388823  0.83388627  0.77500431  1
  O  O222  1  0.83388824  0.83388627  0.77500431  1
  O  O223  1  0.83388824  0.33388626  0.77500431  1
  O  O224  1  0.66723345  0.66727044  0.82481133  1
  O  O225  1  0.66723345  0.16727043  0.82481133  1
  O  O226  1  0.16723345  0.16727044  0.82481133  1
  O  O227  1  0.16723344  0.66727044  0.82481133  1
  O  O228  1  0.00021426  0.00019428  0.87469377  1
  O  O229  1  0.00021426  0.50019427  0.87469377  1
  O  O230  1  0.50021426  0.50019428  0.87469377  1
  O  O231  1  0.50021425  0.00019428  0.87469377  1
  O  O232  1  0.33337667  0.33335410  0.92451315  1
  O  O233  1  0.33337667  0.83335410  0.92451315  1
  O  O234  1  0.83337667  0.83335410  0.92451315  1
  O  O235  1  0.83337667  0.33335410  0.92451315  1
  O  O236  1  0.66667853  0.66666111  0.97412866  1
  O  O237  1  0.66667853  0.16666112  0.97412866  1
  O  O238  1  0.16667853  0.16666112  0.97412866  1
  O  O239  1  0.16667853  0.66666111  0.97412866  1
