# generated using pymatgen
data_Li2O
_symmetry_space_group_name_H-M   'P 1'
_cell_length_a   4.62116000
_cell_length_b   10.33322800
_cell_length_c   56.51065533
_cell_angle_alpha   90.00000000
_cell_angle_beta   90.00000000
_cell_angle_gamma   90.00000000
_symmetry_Int_Tables_number   1
_chemical_formula_structural   Li2O
_chemical_formula_sum   'Li216 O108'
_cell_volume   2698.46855281
_cell_formula_units_Z   108
loop_
 _symmetry_equiv_pos_site_id
 _symmetry_equiv_pos_as_xyz
  1  'x, y, z'
loop_
 _atom_site_type_symbol
 _atom_site_label
 _atom_site_symmetry_multiplicity
 _atom_site_fract_x
 _atom_site_fract_y
 _atom_site_fract_z
 _atom_site_occupancy
  Li  Li0  1  0.84841485  0.83636474  0.01653097  1
  Li  Li1  1  0.29209693  0.12664487  0.01999889  1
  Li  Li2  1  0.20374771  0.52926149  0.05796239  1
  Li  Li3  1  0.65284918  0.33616489  0.01653644  1
  Li  Li4  1  0.29641688  0.02931421  0.05797577  1
  Li  Li5  1  0.20782741  0.62669524  0.01998620  1
  Li  Li6  1  0.84543637  0.14543641  0.03326093  1
  Li  Li7  1  0.68873492  0.46838911  0.05761554  1
  Li  Li8  1  0.19143611  0.40829114  0.00252940  1
  Li  Li9  1  0.27162364  0.82540357  0.04129008  1
  Li  Li10  1  0.81155893  0.96839097  0.05763019  1
  Li  Li11  1  0.65334523  0.64654026  0.03347600  1
  Li  Li12  1  0.22855569  0.32530192  0.04128724  1
  Li  Li13  1  0.30877153  0.90831671  0.00252369  1
  Li  Li14  1  0.74659283  0.21914120  0.07382504  1
  Li  Li15  1  0.74869333  0.62047853  0.11172406  1
  Li  Li16  1  0.24630879  0.92066691  0.09432101  1
  Li  Li17  1  0.25016157  0.31895702  0.13069420  1
  Li  Li18  1  0.75456401  0.12132339  0.11180160  1
  Li  Li19  1  0.75505989  0.71939113  0.07390056  1
  Li  Li20  1  0.25394503  0.81956113  0.13086489  1
  Li  Li21  1  0.25480810  0.42123631  0.09432580  1
  Li  Li22  1  0.74370422  0.91701101  0.09541347  1
  Li  Li23  1  0.75005416  0.31778170  0.13110402  1
  Li  Li24  1  0.24544322  0.22247731  0.07689112  1
  Li  Li25  1  0.24767043  0.61935872  0.11278100  1
  Li  Li26  1  0.75498565  0.81683256  0.13117210  1
  Li  Li27  1  0.75720140  0.41673342  0.09534203  1
  Li  Li28  1  0.25607281  0.11778127  0.11265199  1
  Li  Li29  1  0.25575685  0.72204213  0.07683287  1
  Li  Li30  1  0.75088430  0.01846875  0.14881946  1
  Li  Li31  1  0.75012467  0.41847753  0.18571436  1
  Li  Li32  1  0.24999681  0.71806197  0.16740905  1
  Li  Li33  1  0.24997360  0.11877185  0.20421413  1
  Li  Li34  1  0.75009938  0.91851944  0.18571395  1
  Li  Li35  1  0.75059973  0.51866330  0.14888779  1
  Li  Li36  1  0.25038811  0.61873596  0.20422233  1
  Li  Li37  1  0.25031033  0.21832015  0.16740416  1
  Li  Li38  1  0.75017672  0.71782401  0.16749653  1
  Li  Li39  1  0.75014656  0.11869428  0.20422122  1
  Li  Li40  1  0.25094931  0.01902954  0.14923972  1
  Li  Li41  1  0.24976541  0.41836210  0.18580727  1
  Li  Li42  1  0.75025376  0.61862566  0.20423078  1
  Li  Li43  1  0.75009428  0.21788934  0.16744037  1
  Li  Li44  1  0.25046783  0.91822061  0.18582687  1
  Li  Li45  1  0.25069442  0.51831717  0.14907659  1
  Li  Li46  1  0.74914694  0.82010825  0.22243573  1
  Li  Li47  1  0.74996609  0.22101228  0.25923650  1
  Li  Li48  1  0.25009706  0.52071933  0.24094461  1
  Li  Li49  1  0.24895122  0.92022195  0.27765813  1
  Li  Li50  1  0.75027339  0.72085573  0.25916262  1
  Li  Li51  1  0.75093165  0.32008873  0.22244240  1
  Li  Li52  1  0.25108448  0.42019505  0.27766043  1
  Li  Li53  1  0.24996267  0.02097846  0.24094056  1
  Li  Li54  1  0.75001297  0.52057196  0.24094055  1
  Li  Li55  1  0.74882597  0.92006355  0.27761064  1
  Li  Li56  1  0.24949119  0.82013176  0.22261017  1
  Li  Li57  1  0.25020476  0.22121646  0.25932612  1
  Li  Li58  1  0.75121242  0.42019025  0.27767607  1
  Li  Li59  1  0.75004840  0.02063016  0.24093683  1
  Li  Li60  1  0.24992643  0.72120552  0.25932435  1
  Li  Li61  1  0.25058865  0.32011470  0.22260676  1
  Li  Li62  1  0.74978839  0.61924140  0.29598356  1
  Li  Li63  1  0.75007327  0.01818030  0.33288104  1
  Li  Li64  1  0.24994078  0.31844634  0.31434555  1
  Li  Li65  1  0.24974663  0.71831183  0.35128399  1
  Li  Li66  1  0.74985216  0.51817905  0.33288057  1
  Li  Li67  1  0.75002571  0.11918610  0.29598110  1
  Li  Li68  1  0.25000159  0.21828667  0.35127331  1
  Li  Li69  1  0.25003888  0.81844855  0.31434440  1
  Li  Li70  1  0.75006990  0.31843763  0.31434744  1
  Li  Li71  1  0.74990391  0.71834575  0.35127140  1
  Li  Li72  1  0.25023597  0.61919941  0.29599221  1
  Li  Li73  1  0.24982784  0.01818492  0.33287845  1
  Li  Li74  1  0.74983915  0.21833019  0.35127217  1
  Li  Li75  1  0.74991727  0.81846576  0.31433934  1
  Li  Li76  1  0.25009983  0.51820736  0.33287159  1
  Li  Li77  1  0.24973007  0.11919463  0.29599833  1
  Li  Li78  1  0.74959621  0.41830534  0.36978883  1
  Li  Li79  1  0.74354811  0.81705568  0.40643796  1
  Li  Li80  1  0.24969979  0.11862124  0.38805748  1
  Li  Li81  1  0.24364012  0.51677185  0.42475724  1
  Li  Li82  1  0.74551584  0.31720489  0.40643229  1
  Li  Li83  1  0.74962893  0.91831035  0.36978942  1
  Li  Li84  1  0.25539502  0.01677148  0.42474436  1
  Li  Li85  1  0.24986850  0.61774393  0.38802767  1
  Li  Li86  1  0.75013175  0.11884645  0.38801395  1
  Li  Li87  1  0.74518984  0.51897837  0.42440460  1
  Li  Li88  1  0.24924905  0.41830443  0.36968893  1
  Li  Li89  1  0.24394268  0.81745302  0.40614783  1
  Li  Li90  1  0.75424372  0.01906046  0.42440793  1
  Li  Li91  1  0.74945769  0.61888922  0.38801241  1
  Li  Li92  1  0.24534841  0.31745542  0.40611345  1
  Li  Li93  1  0.24995331  0.91835733  0.36974303  1
  Li  Li94  1  0.75636931  0.21673112  0.44355025  1
  Li  Li95  1  0.73362110  0.60726096  0.47972391  1
  Li  Li96  1  0.25001868  0.91538539  0.46108042  1
  Li  Li97  1  0.76630620  0.10727724  0.47972131  1
  Li  Li98  1  0.74327976  0.71678817  0.44359501  1
  Li  Li99  1  0.24976904  0.41536708  0.46107828  1
  Li  Li100  1  0.75336233  0.91869716  0.46053346  1
  Li  Li101  1  0.86840520  0.31245449  0.49569184  1
  Li  Li102  1  0.25067469  0.21639395  0.44244149  1
  Li  Li103  1  0.22945474  0.62257774  0.47950095  1
  Li  Li104  1  0.63160109  0.81245991  0.49568919  1
  Li  Li105  1  0.74641493  0.41866944  0.46053357  1
  Li  Li106  1  0.27048999  0.12257096  0.47950302  1
  Li  Li107  1  0.24896707  0.71645392  0.44244007  1
  Li  Li108  1  0.65089619  0.01279393  0.51642354  1
  Li  Li109  1  0.20744000  0.72150878  0.52030312  1
  Li  Li110  1  0.29883599  0.32116442  0.55809099  1
  Li  Li111  1  0.84931927  0.51284358  0.51641562  1
  Li  Li112  1  0.20120501  0.82116377  0.55809516  1
  Li  Li113  1  0.29259533  0.22150135  0.52030180  1
  Li  Li114  1  0.65236127  0.70168548  0.53402212  1
  Li  Li115  1  0.81485143  0.38342310  0.55769263  1
  Li  Li116  1  0.31180717  0.44117563  0.50274797  1
  Li  Li117  1  0.22835363  0.02380065  0.54139373  1
  Li  Li118  1  0.68518947  0.88342854  0.55768981  1
  Li  Li119  1  0.84770927  0.20164285  0.53403403  1
  Li  Li120  1  0.27169544  0.52380343  0.54139244  1
  Li  Li121  1  0.18826084  0.94121967  0.50275530  1
  Li  Li122  1  0.75647905  0.63039973  0.57419164  1
  Li  Li123  1  0.75434808  0.22908623  0.61183785  1
  Li  Li124  1  0.25455252  0.93021225  0.59431759  1
  Li  Li125  1  0.24997890  0.53117160  0.63070737  1
  Li  Li126  1  0.74561626  0.72892401  0.61184062  1
  Li  Li127  1  0.74334318  0.13005559  0.57421756  1
  Li  Li128  1  0.25004965  0.03116989  0.63071239  1
  Li  Li129  1  0.24580425  0.42992011  0.59431566  1
  Li  Li130  1  0.75656096  0.93270778  0.59545350  1
  Li  Li131  1  0.75006063  0.53277915  0.63125926  1
  Li  Li132  1  0.25651164  0.62868113  0.57672809  1
  Li  Li133  1  0.25579422  0.23245501  0.61263715  1
  Li  Li134  1  0.74999589  0.03279822  0.63125610  1
  Li  Li135  1  0.74340894  0.43305004  0.59544288  1
  Li  Li136  1  0.24420888  0.73247999  0.61263446  1
  Li  Li137  1  0.24345578  0.12872278  0.57672421  1
  Li  Li138  1  0.74973907  0.83146168  0.64890930  1
  Li  Li139  1  0.74996204  0.43175760  0.68577178  1
  Li  Li140  1  0.25023623  0.13197746  0.66740962  1
  Li  Li141  1  0.25014075  0.73128616  0.70423496  1
  Li  Li142  1  0.75006880  0.93176765  0.68577162  1
  Li  Li143  1  0.75011443  0.33143204  0.64891512  1
  Li  Li144  1  0.25041287  0.23137135  0.70425409  1
  Li  Li145  1  0.24981800  0.63188631  0.66740970  1
  Li  Li146  1  0.75006552  0.13246803  0.66752348  1
  Li  Li147  1  0.75001895  0.73149189  0.70428188  1
  Li  Li148  1  0.24966008  0.83170205  0.64911648  1
  Li  Li149  1  0.25024084  0.43180387  0.68583979  1
  Li  Li150  1  0.75065250  0.23149898  0.70432091  1
  Li  Li151  1  0.74998833  0.63246099  0.66751750  1
  Li  Li152  1  0.24969671  0.93182414  0.68583105  1
  Li  Li153  1  0.25032865  0.33171907  0.64911617  1
  Li  Li154  1  0.74982751  0.02983132  0.72262177  1
  Li  Li155  1  0.75007471  0.62829701  0.75939193  1
  Li  Li156  1  0.25022312  0.32891437  0.74103397  1
  Li  Li157  1  0.24994449  0.92906252  0.77781249  1
  Li  Li158  1  0.75000417  0.12828831  0.75939458  1
  Li  Li159  1  0.75035318  0.52984843  0.72262110  1
  Li  Li160  1  0.25009312  0.42907115  0.77781691  1
  Li  Li161  1  0.25005411  0.82886032  0.74102052  1
  Li  Li162  1  0.75026114  0.32892724  0.74103845  1
  Li  Li163  1  0.75008923  0.92901334  0.77781854  1
  Li  Li164  1  0.25023169  0.02985761  0.72262823  1
  Li  Li165  1  0.24999542  0.62830014  0.75939602  1
  Li  Li166  1  0.74996113  0.42906371  0.77781561  1
  Li  Li167  1  0.74999502  0.82887779  0.74102716  1
  Li  Li168  1  0.25006453  0.12829902  0.75939419  1
  Li  Li169  1  0.25021226  0.52985110  0.72262939  1
  Li  Li170  1  0.75007739  0.23032692  0.79610126  1
  Li  Li171  1  0.74984041  0.83189383  0.83290085  1
  Li  Li172  1  0.25009951  0.53157196  0.81447393  1
  Li  Li173  1  0.25001405  0.13203738  0.85133031  1
  Li  Li174  1  0.75016020  0.33190160  0.83290719  1
  Li  Li175  1  0.74977456  0.72992356  0.79611864  1
  Li  Li176  1  0.24993385  0.63204782  0.85133753  1
  Li  Li177  1  0.24992135  0.03160566  0.81445851  1
  Li  Li178  1  0.74994407  0.53148429  0.81446733  1
  Li  Li179  1  0.74988415  0.13185274  0.85122924  1
  Li  Li180  1  0.24995871  0.23032832  0.79609956  1
  Li  Li181  1  0.25009169  0.83188009  0.83289208  1
  Li  Li182  1  0.75012027  0.63183100  0.85123666  1
  Li  Li183  1  0.75008256  0.03156188  0.81444986  1
  Li  Li184  1  0.24989974  0.33187710  0.83289279  1
  Li  Li185  1  0.25002306  0.73041225  0.79610442  1
  Li  Li186  1  0.75018344  0.43253916  0.86979423  1
  Li  Li187  1  0.74514441  0.03331630  0.90641314  1
  Li  Li188  1  0.24851200  0.73285221  0.88806524  1
  Li  Li189  1  0.25609045  0.33336774  0.92470190  1
  Li  Li190  1  0.75481374  0.53337040  0.90640609  1
  Li  Li191  1  0.74981403  0.93261288  0.86977723  1
  Li  Li192  1  0.24384125  0.83336492  0.92470854  1
  Li  Li193  1  0.25007857  0.23246581  0.88805006  1
  Li  Li194  1  0.74652099  0.73245386  0.88771937  1
  Li  Li195  1  0.75444125  0.33093821  0.92430854  1
  Li  Li196  1  0.25058767  0.43189306  0.86972226  1
  Li  Li197  1  0.24484039  0.03291014  0.90609805  1
  Li  Li198  1  0.74549875  0.83089407  0.92428761  1
  Li  Li199  1  0.75087259  0.23198989  0.88777607  1
  Li  Li200  1  0.25503987  0.53295986  0.90607965  1
  Li  Li201  1  0.24938433  0.93193124  0.86971550  1
  Li  Li202  1  0.74354117  0.63338699  0.94353191  1
  Li  Li203  1  0.76723841  0.24283620  0.97968064  1
  Li  Li204  1  0.24876845  0.93472544  0.96097277  1
  Li  Li205  1  0.73277128  0.74282110  0.97969428  1
  Li  Li206  1  0.75648049  0.13338528  0.94353039  1
  Li  Li207  1  0.25118755  0.43472424  0.96098004  1
  Li  Li208  1  0.74513777  0.93094450  0.96032927  1
  Li  Li209  1  0.63795722  0.53607145  0.99546787  1
  Li  Li210  1  0.24922751  0.63375324  0.94238474  1
  Li  Li211  1  0.27062300  0.22744386  0.97940850  1
  Li  Li212  1  0.86260653  0.03613325  0.99533727  1
  Li  Li213  1  0.75439313  0.43111619  0.96038706  1
  Li  Li214  1  0.22944510  0.72744189  0.97940959  1
  Li  Li215  1  0.25079207  0.13376248  0.94238698  1
  O  O216  1  0.44550778  0.48215201  0.02981530  1
  O  O217  1  0.49691825  0.86911592  0.06829236  1
  O  O218  1  0.00424714  0.36926556  0.06829224  1
  O  O219  1  0.05497058  0.98204557  0.02981574  1
  O  O220  1  0.00767494  0.24291882  0.00864587  1
  O  O221  1  0.00745177  0.68224703  0.04705034  1
  O  O222  1  0.49331482  0.18213575  0.04702140  1
  O  O223  1  0.49242832  0.74322546  0.00868923  1
  O  O224  1  0.50203857  0.26874486  0.10339815  1
  O  O225  1  0.50087590  0.66853206  0.13987837  1
  O  O226  1  0.00164478  0.16858323  0.13984563  1
  O  O227  1  0.00053517  0.76875301  0.10345131  1
  O  O228  1  0.00451668  0.06728384  0.08434936  1
  O  O229  1  0.00111831  0.46938570  0.12190875  1
  O  O230  1  0.50124495  0.96931323  0.12195475  1
  O  O231  1  0.49720952  0.56742820  0.08433987  1
  O  O232  1  0.50045696  0.06869155  0.17665177  1
  O  O233  1  0.50030955  0.46949644  0.21336760  1
  O  O234  1  0.99999092  0.96952943  0.21336831  1
  O  O235  1  0.00029640  0.56858821  0.17663809  1
  O  O236  1  0.00119759  0.86832248  0.15832949  1
  O  O237  1  0.00033400  0.26894619  0.19498907  1
  O  O238  1  0.50026296  0.76888689  0.19500016  1
  O  O239  1  0.50044090  0.36834599  0.15827466  1
  O  O240  1  0.49958971  0.87031332  0.25009643  1
  O  O241  1  0.50015859  0.26975151  0.28685179  1
  O  O242  1  0.99986895  0.76971736  0.28682999  1
  O  O243  1  0.00054745  0.37032142  0.25011412  1
  O  O244  1  0.00000716  0.67004092  0.23172434  1
  O  O245  1  0.99977919  0.07011096  0.26845904  1
  O  O246  1  0.50032950  0.57006168  0.26845866  1
  O  O247  1  0.50025218  0.17011580  0.23174188  1
  O  O248  1  0.49994415  0.66855335  0.32361751  1
  O  O249  1  0.49968088  0.06844546  0.36054017  1
  O  O250  1  0.99939261  0.56833740  0.36053635  1
  O  O251  1  0.99994288  0.16856398  0.32361846  1
  O  O252  1  0.00018954  0.46910260  0.30523764  1
  O  O253  1  0.99969908  0.86834646  0.34207958  1
  O  O254  1  0.49975291  0.36834718  0.34208089  1
  O  O255  1  0.49970665  0.96910188  0.30522892  1
  O  O256  1  0.49776889  0.46801208  0.39712788  1
  O  O257  1  0.49711302  0.86535540  0.43342595  1
  O  O258  1  0.99991200  0.36533069  0.43340405  1
  O  O259  1  0.99917685  0.96809870  0.39713089  1
  O  O260  1  0.99904881  0.26792498  0.37878450  1
  O  O261  1  0.99621416  0.66817991  0.41572229  1
  O  O262  1  0.50108192  0.16817738  0.41572020  1
  O  O263  1  0.49822324  0.76784241  0.37879015  1
  O  O264  1  0.52261744  0.27090063  0.47331547  1
  O  O265  1  0.97682457  0.77092076  0.47332267  1
  O  O266  1  0.00727927  0.06969034  0.45162636  1
  O  O267  1  0.99403303  0.47366957  0.48454389  1
  O  O268  1  0.50588546  0.97368228  0.48454725  1
  O  O269  1  0.49192556  0.56967722  0.45163691  1
  O  O270  1  0.05676108  0.36724464  0.52995719  1
  O  O271  1  0.00252343  0.98118750  0.56836222  1
  O  O272  1  0.49754966  0.48122706  0.56835941  1
  O  O273  1  0.44328486  0.86725504  0.52996050  1
  O  O274  1  0.49366629  0.60661941  0.50885530  1
  O  O275  1  0.49162064  0.16669978  0.54734189  1
  O  O276  1  0.00841412  0.66673143  0.54733887  1
  O  O277  1  0.00631073  0.10662697  0.50885386  1
  O  O278  1  0.99875298  0.58169443  0.60344149  1
  O  O279  1  0.00110918  0.18181278  0.63987563  1
  O  O280  1  0.49896664  0.68178304  0.63987455  1
  O  O281  1  0.50135312  0.08166671  0.60344164  1
  O  O282  1  0.49608136  0.78329596  0.58438902  1
  O  O283  1  0.49999511  0.38103570  0.62195276  1
  O  O284  1  0.00006581  0.88102771  0.62195534  1
  O  O285  1  0.00401032  0.28328425  0.58438708  1
  O  O286  1  0.99987269  0.78162435  0.67667666  1
  O  O287  1  0.00025941  0.38052713  0.71345605  1
  O  O288  1  0.50002945  0.88049338  0.71344400  1
  O  O289  1  0.50026553  0.28163764  0.67668166  1
  O  O290  1  0.50011947  0.98195631  0.65832491  1
  O  O291  1  0.50015925  0.58126901  0.69505445  1
  O  O292  1  0.00012075  0.08129088  0.69505839  1
  O  O293  1  0.99994385  0.48194513  0.65832496  1
  O  O294  1  0.00006830  0.97929056  0.75022076  1
  O  O295  1  0.00001532  0.57992634  0.78697640  1
  O  O296  1  0.50003443  0.07997395  0.78697051  1
  O  O297  1  0.50019514  0.47929794  0.75022431  1
  O  O298  1  0.50021031  0.17978848  0.73182951  1
  O  O299  1  0.50000283  0.77935857  0.76857717  1
  O  O300  1  0.00009465  0.27940398  0.76857936  1
  O  O301  1  0.00012113  0.67974603  0.73182035  1
  O  O302  1  0.00000473  0.18147403  0.82367940  1
  O  O303  1  0.99945158  0.78208770  0.86051765  1
  O  O304  1  0.50024086  0.28201481  0.86052403  1
  O  O305  1  0.49998192  0.68142543  0.82368116  1
  O  O306  1  0.50002582  0.38073993  0.80533746  1
  O  O307  1  0.49983299  0.98182778  0.84211195  1
  O  O308  1  0.00010688  0.48181293  0.84211463  1
  O  O309  1  0.99999996  0.88073040  0.80533839  1
  O  O310  1  0.00193629  0.38241593  0.89707385  1
  O  O311  1  0.99970757  0.98489738  0.93332153  1
  O  O312  1  0.50018893  0.48489781  0.93333463  1
  O  O313  1  0.49767281  0.88252178  0.89706938  1
  O  O314  1  0.50042200  0.58266095  0.87874796  1
  O  O315  1  0.50145669  0.18221485  0.91565792  1
  O  O316  1  0.99822899  0.68228575  0.91565855  1
  O  O317  1  0.99906725  0.08253642  0.87875217  1
  O  O318  1  0.97784130  0.57887488  0.97326245  1
  O  O319  1  0.52221771  0.07885148  0.97321690  1
  O  O320  1  0.49185151  0.78042930  0.95153056  1
  O  O321  1  0.50763569  0.37602841  0.98439164  1
  O  O322  1  0.99250867  0.87605428  0.98436654  1
  O  O323  1  0.00811129  0.28044302  0.95153809  1
