# generated using pymatgen
data_Li2O
_symmetry_space_group_name_H-M   'P 1'
_cell_length_a   6.53530700
_cell_length_b   10.33322830
_cell_length_c   56.55184448
_cell_angle_alpha   90.00000000
_cell_angle_beta   90.00000000
_cell_angle_gamma   71.56504942
_symmetry_Int_Tables_number   1
_chemical_formula_structural   Li2O
_chemical_formula_sum   'Li280 O140'
_cell_volume   3623.01425511
_cell_formula_units_Z   140
loop_
 _symmetry_equiv_pos_site_id
 _symmetry_equiv_pos_as_xyz
  1  'x, y, z'
loop_
 _atom_site_type_symbol
 _atom_site_label
 _atom_site_symmetry_multiplicity
 _atom_site_fract_x
 _atom_site_fract_y
 _atom_site_fract_z
 _atom_site_occupancy
  Li  Li0  1  0.93022878  0.08235445  0.04038450  1
  Li  Li1  1  0.54035471  0.86626457  0.02545476  1
  Li  Li2  1  0.31449014  0.31390593  0.05075295  1
  Li  Li3  1  0.92122503  0.60126774  0.03849668  1
  Li  Li4  1  0.15285414  0.13421456  0.01537767  1
  Li  Li5  1  0.31684602  0.81242349  0.05234338  1
  Li  Li6  1  0.53994917  0.35896734  0.01938535  1
  Li  Li7  1  0.43017966  0.08236501  0.04038389  1
  Li  Li8  1  0.04060863  0.86627303  0.02540595  1
  Li  Li9  1  0.81451540  0.31389543  0.05075469  1
  Li  Li10  1  0.42122523  0.60127635  0.03849883  1
  Li  Li11  1  0.65283237  0.13431635  0.01539677  1
  Li  Li12  1  0.81692848  0.81239553  0.05233621  1
  Li  Li13  1  0.03996525  0.35892646  0.01938753  1
  Li  Li14  1  0.70568122  0.53409451  0.06429731  1
  Li  Li15  1  0.48479781  0.97541092  0.09312667  1
  Li  Li16  1  0.09686116  0.75423116  0.07925211  1
  Li  Li17  1  0.87435075  0.19853837  0.10623502  1
  Li  Li18  1  0.48340819  0.47837806  0.09169972  1
  Li  Li19  1  0.70614486  0.03045245  0.06660272  1
  Li  Li20  1  0.87508471  0.69831435  0.10629563  1
  Li  Li21  1  0.09401901  0.25451356  0.07844788  1
  Li  Li22  1  0.20566900  0.53409142  0.06429614  1
  Li  Li23  1  0.98476137  0.97542004  0.09312611  1
  Li  Li24  1  0.59670737  0.75423508  0.07925203  1
  Li  Li25  1  0.37437947  0.19852618  0.10623518  1
  Li  Li26  1  0.98339918  0.47830177  0.09170806  1
  Li  Li27  1  0.20595985  0.03071693  0.06663501  1
  Li  Li28  1  0.37508331  0.69824753  0.10640299  1
  Li  Li29  1  0.59396562  0.25452550  0.07844050  1
  Li  Li30  1  0.26178451  0.42018210  0.11917309  1
  Li  Li31  1  0.04219787  0.86322848  0.14725389  1
  Li  Li32  1  0.65280171  0.64131895  0.13349902  1
  Li  Li33  1  0.42942349  0.08416491  0.16093315  1
  Li  Li34  1  0.04121914  0.36468372  0.14687129  1
  Li  Li35  1  0.26293166  0.92066665  0.12021567  1
  Li  Li36  1  0.43005073  0.58395998  0.16093811  1
  Li  Li37  1  0.65151294  0.14230389  0.13347741  1
  Li  Li38  1  0.76184005  0.42016978  0.11920974  1
  Li  Li39  1  0.54216312  0.86319097  0.14725550  1
  Li  Li40  1  0.15244089  0.64093210  0.13352546  1
  Li  Li41  1  0.92863540  0.08480194  0.16087967  1
  Li  Li42  1  0.54076834  0.36460429  0.14686970  1
  Li  Li43  1  0.76296156  0.92064198  0.12021651  1
  Li  Li44  1  0.93000122  0.58393591  0.16095126  1
  Li  Li45  1  0.15163365  0.14229727  0.13348798  1
  Li  Li46  1  0.81915913  0.30679570  0.17423788  1
  Li  Li47  1  0.59727300  0.74886674  0.20200667  1
  Li  Li48  1  0.20700875  0.52769450  0.18835049  1
  Li  Li49  1  0.98505289  0.97053885  0.21572626  1
  Li  Li50  1  0.59663996  0.24991858  0.20170519  1
  Li  Li51  1  0.82027784  0.80567449  0.17443804  1
  Li  Li52  1  0.98474418  0.47066211  0.21570013  1
  Li  Li53  1  0.20663087  0.02782532  0.18829917  1
  Li  Li54  1  0.31917395  0.30670733  0.17423846  1
  Li  Li55  1  0.09714389  0.74908812  0.20207589  1
  Li  Li56  1  0.70666450  0.52780867  0.18834627  1
  Li  Li57  1  0.48492801  0.97057283  0.21569412  1
  Li  Li58  1  0.09662568  0.24995212  0.20170781  1
  Li  Li59  1  0.31997924  0.80569229  0.17446701  1
  Li  Li60  1  0.48490741  0.47046343  0.21573513  1
  Li  Li61  1  0.70715185  0.02763328  0.18830548  1
  Li  Li62  1  0.37396079  0.19361111  0.22915971  1
  Li  Li63  1  0.15350259  0.63730077  0.25696191  1
  Li  Li64  1  0.76355420  0.41549988  0.24330554  1
  Li  Li65  1  0.54119096  0.85909767  0.27075335  1
  Li  Li66  1  0.15184167  0.13674646  0.25661766  1
  Li  Li67  1  0.37567718  0.69317501  0.22945386  1
  Li  Li68  1  0.54130727  0.35881169  0.27045186  1
  Li  Li69  1  0.76353083  0.91539910  0.24331124  1
  Li  Li70  1  0.87396046  0.19362125  0.22915973  1
  Li  Li71  1  0.65345082  0.63745191  0.25697154  1
  Li  Li72  1  0.26348974  0.41548123  0.24330373  1
  Li  Li73  1  0.04151303  0.85911711  0.27051608  1
  Li  Li74  1  0.65187882  0.13678756  0.25661942  1
  Li  Li75  1  0.87546165  0.69339051  0.22945491  1
  Li  Li76  1  0.04129586  0.35881232  0.27045188  1
  Li  Li77  1  0.26436725  0.91511321  0.24328700  1
  Li  Li78  1  0.93050158  0.08184745  0.28421075  1
  Li  Li79  1  0.70757326  0.52531267  0.31156782  1
  Li  Li80  1  0.31928032  0.30402159  0.29791129  1
  Li  Li81  1  0.09521185  0.74569026  0.32569619  1
  Li  Li82  1  0.70804616  0.02497466  0.31160697  1
  Li  Li83  1  0.93066064  0.58167998  0.28433601  1
  Li  Li84  1  0.09760035  0.24687791  0.32519366  1
  Li  Li85  1  0.31787856  0.80343072  0.29809521  1
  Li  Li86  1  0.43032739  0.08213607  0.28419670  1
  Li  Li87  1  0.20757689  0.52529810  0.31156618  1
  Li  Li88  1  0.81929855  0.30399134  0.29790908  1
  Li  Li89  1  0.59534603  0.74575929  0.32567917  1
  Li  Li90  1  0.20809452  0.02495442  0.31160572  1
  Li  Li91  1  0.43071622  0.58166384  0.28433433  1
  Li  Li92  1  0.59761176  0.24687974  0.32519381  1
  Li  Li93  1  0.81911126  0.80366858  0.29804486  1
  Li  Li94  1  0.48565181  0.96718089  0.33906761  1
  Li  Li95  1  0.26137500  0.41246167  0.36631503  1
  Li  Li96  1  0.87500993  0.18992896  0.35241497  1
  Li  Li97  1  0.65107647  0.63452360  0.38055220  1
  Li  Li98  1  0.26276729  0.91104889  0.36653760  1
  Li  Li99  1  0.48450334  0.46789844  0.33891010  1
  Li  Li100  1  0.65215212  0.13355764  0.37966955  1
  Li  Li101  1  0.87407208  0.68811641  0.35301747  1
  Li  Li102  1  0.98564730  0.96719103  0.33906866  1
  Li  Li103  1  0.76128556  0.41259311  0.36628855  1
  Li  Li104  1  0.37501356  0.18992331  0.35241300  1
  Li  Li105  1  0.15106488  0.63451729  0.38054937  1
  Li  Li106  1  0.76278190  0.91105344  0.36653748  1
  Li  Li107  1  0.98454318  0.46789572  0.33891063  1
  Li  Li108  1  0.15214630  0.13355548  0.37966934  1
  Li  Li109  1  0.37409674  0.68811823  0.35301565  1
  Li  Li110  1  0.04046922  0.85556349  0.39425830  1
  Li  Li111  1  0.81370955  0.30384032  0.42017986  1
  Li  Li112  1  0.42799844  0.07912420  0.40699914  1
  Li  Li113  1  0.20558863  0.52611222  0.43533901  1
  Li  Li114  1  0.81900883  0.79971171  0.42184419  1
  Li  Li115  1  0.03858662  0.35552253  0.39332823  1
  Li  Li116  1  0.20567424  0.02229494  0.43401446  1
  Li  Li117  1  0.43023939  0.57753687  0.40765450  1
  Li  Li118  1  0.54047330  0.85555983  0.39425883  1
  Li  Li119  1  0.31372127  0.30382675  0.42017648  1
  Li  Li120  1  0.92798880  0.07912988  0.40700046  1
  Li  Li121  1  0.70541796  0.52630247  0.43531601  1
  Li  Li122  1  0.31901627  0.79971349  0.42184437  1
  Li  Li123  1  0.53875397  0.35553890  0.39332696  1
  Li  Li124  1  0.70561612  0.02229006  0.43401744  1
  Li  Li125  1  0.93040497  0.57749150  0.40766484  1
  Li  Li126  1  0.59638492  0.74579287  0.44987494  1
  Li  Li127  1  0.36787893  0.19778295  0.47313506  1
  Li  Li128  1  0.98220277  0.97268919  0.46127443  1
  Li  Li129  1  0.36066813  0.71717363  0.47809352  1
  Li  Li130  1  0.59429133  0.24493154  0.44654820  1
  Li  Li131  1  0.75045817  0.93780712  0.48930801  1
  Li  Li132  1  0.98778776  0.45764734  0.46060012  1
  Li  Li133  1  0.09639464  0.74575960  0.44987292  1
  Li  Li134  1  0.86794343  0.19760081  0.47309984  1
  Li  Li135  1  0.48196103  0.97277435  0.46132369  1
  Li  Li136  1  0.86067054  0.71717526  0.47809349  1
  Li  Li137  1  0.09432756  0.24492993  0.44654940  1
  Li  Li138  1  0.25040729  0.93780391  0.48931082  1
  Li  Li139  1  0.48786302  0.45764555  0.46060125  1
  Li  Li140  1  0.64908143  0.14268589  0.54030945  1
  Li  Li141  1  0.03976542  0.35904095  0.52612336  1
  Li  Li142  1  0.26314463  0.91088559  0.55082482  1
  Li  Li143  1  0.65443214  0.62373645  0.53920299  1
  Li  Li144  1  0.42557570  0.08905979  0.51541242  1
  Li  Li145  1  0.26344382  0.41184856  0.55310296  1
  Li  Li146  1  0.03753150  0.86477238  0.51915605  1
  Li  Li147  1  0.14907830  0.14269279  0.54031025  1
  Li  Li148  1  0.53974868  0.35903054  0.52612497  1
  Li  Li149  1  0.76314733  0.91088223  0.55082432  1
  Li  Li150  1  0.15454444  0.62372749  0.53921369  1
  Li  Li151  1  0.92556643  0.08906861  0.51541061  1
  Li  Li152  1  0.76342544  0.41186779  0.55310143  1
  Li  Li153  1  0.53754055  0.86476443  0.51915511  1
  Li  Li154  1  0.87275768  0.69190961  0.56474933  1
  Li  Li155  1  0.09623539  0.24991887  0.59372666  1
  Li  Li156  1  0.48351011  0.47207938  0.57992031  1
  Li  Li157  1  0.70585858  0.02679362  0.60651999  1
  Li  Li158  1  0.09678640  0.74587175  0.59242408  1
  Li  Li159  1  0.87434391  0.19226083  0.56711580  1
  Li  Li160  1  0.70598157  0.52770410  0.60702851  1
  Li  Li161  1  0.48487463  0.96824262  0.57860010  1
  Li  Li162  1  0.37278430  0.69187384  0.56475188  1
  Li  Li163  1  0.59626455  0.24991271  0.59372825  1
  Li  Li164  1  0.98349044  0.47205234  0.57992462  1
  Li  Li165  1  0.20585813  0.02679726  0.60652021  1
  Li  Li166  1  0.59676859  0.74588370  0.59242186  1
  Li  Li167  1  0.37435097  0.19225153  0.56711854  1
  Li  Li168  1  0.20596922  0.52756462  0.60701631  1
  Li  Li169  1  0.98487151  0.96824630  0.57859959  1
  Li  Li170  1  0.31732525  0.80472263  0.61978477  1
  Li  Li171  1  0.53932794  0.36199810  0.64772742  1
  Li  Li172  1  0.92865810  0.58440379  0.63412297  1
  Li  Li173  1  0.15028135  0.13931797  0.66111664  1
  Li  Li174  1  0.53918382  0.86163424  0.64719582  1
  Li  Li175  1  0.31742096  0.30590913  0.62066599  1
  Li  Li176  1  0.15023218  0.63982283  0.66118084  1
  Li  Li177  1  0.92830894  0.08344142  0.63379168  1
  Li  Li178  1  0.81733019  0.80472119  0.61978510  1
  Li  Li179  1  0.03922333  0.36206830  0.64772381  1
  Li  Li180  1  0.42863083  0.58438546  0.63412134  1
  Li  Li181  1  0.65023489  0.13931472  0.66111666  1
  Li  Li182  1  0.03919507  0.86163473  0.64719535  1
  Li  Li183  1  0.81740587  0.30592521  0.62066361  1
  Li  Li184  1  0.65023755  0.63980650  0.66118014  1
  Li  Li185  1  0.42830666  0.08343794  0.63379174  1
  Li  Li186  1  0.76236791  0.91711080  0.67472100  1
  Li  Li187  1  0.98317168  0.47349410  0.70198808  1
  Li  Li188  1  0.37233775  0.69553476  0.68836371  1
  Li  Li189  1  0.59403399  0.25218408  0.71568380  1
  Li  Li190  1  0.98332375  0.97308196  0.70189860  1
  Li  Li191  1  0.76159055  0.41805176  0.67488567  1
  Li  Li192  1  0.59442885  0.75190192  0.71561402  1
  Li  Li193  1  0.37226877  0.19557063  0.68836538  1
  Li  Li194  1  0.26237596  0.91711962  0.67472536  1
  Li  Li195  1  0.48317209  0.47342006  0.70199231  1
  Li  Li196  1  0.87233067  0.69553773  0.68836358  1
  Li  Li197  1  0.09255123  0.25259966  0.71560000  1
  Li  Li198  1  0.48358361  0.97309376  0.70190412  1
  Li  Li199  1  0.26163410  0.41812975  0.67488783  1
  Li  Li200  1  0.09442649  0.75193949  0.71561275  1
  Li  Li201  1  0.87222796  0.19551339  0.68834055  1
  Li  Li202  1  0.20421549  0.03043539  0.72910470  1
  Li  Li203  1  0.42449523  0.58717464  0.75644164  1
  Li  Li204  1  0.81366211  0.80912110  0.74292345  1
  Li  Li205  1  0.03290658  0.36650433  0.77023125  1
  Li  Li206  1  0.42440754  0.08738997  0.75649349  1
  Li  Li207  1  0.20404077  0.53047202  0.72915720  1
  Li  Li208  1  0.03341078  0.86603994  0.77029127  1
  Li  Li209  1  0.81335275  0.30919560  0.74294078  1
  Li  Li210  1  0.70420452  0.03040262  0.72912390  1
  Li  Li211  1  0.92435380  0.58738404  0.75646575  1
  Li  Li212  1  0.31366979  0.80911106  0.74292501  1
  Li  Li213  1  0.53288042  0.36648232  0.77023353  1
  Li  Li214  1  0.92509029  0.08723203  0.75652032  1
  Li  Li215  1  0.70405485  0.53050725  0.72915589  1
  Li  Li216  1  0.53340129  0.86606136  0.77028928  1
  Li  Li217  1  0.31327841  0.30919869  0.74291207  1
  Li  Li218  1  0.64458110  0.14473871  0.78380319  1
  Li  Li219  1  0.86500346  0.70044492  0.81104066  1
  Li  Li220  1  0.25315259  0.92293754  0.79763343  1
  Li  Li221  1  0.47273657  0.47894988  0.82498464  1
  Li  Li222  1  0.86464107  0.20145408  0.81136197  1
  Li  Li223  1  0.64500265  0.64404491  0.78366752  1
  Li  Li224  1  0.47371912  0.97853880  0.82491354  1
  Li  Li225  1  0.25290449  0.42290401  0.79764584  1
  Li  Li226  1  0.14457432  0.14476361  0.78381458  1
  Li  Li227  1  0.36500767  0.70043572  0.81104034  1
  Li  Li228  1  0.75314866  0.92293878  0.79763002  1
  Li  Li229  1  0.97269754  0.47894862  0.82496826  1
  Li  Li230  1  0.36472445  0.20146533  0.81134021  1
  Li  Li231  1  0.14505008  0.64404016  0.78366674  1
  Li  Li232  1  0.97359349  0.97854658  0.82491166  1
  Li  Li233  1  0.75288809  0.42289126  0.79764633  1
  Li  Li234  1  0.08538720  0.25762503  0.83882490  1
  Li  Li235  1  0.30682511  0.81177454  0.86568850  1
  Li  Li236  1  0.69586628  0.03471418  0.85214910  1
  Li  Li237  1  0.91855520  0.59096293  0.87981991  1
  Li  Li238  1  0.30601417  0.31409496  0.86632453  1
  Li  Li239  1  0.08600146  0.75622083  0.83837152  1
  Li  Li240  1  0.91765000  0.09124672  0.87931836  1
  Li  Li241  1  0.69636817  0.53529344  0.85231783  1
  Li  Li242  1  0.58521013  0.25754146  0.83883883  1
  Li  Li243  1  0.80687084  0.81176474  0.86568795  1
  Li  Li244  1  0.19590612  0.03472650  0.85214319  1
  Li  Li245  1  0.41860643  0.59095260  0.87981258  1
  Li  Li246  1  0.80606381  0.31411109  0.86631310  1
  Li  Li247  1  0.58601054  0.75621989  0.83837092  1
  Li  Li248  1  0.41768682  0.09087059  0.87937169  1
  Li  Li249  1  0.19635062  0.53528284  0.85231743  1
  Li  Li250  1  0.52832378  0.37081187  0.89378689  1
  Li  Li251  1  0.75220101  0.92304346  0.91991043  1
  Li  Li252  1  0.13921989  0.14721638  0.90659446  1
  Li  Li253  1  0.36366733  0.70114127  0.93513118  1
  Li  Li254  1  0.75000339  0.42692163  0.92159171  1
  Li  Li255  1  0.52952638  0.86825849  0.89283737  1
  Li  Li256  1  0.36301609  0.20303626  0.93361534  1
  Li  Li257  1  0.14026028  0.64837444  0.90722984  1
  Li  Li258  1  0.02831928  0.37079842  0.89378664  1
  Li  Li259  1  0.25221153  0.92303671  0.91990534  1
  Li  Li260  1  0.63922321  0.14709013  0.90651826  1
  Li  Li261  1  0.86373547  0.70113590  0.93512650  1
  Li  Li262  1  0.24997856  0.42696718  0.92159207  1
  Li  Li263  1  0.02925595  0.86852250  0.89285570  1
  Li  Li264  1  0.86248616  0.20326755  0.93363204  1
  Li  Li265  1  0.64015462  0.64791663  0.90730649  1
  Li  Li266  1  0.97276010  0.48245940  0.94989701  1
  Li  Li267  1  0.19931365  0.02890368  0.97282848  1
  Li  Li268  1  0.58790383  0.25453337  0.96106489  1
  Li  Li269  1  0.21119810  0.50647126  0.97837158  1
  Li  Li270  1  0.97198880  0.98233006  0.94641324  1
  Li  Li271  1  0.82378929  0.28592993  0.98942462  1
  Li  Li272  1  0.57946517  0.76919425  0.96059499  1
  Li  Li273  1  0.47274895  0.48252691  0.94990867  1
  Li  Li274  1  0.69875029  0.02921354  0.97285615  1
  Li  Li275  1  0.08795602  0.25448409  0.96105841  1
  Li  Li276  1  0.71122729  0.50646234  0.97837283  1
  Li  Li277  1  0.47208338  0.98226466  0.94641014  1
  Li  Li278  1  0.32374838  0.28593509  0.98942342  1
  Li  Li279  1  0.07942658  0.76920942  0.96059567  1
  O  O280  1  0.62122502  0.70222749  0.04483513  1
  O  O281  1  0.85073797  0.23822435  0.02054903  1
  O  O282  1  0.50756249  0.42830185  0.05689946  1
  O  O283  1  0.73667925  0.97048775  0.03245537  1
  O  O284  1  0.00758367  0.42828169  0.05690301  1
  O  O285  1  0.23667397  0.97049432  0.03245751  1
  O  O286  1  0.12126572  0.70223007  0.04482356  1
  O  O287  1  0.35074014  0.23821777  0.02054563  1
  O  O288  1  0.17928996  0.58735817  0.09912897  1
  O  O289  1  0.40079481  0.14198788  0.07306690  1
  O  O290  1  0.06738195  0.31018234  0.11271162  1
  O  O291  1  0.29047169  0.86472682  0.08634515  1
  O  O292  1  0.56731191  0.31017724  0.11271183  1
  O  O293  1  0.79049276  0.86471680  0.08633712  1
  O  O294  1  0.67929158  0.58738993  0.09913197  1
  O  O295  1  0.90079836  0.14199436  0.07306796  1
  O  O296  1  0.73535769  0.47409409  0.15395867  1
  O  O297  1  0.95738254  0.03077137  0.12699545  1
  O  O298  1  0.62387980  0.19586947  0.16768350  1
  O  O299  1  0.84730118  0.75205382  0.14045757  1
  O  O300  1  0.12389539  0.19589344  0.16768551  1
  O  O301  1  0.34724171  0.75204025  0.14046992  1
  O  O302  1  0.23535221  0.47406318  0.15395829  1
  O  O303  1  0.45747560  0.03071553  0.12700036  1
  O  O304  1  0.29049767  0.36062579  0.20882884  1
  O  O305  1  0.51324496  0.91672828  0.18150722  1
  O  O306  1  0.17935925  0.08220109  0.22254788  1
  O  O307  1  0.40209592  0.63839996  0.19523023  1
  O  O308  1  0.67935291  0.08219905  0.22254970  1
  O  O309  1  0.90211432  0.63844684  0.19521998  1
  O  O310  1  0.79050338  0.36063574  0.20882780  1
  O  O311  1  0.01317389  0.91680112  0.18151652  1
  O  O312  1  0.84662075  0.24822984  0.26368604  1
  O  O313  1  0.06932997  0.80414623  0.23643997  1
  O  O314  1  0.73584861  0.97031934  0.27748019  1
  O  O315  1  0.95802870  0.52626025  0.25011822  1
  O  O316  1  0.23578480  0.97026200  0.27748614  1
  O  O317  1  0.45804590  0.52621035  0.25012187  1
  O  O318  1  0.34660816  0.24824663  0.26368697  1
  O  O319  1  0.56930121  0.80414164  0.23645018  1
  O  O320  1  0.40269771  0.13583543  0.31847436  1
  O  O321  1  0.62440379  0.69216419  0.29126953  1
  O  O322  1  0.29054415  0.85659675  0.33237611  1
  O  O323  1  0.51338114  0.41425335  0.30483100  1
  O  O324  1  0.79063795  0.85665272  0.33237266  1
  O  O325  1  0.01339739  0.41425136  0.30483040  1
  O  O326  1  0.90271803  0.13582817  0.31847834  1
  O  O327  1  0.12443243  0.69212535  0.29125167  1
  O  O328  1  0.95721657  0.02230058  0.37312959  1
  O  O329  1  0.17891661  0.57884069  0.34607588  1
  O  O330  1  0.84615540  0.74402754  0.38748262  1
  O  O331  1  0.06789965  0.30155552  0.35942496  1
  O  O332  1  0.34614331  0.74403928  0.38748155  1
  O  O333  1  0.56790885  0.30154646  0.35942351  1
  O  O334  1  0.45722661  0.02228653  0.37312677  1
  O  O335  1  0.67892009  0.57886223  0.34607649  1
  O  O336  1  0.51256313  0.91049068  0.42780829  1
  O  O337  1  0.73312802  0.46939407  0.40075529  1
  O  O338  1  0.40173766  0.63354413  0.44372754  1
  O  O339  1  0.62178538  0.19053109  0.41327300  1
  O  O340  1  0.90174397  0.63353366  0.44372880  1
  O  O341  1  0.12179394  0.19052822  0.41327391  1
  O  O342  1  0.01257678  0.91048322  0.42780242  1
  O  O343  1  0.23316171  0.46936736  0.40076181  1
  O  O344  1  0.06302091  0.81229730  0.48303254  1
  O  O345  1  0.28753659  0.35859877  0.45405232  1
  O  O346  1  0.17325655  0.08814111  0.46673403  1
  O  O347  1  0.67323437  0.08814566  0.46673370  1
  O  O348  1  0.56301452  0.81229131  0.48303893  1
  O  O349  1  0.78754135  0.35857483  0.45403961  1
  O  O350  1  0.95633284  0.52284362  0.54550750  1
  O  O351  1  0.72694817  0.98538318  0.52051924  1
  O  O352  1  0.07008551  0.79663660  0.55732002  1
  O  O353  1  0.84236737  0.25381890  0.53276902  1
  O  O354  1  0.57008880  0.79663467  0.55732048  1
  O  O355  1  0.34237672  0.25382833  0.53276794  1
  O  O356  1  0.45635314  0.52283884  0.54550517  1
  O  O357  1  0.22693637  0.98538742  0.52052004  1
  O  O358  1  0.40065211  0.63793215  0.59973790  1
  O  O359  1  0.17834417  0.08245838  0.57333620  1
  O  O360  1  0.51209343  0.91466030  0.61312810  1
  O  O361  1  0.28960599  0.36047226  0.58691747  1
  O  O362  1  0.01210638  0.91466191  0.61312846  1
  O  O363  1  0.78959864  0.36048191  0.58691734  1
  O  O364  1  0.90067595  0.63793311  0.59974034  1
  O  O365  1  0.67833037  0.08247408  0.57333677  1
  O  O366  1  0.84481023  0.75048304  0.65432639  1
  O  O367  1  0.62276906  0.19459765  0.62739910  1
  O  O368  1  0.95605576  0.02831925  0.66794088  1
  O  O369  1  0.73372388  0.47310296  0.64094528  1
  O  O370  1  0.45609046  0.02831339  0.66794036  1
  O  O371  1  0.23372195  0.47310000  0.64094774  1
  O  O372  1  0.34479860  0.75048906  0.65432619  1
  O  O373  1  0.12277588  0.19460299  0.62739905  1
  O  O374  1  0.28828410  0.86278534  0.70884978  1
  O  O375  1  0.06652687  0.30693027  0.68168407  1
  O  O376  1  0.39848288  0.14141866  0.72246896  1
  O  O377  1  0.17748951  0.58480531  0.69526274  1
  O  O378  1  0.89853971  0.14139627  0.72246937  1
  O  O379  1  0.67749607  0.58477682  0.69525905  1
  O  O380  1  0.78830594  0.86278920  0.70884998  1
  O  O381  1  0.56665721  0.30689394  0.68169148  1
  O  O382  1  0.72898438  0.97666516  0.76345393  1
  O  O383  1  0.50833423  0.41990374  0.73613073  1
  O  O384  1  0.83875640  0.25533631  0.77714357  1
  O  O385  1  0.61895312  0.69805923  0.74976153  1
  O  O386  1  0.33866545  0.25536528  0.77713691  1
  O  O387  1  0.11897195  0.69806406  0.74976254  1
  O  O388  1  0.22897623  0.97665814  0.76345589  1
  O  O389  1  0.00819070  0.41997890  0.73612251  1
  O  O390  1  0.16931926  0.08990090  0.81818901  1
  O  O391  1  0.94850197  0.53339109  0.79075123  1
  O  O392  1  0.27905508  0.36856125  0.83194017  1
  O  O393  1  0.05927912  0.81139017  0.80441100  1
  O  O394  1  0.77906044  0.36857014  0.83194232  1
  O  O395  1  0.55928205  0.81140032  0.80441193  1
  O  O396  1  0.66929210  0.08990146  0.81818946  1
  O  O397  1  0.44853060  0.53336185  0.79075137  1
  O  O398  1  0.61155955  0.20287071  0.87276727  1
  O  O399  1  0.39079351  0.64571625  0.84548945  1
  O  O400  1  0.72297624  0.48148364  0.88699039  1
  O  O401  1  0.50172958  0.92300869  0.85901604  1
  O  O402  1  0.22299174  0.48154104  0.88698200  1
  O  O403  1  0.00167231  0.92304730  0.85901145  1
  O  O404  1  0.11160647  0.20286799  0.87276999  1
  O  O405  1  0.89078806  0.64572136  0.84548844  1
  O  O406  1  0.05575489  0.31595518  0.92750448  1
  O  O407  1  0.83563468  0.75613876  0.90032258  1
  O  O408  1  0.16719741  0.59332087  0.94363727  1
  O  O409  1  0.94538846  0.03537091  0.91294354  1
  O  O410  1  0.66721855  0.59327356  0.94362539  1
  O  O411  1  0.44548767  0.03530734  0.91294560  1
  O  O412  1  0.55572817  0.31595126  0.92749942  1
  O  O413  1  0.33565070  0.75614846  0.90032122  1
  O  O414  1  0.50882797  0.41287533  0.98313237  1
  O  O415  1  0.27933922  0.86832431  0.95387017  1
  O  O416  1  0.39454015  0.13833452  0.96651089  1
  O  O417  1  0.89454760  0.13834126  0.96651489  1
  O  O418  1  0.00882181  0.41287751  0.98313269  1
  O  O419  1  0.77923366  0.86839348  0.95387788  1
