# generated using pymatgen
data_Na12Zr7Si7(PO11)4
_symmetry_space_group_name_H-M   'P 1'
_cell_length_a   9.04129400
_cell_length_b   9.04129366
_cell_length_c   58.17454621
_cell_angle_alpha   90.00000000
_cell_angle_beta   90.00000000
_cell_angle_gamma   60.19909096
_symmetry_Int_Tables_number   1
_chemical_formula_structural   Na12Zr7Si7(PO11)4
_chemical_formula_sum   'Na48 Zr28 Si28 P16 O176'
_cell_volume   4126.60197090
_cell_formula_units_Z   4
loop_
 _symmetry_equiv_pos_site_id
 _symmetry_equiv_pos_as_xyz
  1  'x, y, z'
loop_
 _atom_site_type_symbol
 _atom_site_label
 _atom_site_symmetry_multiplicity
 _atom_site_fract_x
 _atom_site_fract_y
 _atom_site_fract_z
 _atom_site_occupancy
  Na  Na0  1  0.60289582  0.78724116  0.00149412  1
  Na  Na1  1  0.58384060  0.39955746  0.06624987  1
  Na  Na2  1  0.45925075  0.16173590  0.02744836  1
  Na  Na3  1  0.99221884  0.81144375  0.09521612  1
  Na  Na4  1  0.30785783  0.09254412  0.08163052  1
  Na  Na5  1  0.84978856  0.07567658  0.03161661  1
  Na  Na6  1  0.98427537  0.18088990  0.16486160  1
  Na  Na7  1  0.92401337  0.64480548  0.19274568  1
  Na  Na8  1  0.49280069  0.75825106  0.12476555  1
  Na  Na9  1  0.38295343  0.14353546  0.23791420  1
  Na  Na10  1  0.64185549  0.41954771  0.21522713  1
  Na  Na11  1  0.25864540  0.47582682  0.15009561  1
  Na  Na12  1  0.30433503  0.54379123  0.30486432  1
  Na  Na13  1  0.24955809  0.98388238  0.32881191  1
  Na  Na14  1  0.82849677  0.08130490  0.26187689  1
  Na  Na15  1  0.67489274  0.46921905  0.36919831  1
  Na  Na16  1  0.96993529  0.75170825  0.34654431  1
  Na  Na17  1  0.58332687  0.79929482  0.28336600  1
  Na  Na18  1  0.62355712  0.82272376  0.43250763  1
  Na  Na19  1  0.58048171  0.44985591  0.48856345  1
  Na  Na20  1  0.14615219  0.42001175  0.39640012  1
  Na  Na21  1  0.86988532  0.93771252  0.48218324  1
  Na  Na22  1  0.41595872  0.18544237  0.46051547  1
  Na  Na23  1  0.87809605  0.12749231  0.43248772  1
  Na  Na24  1  0.14681547  0.43815939  0.50153450  1
  Na  Na25  1  0.16658480  0.82609899  0.56628950  1
  Na  Na26  1  0.29033753  0.06463266  0.52768478  1
  Na  Na27  1  0.75862900  0.41433359  0.59498941  1
  Na  Na28  1  0.44283983  0.13314999  0.58157930  1
  Na  Na29  1  0.89991934  0.14932119  0.53166063  1
  Na  Na30  1  0.76677020  0.04491577  0.66461150  1
  Na  Na31  1  0.82569313  0.57989941  0.69267716  1
  Na  Na32  1  0.25815531  0.46693989  0.62464857  1
  Na  Na33  1  0.36607400  0.08179893  0.73785452  1
  Na  Na34  1  0.10770919  0.80535547  0.71485705  1
  Na  Na35  1  0.49212876  0.75000055  0.65014350  1
  Na  Na36  1  0.44642816  0.67854423  0.80489718  1
  Na  Na37  1  0.50066526  0.23863558  0.82881774  1
  Na  Na38  1  0.92115397  0.14290049  0.76174373  1
  Na  Na39  1  0.07369949  0.75523842  0.86907025  1
  Na  Na40  1  0.78012785  0.47268527  0.84639346  1
  Na  Na41  1  0.16723612  0.42493804  0.78334423  1
  Na  Na42  1  0.12564945  0.40162213  0.93242089  1
  Na  Na43  1  0.16943430  0.77573989  0.98865948  1
  Na  Na44  1  0.60257728  0.80411237  0.89641213  1
  Na  Na45  1  0.87903539  0.28882938  0.98212728  1
  Na  Na46  1  0.33382498  0.04018861  0.96056657  1
  Na  Na47  1  0.87177036  0.09655920  0.93236567  1
  Zr  Zr48  1  0.60433055  0.12385861  0.10825042  1
  Zr  Zr49  1  0.95803039  0.44777820  0.12214762  1
  Zr  Zr50  1  0.28645113  0.80045940  0.05611665  1
  Zr  Zr51  1  0.95864909  0.41716798  0.03734050  1
  Zr  Zr52  1  0.93903753  0.44553163  0.24280522  1
  Zr  Zr53  1  0.28123549  0.77390883  0.25760944  1
  Zr  Zr54  1  0.61337287  0.11577001  0.19029249  1
  Zr  Zr55  1  0.28589175  0.77554027  0.17568073  1
  Zr  Zr56  1  0.26329045  0.77638256  0.37791578  1
  Zr  Zr57  1  0.60644778  0.10839912  0.39345162  1
  Zr  Zr58  1  0.93571420  0.44532081  0.32542921  1
  Zr  Zr59  1  0.60847863  0.10018038  0.31043436  1
  Zr  Zr60  1  0.27277553  0.79659500  0.46101648  1
  Zr  Zr61  1  0.93101162  0.43470718  0.44594201  1
  Zr  Zr62  1  0.14621620  0.10221236  0.60810467  1
  Zr  Zr63  1  0.79250658  0.77776677  0.62206025  1
  Zr  Zr64  1  0.46355448  0.42560010  0.55610085  1
  Zr  Zr65  1  0.79163256  0.80897335  0.53729844  1
  Zr  Zr66  1  0.81091206  0.77910714  0.74268843  1
  Zr  Zr67  1  0.46875770  0.45063447  0.75744193  1
  Zr  Zr68  1  0.13692508  0.10935276  0.69010784  1
  Zr  Zr69  1  0.46439607  0.44987365  0.67559009  1
  Zr  Zr70  1  0.48633584  0.44809827  0.87775718  1
  Zr  Zr71  1  0.14287328  0.11615671  0.89326572  1
  Zr  Zr72  1  0.81413113  0.77887035  0.82521444  1
  Zr  Zr73  1  0.14155123  0.12370576  0.81025786  1
  Zr  Zr74  1  0.47667169  0.42800581  0.96088750  1
  Zr  Zr75  1  0.81863907  0.78978679  0.94580235  1
  Si  Si76  1  0.20670676  0.01308749  0.01828586  1
  Si  Si77  1  0.94622235  0.16927049  0.08247601  1
  Si  Si78  1  0.23130232  0.45107366  0.07946591  1
  Si  Si79  1  0.62133962  0.39735181  0.15014338  1
  Si  Si80  1  0.27310332  0.49688428  0.21464814  1
  Si  Si81  1  0.33409017  0.10953382  0.14732080  1
  Si  Si82  1  0.56112965  0.78638753  0.21859172  1
  Si  Si83  1  0.94826188  0.72234449  0.28550026  1
  Si  Si84  1  0.59802931  0.82246001  0.35074086  1
  Si  Si85  1  0.66043060  0.43513851  0.28255084  1
  Si  Si86  1  0.88454873  0.11002241  0.35263937  1
  Si  Si87  1  0.25772089  0.07156856  0.41783966  1
  Si  Si88  1  0.02967556  0.21009807  0.48298887  1
  Si  Si89  1  0.98557543  0.77048769  0.42025339  1
  Si  Si90  1  0.54257492  0.21348210  0.51823364  1
  Si  Si91  1  0.80405305  0.05665876  0.58243062  1
  Si  Si92  1  0.51917932  0.77483272  0.57938705  1
  Si  Si93  1  0.12979178  0.82799013  0.64985792  1
  Si  Si94  1  0.47665615  0.72866436  0.71458590  1
  Si  Si95  1  0.41648870  0.11579057  0.64723738  1
  Si  Si96  1  0.18874472  0.43895111  0.71842816  1
  Si  Si97  1  0.80228616  0.50113272  0.78530351  1
  Si  Si98  1  0.15171993  0.40177628  0.85056995  1
  Si  Si99  1  0.08963716  0.78891778  0.78238219  1
  Si  Si100  1  0.86499891  0.11459533  0.85242553  1
  Si  Si101  1  0.49158521  0.15301811  0.91768679  1
  Si  Si102  1  0.71997616  0.01450956  0.98283808  1
  Si  Si103  1  0.76385738  0.45367559  0.92015827  1
  P  P104  1  0.67878050  0.73736038  0.07942138  1
  P  P105  1  0.57327967  0.48979048  0.01672434  1
  P  P106  1  0.98710874  0.07248739  0.21657039  1
  P  P107  1  0.90920992  0.82598837  0.14918876  1
  P  P108  1  0.31115006  0.39851655  0.35160887  1
  P  P109  1  0.23293738  0.14922034  0.28424018  1
  P  P110  1  0.66252417  0.75855072  0.48263968  1
  P  P111  1  0.54088022  0.48984878  0.42187637  1
  P  P112  1  0.07169910  0.48831529  0.57935827  1
  P  P113  1  0.17720220  0.73593350  0.51680197  1
  P  P114  1  0.76316197  0.15212029  0.71639253  1
  P  P115  1  0.84116280  0.39975464  0.64904387  1
  P  P116  1  0.43884568  0.82601713  0.85145744  1
  P  P117  1  0.51663287  0.07512718  0.78409108  1
  P  P118  1  0.08732630  0.46714318  0.98264219  1
  P  P119  1  0.20875673  0.73464055  0.92164166  1
  O  O120  1  0.32753921  0.99865677  0.04075471  1
  O  O121  1  0.88394223  0.28394946  0.05908148  1
  O  O122  1  0.43828775  0.04971397  0.12275893  1
  O  O123  1  0.11283194  0.51463295  0.10272318  1
  O  O124  1  0.48942584  0.54816068  0.99263200  1
  O  O125  1  0.75048331  0.62728487  0.10167511  1
  O  O126  1  0.47076202  0.62667538  0.03504482  1
  O  O127  1  0.78139610  0.64425282  0.05790554  1
  O  O128  1  0.74445291  0.49273948  0.01449538  1
  O  O129  1  0.48937370  0.77435576  0.07858689  1
  O  O130  1  0.59437763  0.32288859  0.02593658  1
  O  O131  1  0.67731075  0.90814252  0.08304531  1
  O  O132  1  0.13360373  0.88341452  0.02785482  1
  O  O133  1  0.02071609  0.25044417  0.10097022  1
  O  O134  1  0.14973249  0.39067104  0.05863875  1
  O  O135  1  0.41924129  0.28291289  0.08497321  1
  O  O136  1  0.10212776  0.97381083  0.07805759  1
  O  O137  1  0.03711971  0.20228478  0.01757829  1
  O  O138  1  0.78042800  0.15872244  0.09105457  1
  O  O139  1  0.30457232  0.94390845  0.99452008  1
  O  O140  1  0.26004727  0.60877514  0.07126463  1
  O  O141  1  0.67999591  0.28545563  0.17397630  1
  O  O142  1  0.21960177  0.60080493  0.19010127  1
  O  O143  1  0.76715342  0.38049794  0.25828386  1
  O  O144  1  0.45562082  0.83916159  0.24294151  1
  O  O145  1  0.81345695  0.93279894  0.12794853  1
  O  O146  1  0.07613761  0.97212042  0.23864702  1
  O  O147  1  0.80886402  0.90360526  0.17169745  1
  O  O148  1  0.08834080  0.98075464  0.19474533  1
  O  O149  1  0.08579884  0.81335906  0.15041202  1
  O  O150  1  0.80673041  0.09170879  0.21603914  1
  O  O151  1  0.93510237  0.64288497  0.14712231  1
  O  O152  1  0.96847944  0.25203507  0.21719379  1
  O  O153  1  0.55587376  0.30766688  0.13108569  1
  O  O154  1  0.32004497  0.59842610  0.23406217  1
  O  O155  1  0.43916495  0.15259029  0.16657627  1
  O  O156  1  0.46205128  0.73688903  0.19903913  1
  O  O157  1  0.74958554  0.61472756  0.22096680  1
  O  O158  1  0.15039887  0.28644758  0.14434661  1
  O  O159  1  0.44627759  0.30993365  0.21172030  1
  O  O160  1  0.45579621  0.58886622  0.15367331  1
  O  O161  1  0.11667634  0.46861892  0.22311962  1
  O  O162  1  0.78325723  0.41338160  0.14075409  1
  O  O163  1  0.58190755  0.94747372  0.21034556  1
  O  O164  1  0.30020852  0.95696013  0.15583504  1
  O  O165  1  0.00612155  0.61430655  0.30965263  1
  O  O166  1  0.54143855  0.93307992  0.32668618  1
  O  O167  1  0.10124092  0.72164250  0.39682097  1
  O  O168  1  0.77150165  0.16624424  0.37621951  1
  O  O169  1  0.14354926  0.24877468  0.26219051  1
  O  O170  1  0.40226769  0.30701221  0.37394748  1
  O  O171  1  0.13218106  0.23871036  0.30622435  1
  O  O172  1  0.41662525  0.30951776  0.32986727  1
  O  O173  1  0.41270608  0.13186184  0.28469867  1
  O  O174  1  0.13537335  0.40764365  0.35100967  1
  O  O175  1  0.25368039  0.96823115  0.28394727  1
  O  O176  1  0.28144334  0.58316581  0.35183515  1
  O  O177  1  0.89908387  0.62340638  0.26602660  1
  O  O178  1  0.62640697  0.92841899  0.37160168  1
  O  O179  1  0.75646636  0.48968895  0.30198097  1
  O  O180  1  0.79154475  0.05121334  0.33330625  1
  O  O181  1  0.07449054  0.94146016  0.35552218  1
  O  O182  1  0.47080510  0.60474104  0.27942677  1
  O  O183  1  0.77789010  0.64113429  0.34739532  1
  O  O184  1  0.77512412  0.90940060  0.28853608  1
  O  O185  1  0.45097854  0.77387689  0.35706674  1
  O  O186  1  0.10530118  0.74976043  0.27713820  1
  O  O187  1  0.89985215  0.27368031  0.34395687  1
  O  O188  1  0.63719733  0.27569853  0.29114922  1
  O  O189  1  0.32717898  0.93976838  0.43969327  1
  O  O190  1  0.84799308  0.29447957  0.46776842  1
  O  O191  1  0.47022228  0.58598551  0.39880090  1
  O  O192  1  0.67978546  0.74629130  0.50930288  1
  O  O193  1  0.40899808  0.56258768  0.44148548  1
  O  O194  1  0.83420741  0.61720472  0.47224088  1
  O  O195  1  0.69788800  0.51153482  0.42810541  1
  O  O196  1  0.51875066  0.71982982  0.47579049  1
  O  O197  1  0.60045371  0.29871572  0.41869029  1
  O  O198  1  0.62911135  0.92616569  0.47177957  1
  O  O199  1  0.23913045  0.96986261  0.39604227  1
  O  O200  1  0.13025804  0.29204706  0.46761719  1
  O  O201  1  0.06004446  0.82942664  0.44217487  1
  O  O202  1  0.79171822  0.93264663  0.41542456  1
  O  O203  1  0.11040842  0.00503580  0.47842305  1
  O  O204  1  0.06974785  0.24183554  0.42177970  1
  O  O205  1  0.03152562  0.25704158  0.50943334  1
  O  O206  1  0.40511501  0.12485192  0.41378740  1
  O  O207  1  0.96978886  0.60214683  0.42673392  1
  O  O208  1  0.42161341  0.22800286  0.54068177  1
  O  O209  1  0.86697534  0.94197772  0.55903551  1
  O  O210  1  0.31264830  0.17557104  0.62264074  1
  O  O211  1  0.63750336  0.71121744  0.60264447  1
  O  O212  1  0.26204884  0.67646963  0.49278624  1
  O  O213  1  0.99975723  0.59805982  0.60162463  1
  O  O214  1  0.27792750  0.59923314  0.53521964  1
  O  O215  1  0.96933541  0.58185686  0.55785695  1
  O  O216  1  0.00548921  0.73423568  0.51440813  1
  O  O217  1  0.26123648  0.45104918  0.57865332  1
  O  O218  1  0.15724315  0.90230309  0.52603624  1
  O  O219  1  0.07297433  0.31758253  0.58288756  1
  O  O220  1  0.61572375  0.34315353  0.52779158  1
  O  O221  1  0.72954984  0.97536129  0.60089759  1
  O  O222  1  0.60078139  0.83556700  0.55861324  1
  O  O223  1  0.33099003  0.94290727  0.58482534  1
  O  O224  1  0.64806047  0.25186229  0.57795235  1
  O  O225  1  0.71218556  0.02424178  0.51764688  1
  O  O226  1  0.96947341  0.06781080  0.59103384  1
  O  O227  1  0.44535370  0.28215515  0.49442419  1
  O  O228  1  0.49070800  0.61712549  0.57112850  1
  O  O229  1  0.07060757  0.93997195  0.67368737  1
  O  O230  1  0.53071435  0.62420578  0.69007993  1
  O  O231  1  0.98320976  0.84356561  0.75809599  1
  O  O232  1  0.29392140  0.38613582  0.74281159  1
  O  O233  1  0.93697600  0.29397146  0.62774860  1
  O  O234  1  0.67386315  0.25244316  0.73846332  1
  O  O235  1  0.94191343  0.32142861  0.67150037  1
  O  O236  1  0.66208311  0.24422964  0.69456883  1
  O  O237  1  0.66493080  0.41157747  0.65031101  1
  O  O238  1  0.94363908  0.13276477  0.71586014  1
  O  O239  1  0.81473811  0.58316815  0.64711424  1
  O  O240  1  0.78179528  0.97260842  0.71700601  1
  O  O241  1  0.19536764  0.91766098  0.63084053  1
  O  O242  1  0.43013063  0.62679655  0.73401326  1
  O  O243  1  0.31172863  0.07174169  0.66642792  1
  O  O244  1  0.28775201  0.48920128  0.69893705  1
  O  O245  1  0.99996259  0.61001443  0.72079127  1
  O  O246  1  0.60053216  0.93937721  0.64426759  1
  O  O247  1  0.30339237  0.91530847  0.71158442  1
  O  O248  1  0.29517588  0.63653578  0.65349916  1
  O  O249  1  0.63283018  0.75724581  0.72301411  1
  O  O250  1  0.96797847  0.81178625  0.64048654  1
  O  O251  1  0.16885088  0.27748461  0.71012941  1
  O  O252  1  0.44940880  0.26891060  0.65577358  1
  O  O253  1  0.74440819  0.60917367  0.80947201  1
  O  O254  1  0.20870155  0.29069787  0.82656312  1
  O  O255  1  0.64776996  0.50324643  0.89677451  1
  O  O256  1  0.97793612  0.05816640  0.87601706  1
  O  O257  1  0.60631386  0.97591305  0.76204000  1
  O  O258  1  0.34782544  0.91796066  0.87377881  1
  O  O259  1  0.61736354  0.98537993  0.80606574  1
  O  O260  1  0.33348392  0.91470232  0.82969918  1
  O  O261  1  0.33714449  0.09191716  0.78451695  1
  O  O262  1  0.61468140  0.81670447  0.85082952  1
  O  O263  1  0.49535999  0.25633919  0.78382650  1
  O  O264  1  0.46849787  0.64137391  0.85171972  1
  O  O265  1  0.85041356  0.60075279  0.76581390  1
  O  O266  1  0.12248343  0.29641823  0.87144398  1
  O  O267  1  0.99328046  0.73426697  0.80174345  1
  O  O268  1  0.95803500  0.17330387  0.83309548  1
  O  O269  1  0.67510955  0.28318438  0.85534991  1
  O  O270  1  0.27946615  0.61958814  0.77932546  1
  O  O271  1  0.97217009  0.58343978  0.84722819  1
  O  O272  1  0.97581608  0.31441850  0.78829850  1
  O  O273  1  0.29897511  0.44993397  0.85694942  1
  O  O274  1  0.64548576  0.47306140  0.77702274  1
  O  O275  1  0.84947354  0.95112007  0.84369879  1
  O  O276  1  0.11226962  0.94859271  0.79101961  1
  O  O277  1  0.42209024  0.28459577  0.93958374  1
  O  O278  1  0.90160145  0.93039321  0.96760468  1
  O  O279  1  0.27888813  0.63911285  0.89851554  1
  O  O280  1  0.07048362  0.47964588  0.00930932  1
  O  O281  1  0.34105079  0.66119728  0.94119087  1
  O  O282  1  0.91550987  0.60807505  0.97222260  1
  O  O283  1  0.05164191  0.71312871  0.92789455  1
  O  O284  1  0.23091063  0.50613743  0.97576072  1
  O  O285  1  0.14929322  0.92582685  0.91854628  1
  O  O286  1  0.12100155  0.29930379  0.97183694  1
  O  O287  1  0.51076732  0.25484225  0.89595682  1
  O  O288  1  0.61956966  0.93221360  0.96750042  1
  O  O289  1  0.68983768  0.39425292  0.94207873  1
  O  O290  1  0.95763520  0.29166558  0.91526490  1
  O  O291  1  0.63826127  0.21964172  0.97830052  1
  O  O292  1  0.67933702  0.98228348  0.92159819  1
  O  O293  1  0.71827811  0.96811258  0.00931292  1
  O  O294  1  0.34392802  0.10027239  0.91358226  1
  O  O295  1  0.77997872  0.62166482  0.92676799  1
