# generated using pymatgen
data_Na15Zr12Si10P5O64
_symmetry_space_group_name_H-M   'P 1'
_cell_length_a   9.27295600
_cell_length_b   15.80284349
_cell_length_c   50.85438968
_cell_angle_alpha   90.00000000
_cell_angle_beta   90.00000000
_cell_angle_gamma   56.43985526
_symmetry_Int_Tables_number   1
_chemical_formula_structural   Na15Zr12Si10P5O64
_chemical_formula_sum   'Na60 Zr48 Si40 P20 O256'
_cell_volume   6209.92540797
_cell_formula_units_Z   4
loop_
 _symmetry_equiv_pos_site_id
 _symmetry_equiv_pos_as_xyz
  1  'x, y, z'
loop_
 _atom_site_type_symbol
 _atom_site_label
 _atom_site_symmetry_multiplicity
 _atom_site_fract_x
 _atom_site_fract_y
 _atom_site_fract_z
 _atom_site_occupancy
  Na  Na0  1  0.41096170  0.09142789  0.10127497  1
  Na  Na1  1  0.69515253  0.76609875  0.01061601  1
  Na  Na2  1  0.02821389  0.71796028  0.09388995  1
  Na  Na3  1  0.83792484  0.08821861  0.00332945  1
  Na  Na4  1  0.70925713  0.39699328  0.05482776  1
  Na  Na5  1  0.21957621  0.38917704  0.09376144  1
  Na  Na6  1  0.37964464  0.57465104  0.18384782  1
  Na  Na7  1  0.62430708  0.21891601  0.14495658  1
  Na  Na8  1  0.11368382  0.21663789  0.17528724  1
  Na  Na9  1  0.87021440  0.57319186  0.13767653  1
  Na  Na10  1  0.71327388  0.88821201  0.14100418  1
  Na  Na11  1  0.21722340  0.88684095  0.17920052  1
  Na  Na12  1  0.39036692  0.07520079  0.27596495  1
  Na  Na13  1  0.54820354  0.71185576  0.22800267  1
  Na  Na14  1  0.04822984  0.71183767  0.27199581  1
  Na  Na15  1  0.89035759  0.07519685  0.22403908  1
  Na  Na16  1  0.71897482  0.38612421  0.23059280  1
  Na  Na17  1  0.21902180  0.38609834  0.26941150  1
  Na  Na18  1  0.37023606  0.57316915  0.36232873  1
  Na  Na19  1  0.61377876  0.21660316  0.32471689  1
  Na  Na20  1  0.12430199  0.21888919  0.35504643  1
  Na  Na21  1  0.87967877  0.57462167  0.31616177  1
  Na  Na22  1  0.71719463  0.88684067  0.32079845  1
  Na  Na23  1  0.21328594  0.88818965  0.35899709  1
  Na  Na24  1  0.33787606  0.08822556  0.49667407  1
  Na  Na25  1  0.52821833  0.71794404  0.40611232  1
  Na  Na26  1  0.19517448  0.76610144  0.48937822  1
  Na  Na27  1  0.91096129  0.09139412  0.39873013  1
  Na  Na28  1  0.71960354  0.38916627  0.40624019  1
  Na  Na29  1  0.20929382  0.39696211  0.44517153  1
  Na  Na30  1  0.91423979  0.25875015  0.60117134  1
  Na  Na31  1  0.62929230  0.58407274  0.51048380  1
  Na  Na32  1  0.29653464  0.63224669  0.59377619  1
  Na  Na33  1  0.48616668  0.26211568  0.50329955  1
  Na  Na34  1  0.61568198  0.95284717  0.55484082  1
  Na  Na35  1  0.10498966  0.96086077  0.59371261  1
  Na  Na36  1  0.94538258  0.77504498  0.68386496  1
  Na  Na37  1  0.70132235  0.13103025  0.64494736  1
  Na  Na38  1  0.21304394  0.13320813  0.67539918  1
  Na  Na39  1  0.45455955  0.77649969  0.63763556  1
  Na  Na40  1  0.61165392  0.46193821  0.64096113  1
  Na  Na41  1  0.10885015  0.46278077  0.67915998  1
  Na  Na42  1  0.93558035  0.27512917  0.77585239  1
  Na  Na43  1  0.77817183  0.63841590  0.72789519  1
  Na  Na44  1  0.27822943  0.63841463  0.77210862  1
  Na  Na45  1  0.43558741  0.27514000  0.72414712  1
  Na  Na46  1  0.60572411  0.96392595  0.73061582  1
  Na  Na47  1  0.10570870  0.96392368  0.76937921  1
  Na  Na48  1  0.95456156  0.77648880  0.86236688  1
  Na  Na49  1  0.71306412  0.13321138  0.82459637  1
  Na  Na50  1  0.20130939  0.13102333  0.85504920  1
  Na  Na51  1  0.44536092  0.77503615  0.81613392  1
  Na  Na52  1  0.60890158  0.46274660  0.82083848  1
  Na  Na53  1  0.11167456  0.46193861  0.85903812  1
  Na  Na54  1  0.98629118  0.26210171  0.99669629  1
  Na  Na55  1  0.79653884  0.63224889  0.90622417  1
  Na  Na56  1  0.12930922  0.58404568  0.98951679  1
  Na  Na57  1  0.41425775  0.25876482  0.89883965  1
  Na  Na58  1  0.60495691  0.96087116  0.90628937  1
  Na  Na59  1  0.11563342  0.95286055  0.94515638  1
  Zr  Zr60  1  0.95090735  0.47904384  0.02785512  1
  Zr  Zr61  1  0.02509397  0.81596716  0.03043248  1
  Zr  Zr62  1  0.45016233  0.34576465  0.02867848  1
  Zr  Zr63  1  0.33463324  0.03172146  0.03199758  1
  Zr  Zr64  1  0.89869530  0.99275833  0.11403904  1
  Zr  Zr65  1  0.00852769  0.29169984  0.11342956  1
  Zr  Zr66  1  0.51220355  0.79156335  0.11471391  1
  Zr  Zr67  1  0.40314948  0.49607121  0.11402936  1
  Zr  Zr68  1  0.90113973  0.49289073  0.20594463  1
  Zr  Zr69  1  0.01440168  0.79085064  0.20404404  1
  Zr  Zr70  1  0.51316616  0.29021140  0.20630939  1
  Zr  Zr71  1  0.39914454  0.99256864  0.20383571  1
  Zr  Zr72  1  0.89915542  0.99254043  0.29616327  1
  Zr  Zr73  1  0.01318304  0.29020289  0.29369151  1
  Zr  Zr74  1  0.51441156  0.79083496  0.29595959  1
  Zr  Zr75  1  0.40116921  0.49287244  0.29405880  1
  Zr  Zr76  1  0.90319353  0.49605517  0.38597122  1
  Zr  Zr77  1  0.01220837  0.79154269  0.38528937  1
  Zr  Zr78  1  0.50856559  0.29165560  0.38657134  1
  Zr  Zr79  1  0.39869129  0.99273030  0.38596444  1
  Zr  Zr80  1  0.83459833  0.03173761  0.46800188  1
  Zr  Zr81  1  0.95018125  0.34573410  0.47131895  1
  Zr  Zr82  1  0.52512196  0.81596445  0.46956753  1
  Zr  Zr83  1  0.45093718  0.47902091  0.47214563  1
  Zr  Zr84  1  0.37395423  0.87087012  0.52781237  1
  Zr  Zr85  1  0.29952114  0.53429193  0.53036798  1
  Zr  Zr86  1  0.87437844  0.00451586  0.52862559  1
  Zr  Zr87  1  0.98976083  0.31865298  0.53193608  1
  Zr  Zr88  1  0.42663374  0.35706381  0.61401474  1
  Zr  Zr89  1  0.31622164  0.05814716  0.61344545  1
  Zr  Zr90  1  0.81303915  0.55828602  0.61470464  1
  Zr  Zr91  1  0.92163596  0.85378371  0.61399645  1
  Zr  Zr92  1  0.42377360  0.85713984  0.70591578  1
  Zr  Zr93  1  0.31090486  0.55921376  0.70403756  1
  Zr  Zr94  1  0.81148251  0.05988382  0.70629334  1
  Zr  Zr95  1  0.92611595  0.35749757  0.70380886  1
  Zr  Zr96  1  0.42612604  0.35749951  0.79618548  1
  Zr  Zr97  1  0.31148739  0.05987691  0.79370596  1
  Zr  Zr98  1  0.81090425  0.55921600  0.79595925  1
  Zr  Zr99  1  0.92376729  0.85713594  0.79408432  1
  Zr  Zr100  1  0.42162484  0.85377881  0.88599997  1
  Zr  Zr101  1  0.31306989  0.55827968  0.88529176  1
  Zr  Zr102  1  0.81622404  0.05814672  0.88655515  1
  Zr  Zr103  1  0.92665586  0.35705591  0.88598112  1
  Zr  Zr104  1  0.48977372  0.31864411  0.96806214  1
  Zr  Zr105  1  0.37443312  0.00445411  0.97137109  1
  Zr  Zr106  1  0.79951719  0.53428710  0.96963402  1
  Zr  Zr107  1  0.87392738  0.87087104  0.97218699  1
  Si  Si108  1  0.21984187  0.56194330  0.05204965  1
  Si  Si109  1  0.68779747  0.25274149  0.08950320  1
  Si  Si110  1  0.17949819  0.26849807  0.05153847  1
  Si  Si111  1  0.72428900  0.53508580  0.08895718  1
  Si  Si112  1  0.22239626  0.03171643  0.13896071  1
  Si  Si113  1  0.69476578  0.75046770  0.17968864  1
  Si  Si114  1  0.19406207  0.75252356  0.13996856  1
  Si  Si115  1  0.71947967  0.03215091  0.17931025  1
  Si  Si116  1  0.22117435  0.53236594  0.22991108  1
  Si  Si117  1  0.69632394  0.24958793  0.26992587  1
  Si  Si118  1  0.19631231  0.24958923  0.23007618  1
  Si  Si119  1  0.72119795  0.53235235  0.27009174  1
  Si  Si120  1  0.21946051  0.03214556  0.32068993  1
  Si  Si121  1  0.69410995  0.75250781  0.36002842  1
  Si  Si122  1  0.19478788  0.75045277  0.32031172  1
  Si  Si123  1  0.72239402  0.03167549  0.36103881  1
  Si  Si124  1  0.22434274  0.53505575  0.41104786  1
  Si  Si125  1  0.67950055  0.26849725  0.44846342  1
  Si  Si126  1  0.18782468  0.25272018  0.41049553  1
  Si  Si127  1  0.71985527  0.56193471  0.44794988  1
  Si  Si128  1  0.10429063  0.78830532  0.55194517  1
  Si  Si129  1  0.63697113  0.09706427  0.58956015  1
  Si  Si130  1  0.14554434  0.08155371  0.55150225  1
  Si  Si131  1  0.60034704  0.81476251  0.58895739  1
  Si  Si132  1  0.10274051  0.31823338  0.63892906  1
  Si  Si133  1  0.63094113  0.59957896  0.67969867  1
  Si  Si134  1  0.13141080  0.59721115  0.63988256  1
  Si  Si135  1  0.60574052  0.31797326  0.67927897  1
  Si  Si136  1  0.10339905  0.81769525  0.72989371  1
  Si  Si137  1  0.62807345  0.10052215  0.76993918  1
  Si  Si138  1  0.12808287  0.10052379  0.73005997  1
  Si  Si139  1  0.60337922  0.81769616  0.77010973  1
  Si  Si140  1  0.10574896  0.31798895  0.82071430  1
  Si  Si141  1  0.63145268  0.59719258  0.86011559  1
  Si  Si142  1  0.13095299  0.59958330  0.82030054  1
  Si  Si143  1  0.60273015  0.31823437  0.86107008  1
  Si  Si144  1  0.10032395  0.81476526  0.91104074  1
  Si  Si145  1  0.64555996  0.08155186  0.94850016  1
  Si  Si146  1  0.13699889  0.09705207  0.91043720  1
  Si  Si147  1  0.60421827  0.78830130  0.94805174  1
  P  P148  1  0.68501522  0.89847721  0.07717626  1
  P  P149  1  0.20095618  0.90225293  0.06255429  1
  P  P150  1  0.70662130  0.39071683  0.16728152  1
  P  P151  1  0.20807471  0.38993345  0.15281774  1
  P  P152  1  0.70627877  0.89221135  0.25727625  1
  P  P153  1  0.20629562  0.89221763  0.24272558  1
  P  P154  1  0.70810102  0.38991725  0.34718433  1
  P  P155  1  0.20669486  0.39068388  0.33271807  1
  P  P156  1  0.70096162  0.90223679  0.43744843  1
  P  P157  1  0.18503231  0.89845533  0.42282806  1
  P  P158  1  0.63944407  0.45174448  0.57712189  1
  P  P159  1  0.12418718  0.44763489  0.56254910  1
  P  P160  1  0.61881637  0.95913637  0.66726603  1
  P  P161  1  0.11719027  0.95989294  0.65279811  1
  P  P162  1  0.61900750  0.45767866  0.75727442  1
  P  P163  1  0.11901515  0.45767372  0.74271916  1
  P  P164  1  0.61719315  0.95984712  0.84720177  1
  P  P165  1  0.11878660  0.95916660  0.83273453  1
  P  P166  1  0.62421433  0.44761588  0.93744793  1
  P  P167  1  0.13943380  0.45175428  0.92287761  1
  O  O168  1  0.41329719  0.47843628  0.03884265  1
  O  O169  1  0.51180181  0.94213019  0.00662090  1
  O  O170  1  0.98518653  0.33023564  0.03943516  1
  O  O171  1  0.86945240  0.93645083  0.00739094  1
  O  O172  1  0.03488452  0.92710528  0.07693373  1
  O  O173  1  0.82316495  0.84622685  0.05522629  1
  O  O174  1  0.36204151  0.84065394  0.07977552  1
  O  O175  1  0.50383826  0.96551739  0.06494367  1
  O  O176  1  0.71096501  0.96888915  0.09488609  1
  O  O177  1  0.21857306  0.84189823  0.03705780  1
  O  O178  1  0.70492612  0.81217647  0.09456767  1
  O  O179  1  0.17605414  0.00339441  0.05308762  1
  O  O180  1  0.07800329  0.55035449  0.03566701  1
  O  O181  1  0.84300445  0.27415860  0.09289589  1
  O  O182  1  0.24021395  0.34818207  0.04534095  1
  O  O183  1  0.57380949  0.50983752  0.09297020  1
  O  O184  1  0.77183786  0.52860662  0.05738218  1
  O  O185  1  0.19010209  0.24914348  0.08331723  1
  O  O186  1  0.62783245  0.26946744  0.05851557  1
  O  O187  1  0.22791117  0.53222909  0.08334789  1
  O  O188  1  0.79475386  0.60139072  0.00308008  1
  O  O189  1  0.16594337  0.67807805  0.05048018  1
  O  O190  1  0.63942831  0.26554445  0.00184801  1
  O  O191  1  0.31647282  0.16197847  0.03685069  1
  O  O192  1  0.40917778  0.94560603  0.12592306  1
  O  O193  1  0.52122858  0.33924631  0.10714652  1
  O  O194  1  0.00838776  0.83945703  0.12670698  1
  O  O195  1  0.90118689  0.44455777  0.10429018  1
  O  O196  1  0.04251906  0.44918366  0.17001641  1
  O  O197  1  0.87025589  0.33260710  0.14982686  1
  O  O198  1  0.37173678  0.33111262  0.17015322  1
  O  O199  1  0.54256219  0.45633516  0.15018276  1
  O  O200  1  0.71315977  0.46472572  0.18644869  1
  O  O201  1  0.19882369  0.31151792  0.13580690  1
  O  O202  1  0.69547564  0.31038040  0.18290206  1
  O  O203  1  0.21166411  0.46864971  0.13509630  1
  O  O204  1  0.07607915  0.00767189  0.13142023  1
  O  O205  1  0.84238035  0.77575285  0.18492510  1
  O  O206  1  0.33904631  0.77952398  0.13483730  1
  O  O207  1  0.57296345  0.00574381  0.18402338  1
  O  O208  1  0.74005477  0.03633684  0.14713684  1
  O  O209  1  0.18134924  0.74739851  0.17224274  1
  O  O210  1  0.67647230  0.74903669  0.14754116  1
  O  O211  1  0.23629492  0.03217629  0.17141853  1
  O  O212  1  0.75125230  0.14127357  0.10132198  1
  O  O213  1  0.16378197  0.14514944  0.12856645  1
  O  O214  1  0.66525198  0.64289786  0.10252594  1
  O  O215  1  0.25294299  0.64246043  0.12737292  1
  O  O216  1  0.40556340  0.44392927  0.21633426  1
  O  O217  1  0.51333229  0.83730158  0.19419955  1
  O  O218  1  0.01453640  0.33831085  0.21631169  1
  O  O219  1  0.90262771  0.94478481  0.19336537  1
  O  O220  1  0.04053386  0.95166303  0.25966149  1
  O  O221  1  0.87142996  0.83470303  0.24014704  1
  O  O222  1  0.37144011  0.83469347  0.25985662  1
  O  O223  1  0.54053535  0.95167130  0.24033805  1
  O  O224  1  0.70859291  0.97075901  0.27546242  1
  O  O225  1  0.20569625  0.81208662  0.22509123  1
  O  O226  1  0.70567587  0.81207336  0.27490472  1
  O  O227  1  0.20860746  0.97077977  0.22454351  1
  O  O228  1  0.07471035  0.50652356  0.22482549  1
  O  O229  1  0.84176827  0.27714059  0.27411669  1
  O  O230  1  0.34176500  0.27714061  0.22589017  1
  O  O231  1  0.57474917  0.50649695  0.27518059  1
  O  O232  1  0.73641310  0.53583353  0.23789503  1
  O  O233  1  0.18206028  0.24397404  0.26222784  1
  O  O234  1  0.68204432  0.24398469  0.23777271  1
  O  O235  1  0.23647153  0.53579570  0.26210916  1
  O  O236  1  0.75265090  0.63973641  0.19179884  1
  O  O237  1  0.16344856  0.64261514  0.21770164  1
  O  O238  1  0.66112033  0.14298152  0.19148324  1
  O  O239  1  0.25728358  0.14147100  0.21620213  1
  O  O240  1  0.40264345  0.94476560  0.30664006  1
  O  O241  1  0.51455227  0.33827573  0.28369572  1
  O  O242  1  0.01334404  0.83728419  0.30580092  1
  O  O243  1  0.90561489  0.44391514  0.28366311  1
  O  O244  1  0.04264182  0.45626067  0.34982186  1
  O  O245  1  0.87176689  0.33110039  0.32984968  1
  O  O246  1  0.37035318  0.33255785  0.35016951  1
  O  O247  1  0.54254026  0.44916746  0.32999021  1
  O  O248  1  0.71168907  0.46863437  0.36490833  1
  O  O249  1  0.19555696  0.31035379  0.31709284  1
  O  O250  1  0.69886346  0.31149319  0.36419321  1
  O  O251  1  0.21321542  0.46471266  0.31356120  1
  O  O252  1  0.07294728  0.00573744  0.31597264  1
  O  O253  1  0.83908391  0.77950456  0.36516378  1
  O  O254  1  0.34239254  0.77574540  0.31508172  1
  O  O255  1  0.57608484  0.00761857  0.36857460  1
  O  O256  1  0.73629421  0.03215495  0.32858155  1
  O  O257  1  0.17648098  0.74902267  0.35245960  1
  O  O258  1  0.68138619  0.74739243  0.32775649  1
  O  O259  1  0.24001632  0.03630748  0.35286764  1
  O  O260  1  0.75731634  0.14144837  0.28378944  1
  O  O261  1  0.16113343  0.14296949  0.30852371  1
  O  O262  1  0.66347996  0.64259348  0.28230959  1
  O  O263  1  0.25269845  0.63971670  0.30820214  1
  O  O264  1  0.40122712  0.44451893  0.39571688  1
  O  O265  1  0.50843334  0.83942137  0.37329568  1
  O  O266  1  0.02124016  0.33922243  0.39285843  1
  O  O267  1  0.90916650  0.94559669  0.37407789  1
  O  O268  1  0.00385529  0.96551144  0.43505774  1
  O  O269  1  0.86203619  0.84063373  0.42022491  1
  O  O270  1  0.32316683  0.84616838  0.44477972  1
  O  O271  1  0.53486673  0.92708735  0.42307225  1
  O  O272  1  0.67604315  0.00338226  0.44690880  1
  O  O273  1  0.20491338  0.81218464  0.40542795  1
  O  O274  1  0.71859570  0.84188753  0.46294625  1
  O  O275  1  0.21100604  0.96887000  0.40512040  1
  O  O276  1  0.07383886  0.50982392  0.40703555  1
  O  O277  1  0.74020371  0.34818167  0.45465509  1
  O  O278  1  0.34299507  0.27415839  0.40710174  1
  O  O279  1  0.57801380  0.55034505  0.46433022  1
  O  O280  1  0.72792426  0.53224578  0.41665156  1
  O  O281  1  0.12788316  0.26942657  0.44148287  1
  O  O282  1  0.69013785  0.24911934  0.41668358  1
  O  O283  1  0.27185697  0.52859397  0.44262214  1
  O  O284  1  0.75301105  0.64243143  0.37262040  1
  O  O285  1  0.16530191  0.64286952  0.39747772  1
  O  O286  1  0.66377095  0.14511344  0.37143881  1
  O  O287  1  0.25128409  0.14125367  0.39867352  1
  O  O288  1  0.36943649  0.93645591  0.49260466  1
  O  O289  1  0.48520974  0.33020708  0.46056474  1
  O  O290  1  0.01177568  0.94215515  0.49337765  1
  O  O291  1  0.91333784  0.47839775  0.46115079  1
  O  O292  1  0.81652173  0.16196612  0.46314790  1
  O  O293  1  0.13942745  0.26553398  0.49815165  1
  O  O294  1  0.66598089  0.67806463  0.44953108  1
  O  O295  1  0.29481718  0.60137631  0.49691956  1
  O  O296  1  0.91093780  0.87181221  0.53873190  1
  O  O297  1  0.81238191  0.40795246  0.50652281  1
  O  O298  1  0.33988209  0.01965835  0.53942858  1
  O  O299  1  0.45514836  0.41364821  0.50735765  1
  O  O300  1  0.29043560  0.42241745  0.57691601  1
  O  O301  1  0.50101808  0.50433135  0.55522192  1
  O  O302  1  0.96309330  0.50958291  0.57976219  1
  O  O303  1  0.82040452  0.38501451  0.56481639  1
  O  O304  1  0.61399278  0.38089396  0.59473725  1
  O  O305  1  0.10680037  0.50786597  0.53704075  1
  O  O306  1  0.61979083  0.53772109  0.59463069  1
  O  O307  1  0.14841370  0.34668782  0.55308177  1
  O  O308  1  0.24631306  0.79985294  0.53557425  1
  O  O309  1  0.48171627  0.07578097  0.59293074  1
  O  O310  1  0.08440075  0.00211233  0.54522260  1
  O  O311  1  0.75068909  0.84016153  0.59296384  1
  O  O312  1  0.55268713  0.82124243  0.55739133  1
  O  O313  1  0.13464478  0.10069559  0.58329403  1
  O  O314  1  0.69732245  0.08018124  0.55857500  1
  O  O315  1  0.09636810  0.81796577  0.58324747  1
  O  O316  1  0.53035593  0.74868174  0.50302440  1
  O  O317  1  0.15791785  0.67223462  0.55035734  1
  O  O318  1  0.68522891  0.08514248  0.50181245  1
  O  O319  1  0.00889356  0.18822554  0.53684356  1
  O  O320  1  0.91581176  0.40427591  0.62592415  1
  O  O321  1  0.80348232  0.01063382  0.60721620  1
  O  O322  1  0.31703142  0.51048784  0.62657908  1
  O  O323  1  0.42350407  0.90527701  0.60428021  1
  O  O324  1  0.28289629  0.90052704  0.66995288  1
  O  O325  1  0.45547602  0.01692821  0.64974220  1
  O  O326  1  0.95376985  0.01875519  0.67018170  1
  O  O327  1  0.78323632  0.89328092  0.65025829  1
  O  O328  1  0.61190617  0.88551922  0.68652332  1
  O  O329  1  0.12639724  0.03829845  0.63578492  1
  O  O330  1  0.62937380  0.03982641  0.68282049  1
  O  O331  1  0.11335757  0.88128599  0.63505420  1
  O  O332  1  0.24884752  0.34251843  0.63142043  1
  O  O333  1  0.48291653  0.57467858  0.68504040  1
  O  O334  1  0.98648181  0.57011582  0.63482408  1
  O  O335  1  0.75198043  0.34458604  0.68400707  1
  O  O336  1  0.58520446  0.31386503  0.64711051  1
  O  O337  1  0.14452517  0.60248620  0.67215486  1
  O  O338  1  0.64876016  0.60083239  0.64753152  1
  O  O339  1  0.08922483  0.31762360  0.67139091  1
  O  O340  1  0.57373458  0.20851702  0.60137946  1
  O  O341  1  0.16134923  0.20479629  0.62853390  1
  O  O342  1  0.65957745  0.70687593  0.60249946  1
  O  O343  1  0.07195349  0.70736209  0.62726620  1
  O  O344  1  0.91892011  0.90623224  0.71639300  1
  O  O345  1  0.81257156  0.51266204  0.69415171  1
  O  O346  1  0.30977837  0.01179360  0.71626067  1
  O  O347  1  0.42255852  0.40524724  0.69334469  1
  O  O348  1  0.28463913  0.39868840  0.75969676  1
  O  O349  1  0.45369306  0.51531413  0.74017323  1
  O  O350  1  0.95372046  0.51532608  0.75982428  1
  O  O351  1  0.78460866  0.39869164  0.74029448  1
  O  O352  1  0.61714125  0.37881881  0.77539505  1
  O  O353  1  0.11946045  0.53768917  0.72499762  1
  O  O354  1  0.61946620  0.53770169  0.77499068  1
  O  O355  1  0.11711159  0.37881186  0.72460596  1
  O  O356  1  0.25026058  0.84320868  0.72471871  1
  O  O357  1  0.48278691  0.07286928  0.77406111  1
  O  O358  1  0.98277651  0.07288854  0.72593954  1
  O  O359  1  0.75023545  0.84320356  0.77528577  1
  O  O360  1  0.58822530  0.81449479  0.73789841  1
  O  O361  1  0.14266049  0.10619832  0.76221213  1
  O  O362  1  0.64266453  0.10618829  0.73778635  1
  O  O363  1  0.08819981  0.81449839  0.76210250  1
  O  O364  1  0.57347392  0.71031839  0.69173615  1
  O  O365  1  0.16086738  0.70742476  0.71771141  1
  O  O366  1  0.66427591  0.20709957  0.69144702  1
  O  O367  1  0.06716621  0.20862378  0.71618865  1
  O  O368  1  0.92256209  0.40523981  0.80664557  1
  O  O369  1  0.80976244  0.01179704  0.78374341  1
  O  O370  1  0.31255150  0.51266246  0.80584446  1
  O  O371  1  0.41886555  0.90623494  0.78360771  1
  O  O372  1  0.28323276  0.89328352  0.84973529  1
  O  O373  1  0.45376105  0.01872303  0.82982051  1
  O  O374  1  0.95547727  0.01694815  0.85026182  1
  O  O375  1  0.78289388  0.90047371  0.83004511  1
  O  O376  1  0.61337108  0.88125071  0.86495035  1
  O  O377  1  0.12933922  0.03987647  0.81718608  1
  O  O378  1  0.62643881  0.03825838  0.86421064  1
  O  O379  1  0.11184094  0.88557164  0.81347289  1
  O  O380  1  0.25194876  0.34461651  0.81598061  1
  O  O381  1  0.48653219  0.57009668  0.86518127  1
  O  O382  1  0.98288150  0.57471577  0.81496164  1
  O  O383  1  0.74884978  0.34251529  0.86857354  1
  O  O384  1  0.58922129  0.31760878  0.82860458  1
  O  O385  1  0.14880244  0.60082504  0.85246686  1
  O  O386  1  0.64453070  0.60246574  0.82784172  1
  O  O387  1  0.08522636  0.31386311  0.85288333  1
  O  O388  1  0.56715002  0.20863182  0.78380642  1
  O  O389  1  0.16431038  0.20710340  0.80854883  1
  O  O390  1  0.66081794  0.70743457  0.78228668  1
  O  O391  1  0.07352525  0.71032544  0.80826273  1
  O  O392  1  0.92350217  0.90526716  0.89571639  1
  O  O393  1  0.81709928  0.51047405  0.87341313  1
  O  O394  1  0.30349569  0.01061955  0.89277707  1
  O  O395  1  0.41581840  0.40427307  0.87407653  1
  O  O396  1  0.32039287  0.38502307  0.93518439  1
  O  O397  1  0.46313535  0.50955120  0.92023397  1
  O  O398  1  0.00101158  0.50433766  0.94477957  1
  O  O399  1  0.79047219  0.42240625  0.92308298  1
  O  O400  1  0.64843271  0.34666981  0.94691640  1
  O  O401  1  0.11980509  0.53772623  0.90537081  1
  O  O402  1  0.60678775  0.50786510  0.96295564  1
  O  O403  1  0.11398534  0.38089597  0.90526439  1
  O  O404  1  0.25068750  0.84016124  0.90703650  1
  O  O405  1  0.58442953  0.00209754  0.95477266  1
  O  O406  1  0.98173728  0.07576161  0.90707394  1
  O  O407  1  0.74617284  0.79991076  0.96442744  1
  O  O408  1  0.59632948  0.81796584  0.91675181  1
  O  O409  1  0.19736921  0.08015699  0.94141999  1
  O  O410  1  0.63467044  0.10070308  0.91670810  1
  O  O411  1  0.05259739  0.82125025  0.94260453  1
  O  O412  1  0.57198425  0.70734123  0.87273071  1
  O  O413  1  0.15959317  0.70687151  0.89749531  1
  O  O414  1  0.66136678  0.20479215  0.87147050  1
  O  O415  1  0.07374738  0.20850619  0.89861371  1
  O  O416  1  0.95514855  0.41366027  0.99264417  1
  O  O417  1  0.83989713  0.01965485  0.96057579  1
  O  O418  1  0.31238271  0.40794366  0.99347703  1
  O  O419  1  0.41084661  0.87179078  0.96126294  1
  O  O420  1  0.50886654  0.18822594  0.96315839  1
  O  O421  1  0.18529455  0.08511086  0.99818154  1
  O  O422  1  0.65792175  0.67222150  0.94963910  1
  O  O423  1  0.03026210  0.74868521  0.99697587  1
