# generated using pymatgen
data_Na15Zr12Si10P5O64
_symmetry_space_group_name_H-M   'P 1'
_cell_length_a   9.27295600
_cell_length_b   15.80284349
_cell_length_c   51.08155071
_cell_angle_alpha   90.00000000
_cell_angle_beta   90.00000000
_cell_angle_gamma   56.43985526
_symmetry_Int_Tables_number   1
_chemical_formula_structural   Na15Zr12Si10P5O64
_chemical_formula_sum   'Na60 Zr48 Si40 P20 O256'
_cell_volume   6237.66446962
_cell_formula_units_Z   4
loop_
 _symmetry_equiv_pos_site_id
 _symmetry_equiv_pos_as_xyz
  1  'x, y, z'
loop_
 _atom_site_type_symbol
 _atom_site_label
 _atom_site_symmetry_multiplicity
 _atom_site_fract_x
 _atom_site_fract_y
 _atom_site_fract_z
 _atom_site_occupancy
  Na  Na0  1  0.35287766  0.02868865  0.09439202  1
  Na  Na1  1  0.45179957  0.58953865  0.03098429  1
  Na  Na2  1  0.00103616  0.66525002  0.09456168  1
  Na  Na3  1  0.88132740  0.05464026  0.03724327  1
  Na  Na4  1  0.69200305  0.34874877  0.05604872  1
  Na  Na5  1  0.19880795  0.34129963  0.09300527  1
  Na  Na6  1  0.35176842  0.53197691  0.18363755  1
  Na  Na7  1  0.52591640  0.17008067  0.13882828  1
  Na  Na8  1  0.02249257  0.16646448  0.18179981  1
  Na  Na9  1  0.84169570  0.53090943  0.13941088  1
  Na  Na10  1  0.67216923  0.85131513  0.14047842  1
  Na  Na11  1  0.18412031  0.84636400  0.17926942  1
  Na  Na12  1  0.35178082  0.03064015  0.27349744  1
  Na  Na13  1  0.51915252  0.66932619  0.22768849  1
  Na  Na14  1  0.01918214  0.66932172  0.27231820  1
  Na  Na15  1  0.85176546  0.03061794  0.22650157  1
  Na  Na16  1  0.68508563  0.34770631  0.23094670  1
  Na  Na17  1  0.18513490  0.34767584  0.26905266  1
  Na  Na18  1  0.34170068  0.53091236  0.36059406  1
  Na  Na19  1  0.52257495  0.16647460  0.31820463  1
  Na  Na20  1  0.02596696  0.17008145  0.36117251  1
  Na  Na21  1  0.85182779  0.53197735  0.31635896  1
  Na  Na22  1  0.68410488  0.84636947  0.32072967  1
  Na  Na23  1  0.17220952  0.85127642  0.35951796  1
  Na  Na24  1  0.38133320  0.05466269  0.46276442  1
  Na  Na25  1  0.50104185  0.66524116  0.40544522  1
  Na  Na26  1  0.95180287  0.58956976  0.46901434  1
  Na  Na27  1  0.85299296  0.02867030  0.40558613  1
  Na  Na28  1  0.69887030  0.34128396  0.40699167  1
  Na  Na29  1  0.19202031  0.34874544  0.44395119  1
  Na  Na30  1  0.24682851  0.39617759  0.59438070  1
  Na  Na31  1  0.14844008  0.83483541  0.53095344  1
  Na  Na32  1  0.59831656  0.75960710  0.59446256  1
  Na  Na33  1  0.71842419  0.37055077  0.53739402  1
  Na  Na34  1  0.90877724  0.07607312  0.55610866  1
  Na  Na35  1  0.40131840  0.08374953  0.59298394  1
  Na  Na36  1  0.24823493  0.89306551  0.68367793  1
  Na  Na37  1  0.07455949  0.25508712  0.63886701  1
  Na  Na38  1  0.57665568  0.25829960  0.68166967  1
  Na  Na39  1  0.75811229  0.89381475  0.63937183  1
  Na  Na40  1  0.92767541  0.57361493  0.64046278  1
  Na  Na41  1  0.41500475  0.57891458  0.67924304  1
  Na  Na42  1  0.24755506  0.39409852  0.77359131  1
  Na  Na43  1  0.08100892  0.75572710  0.72771061  1
  Na  Na44  1  0.58101741  0.75572078  0.77229133  1
  Na  Na45  1  0.74757966  0.39409031  0.72640926  1
  Na  Na46  1  0.91478415  0.07740273  0.73090487  1
  Na  Na47  1  0.41477343  0.07740214  0.76909234  1
  Na  Na48  1  0.25808773  0.89380599  0.86062608  1
  Na  Na49  1  0.07663480  0.25828973  0.81832895  1
  Na  Na50  1  0.57450116  0.25508139  0.86113155  1
  Na  Na51  1  0.74825144  0.89304999  0.81632405  1
  Na  Na52  1  0.91498832  0.57891905  0.82075632  1
  Na  Na53  1  0.42769727  0.57359830  0.85953910  1
  Na  Na54  1  0.21844796  0.37055986  0.96260855  1
  Na  Na55  1  0.09831839  0.75959449  0.90553949  1
  Na  Na56  1  0.64845476  0.83479458  0.96904012  1
  Na  Na57  1  0.74680825  0.39617750  0.90562211  1
  Na  Na58  1  0.90130520  0.08376340  0.90700899  1
  Na  Na59  1  0.40880035  0.07605351  0.94389526  1
  Zr  Zr60  1  0.90833900  0.44165897  0.02839405  1
  Zr  Zr61  1  0.03391986  0.73805224  0.02945702  1
  Zr  Zr62  1  0.47069168  0.26324322  0.02769068  1
  Zr  Zr63  1  0.30840155  0.97680584  0.02899699  1
  Zr  Zr64  1  0.86373336  0.95155168  0.11639641  1
  Zr  Zr65  1  0.99143676  0.24732814  0.11475105  1
  Zr  Zr66  1  0.48569886  0.74622183  0.11503750  1
  Zr  Zr67  1  0.37654145  0.45081154  0.11506680  1
  Zr  Zr68  1  0.87440783  0.45049146  0.20603148  1
  Zr  Zr69  1  0.98749520  0.74807529  0.20405660  1
  Zr  Zr70  1  0.49032663  0.24746523  0.20620620  1
  Zr  Zr71  1  0.37124906  0.94950104  0.20452592  1
  Zr  Zr72  1  0.87126093  0.94949654  0.29547525  1
  Zr  Zr73  1  0.99032568  0.24746759  0.29379020  1
  Zr  Zr74  1  0.48747835  0.74808607  0.29594644  1
  Zr  Zr75  1  0.37442170  0.45047952  0.29397183  1
  Zr  Zr76  1  0.87658563  0.45078285  0.38493384  1
  Zr  Zr77  1  0.98565641  0.74620055  0.38496706  1
  Zr  Zr78  1  0.49146679  0.24730544  0.38524764  1
  Zr  Zr79  1  0.36375380  0.95150644  0.38360780  1
  Zr  Zr80  1  0.80833402  0.97685578  0.47099703  1
  Zr  Zr81  1  0.97070345  0.26324261  0.47230436  1
  Zr  Zr82  1  0.53390328  0.73807145  0.47054649  1
  Zr  Zr83  1  0.40831434  0.44168560  0.47160543  1
  Zr  Zr84  1  0.69226740  0.98334181  0.52839765  1
  Zr  Zr85  1  0.56608302  0.68715989  0.52941841  1
  Zr  Zr86  1  0.12885639  0.16251899  0.52776204  1
  Zr  Zr87  1  0.29161843  0.44833416  0.52897712  1
  Zr  Zr88  1  0.73578856  0.47349309  0.61642273  1
  Zr  Zr89  1  0.60897125  0.17734307  0.61477742  1
  Zr  Zr90  1  0.11414130  0.67869614  0.61508879  1
  Zr  Zr91  1  0.22342558  0.97430168  0.61507109  1
  Zr  Zr92  1  0.72588349  0.97432707  0.70603090  1
  Zr  Zr93  1  0.61234357  0.67690317  0.70407570  1
  Zr  Zr94  1  0.10981927  0.17757251  0.70620400  1
  Zr  Zr95  1  0.22862103  0.47539567  0.70457452  1
  Zr  Zr96  1  0.72861505  0.47538473  0.79542329  1
  Zr  Zr97  1  0.60978841  0.17759273  0.79379575  1
  Zr  Zr98  1  0.11232332  0.67691247  0.79592420  1
  Zr  Zr99  1  0.22588162  0.97432713  0.79396853  1
  Zr  Zr100  1  0.72340699  0.97429210  0.88493099  1
  Zr  Zr101  1  0.61413227  0.67869593  0.88490988  1
  Zr  Zr102  1  0.10898125  0.17734190  0.88522122  1
  Zr  Zr103  1  0.23578786  0.47347893  0.88357804  1
  Zr  Zr104  1  0.79161675  0.44834338  0.97102409  1
  Zr  Zr105  1  0.62892006  0.16249769  0.97224037  1
  Zr  Zr106  1  0.06606995  0.68716903  0.97058270  1
  Zr  Zr107  1  0.19226253  0.98334380  0.97160076  1
  Si  Si108  1  0.20953224  0.49651320  0.05240910  1
  Si  Si109  1  0.67166948  0.20731369  0.09037139  1
  Si  Si110  1  0.16186113  0.21955838  0.05087623  1
  Si  Si111  1  0.69618507  0.49161076  0.09044887  1
  Si  Si112  1  0.18882249  0.98901208  0.13977506  1
  Si  Si113  1  0.66662572  0.70916142  0.17991663  1
  Si  Si114  1  0.16348703  0.71000833  0.14001192  1
  Si  Si115  1  0.69109547  0.98975946  0.18051753  1
  Si  Si116  1  0.19498073  0.49006543  0.22990522  1
  Si  Si117  1  0.66906464  0.20795761  0.27022569  1
  Si  Si118  1  0.16905024  0.20795753  0.22977429  1
  Si  Si119  1  0.69497188  0.49006151  0.27009847  1
  Si  Si120  1  0.19110148  0.98976160  0.31948205  1
  Si  Si121  1  0.66343869  0.70997777  0.35998544  1
  Si  Si122  1  0.16663123  0.70915993  0.32009023  1
  Si  Si123  1  0.68885435  0.98899000  0.36023050  1
  Si  Si124  1  0.19618853  0.49159581  0.40955477  1
  Si  Si125  1  0.66185952  0.21958366  0.44911269  1
  Si  Si126  1  0.17172081  0.20728045  0.40962318  1
  Si  Si127  1  0.70954076  0.49652481  0.44759326  1
  Si  Si128  1  0.39049938  0.92894427  0.55241624  1
  Si  Si129  1  0.92847898  0.21771973  0.59045706  1
  Si  Si130  1  0.43869642  0.20548513  0.55090042  1
  Si  Si131  1  0.90407388  0.93322294  0.59043678  1
  Si  Si132  1  0.41058974  0.43587149  0.63974362  1
  Si  Si133  1  0.93330823  0.71568075  0.67995226  1
  Si  Si134  1  0.43598163  0.71508530  0.63999852  1
  Si  Si135  1  0.90827877  0.43547083  0.68055615  1
  Si  Si136  1  0.40516017  0.93486558  0.72988895  1
  Si  Si137  1  0.93111504  0.21689226  0.77022681  1
  Si  Si138  1  0.43114635  0.21690752  0.72976756  1
  Si  Si139  1  0.90512923  0.93488738  0.77011117  1
  Si  Si140  1  0.40827680  0.43547206  0.81944486  1
  Si  Si141  1  0.93600495  0.71507159  0.86000619  1
  Si  Si142  1  0.43330974  0.71567102  0.82004292  1
  Si  Si143  1  0.91058083  0.43586428  0.86025196  1
  Si  Si144  1  0.40404215  0.93322646  0.90956132  1
  Si  Si145  1  0.93874909  0.20546973  0.94909840  1
  Si  Si146  1  0.42847151  0.21771157  0.90955093  1
  Si  Si147  1  0.89049705  0.92893743  0.94758450  1
  P  P148  1  0.67600796  0.85005701  0.07609476  1
  P  P149  1  0.17268207  0.85898758  0.06574725  1
  P  P150  1  0.68324157  0.34892829  0.16788942  1
  P  P151  1  0.18369170  0.34849242  0.15329602  1
  P  P152  1  0.67927434  0.84871916  0.25734004  1
  P  P153  1  0.17927254  0.84872143  0.24266231  1
  P  P154  1  0.68370264  0.34848559  0.34670086  1
  P  P155  1  0.18324062  0.34890707  0.33210692  1
  P  P156  1  0.67270101  0.85897148  0.43425790  1
  P  P157  1  0.17597038  0.85003707  0.42390919  1
  P  P158  1  0.92385870  0.57491552  0.57605081  1
  P  P159  1  0.42728814  0.56617148  0.56578037  1
  P  P160  1  0.91721771  0.07601664  0.66791368  1
  P  P161  1  0.41673084  0.07630803  0.65331892  1
  P  P162  1  0.92076479  0.57618379  0.75739168  1
  P  P163  1  0.42078074  0.57618514  0.74261021  1
  P  P164  1  0.91671373  0.07632768  0.84668383  1
  P  P165  1  0.41722663  0.07600827  0.83208525  1
  P  P166  1  0.92730770  0.56616097  0.93422072  1
  P  P167  1  0.42385747  0.57491535  0.92394895  1
  O  O168  1  0.39619857  0.41003727  0.03937521  1
  O  O169  1  0.96559205  0.30133427  0.04015027  1
  O  O170  1  0.01040147  0.89843264  0.08232715  1
  O  O171  1  0.84670749  0.79418282  0.05997397  1
  O  O172  1  0.34059565  0.77715752  0.07915695  1
  O  O173  1  0.51852181  0.90548946  0.05747121  1
  O  O174  1  0.14603404  0.81791004  0.03955495  1
  O  O175  1  0.17848707  0.95271122  0.05857986  1
  O  O176  1  0.04252104  0.50115741  0.03974354  1
  O  O177  1  0.88389826  0.75486890  0.00012320  1
  O  O178  1  0.26689854  0.27491917  0.04534965  1
  O  O179  1  0.41185357  0.91342878  0.99485044  1
  O  O180  1  0.71409835  0.49763100  0.05866425  1
  O  O181  1  0.16254167  0.20190375  0.08260800  1
  O  O182  1  0.65446161  0.20997085  0.05807449  1
  O  O183  1  0.20635716  0.48325062  0.08430273  1
  O  O184  1  0.00866140  0.39570816  0.99214445  1
  O  O185  1  0.17889654  0.60934815  0.04932657  1
  O  O186  1  0.64738585  0.12614817  0.01044426  1
  O  O187  1  0.26640410  0.11107199  0.03585836  1
  O  O188  1  0.36813910  0.90265225  0.12472733  1
  O  O189  1  0.49124741  0.29537731  0.10484512  1
  O  O190  1  0.97526052  0.79656874  0.12733367  1
  O  O191  1  0.88040837  0.39953540  0.10360828  1
  O  O192  1  0.01790032  0.40423420  0.17017263  1
  O  O193  1  0.84766960  0.29317485  0.15062321  1
  O  O194  1  0.34859885  0.29071109  0.17035063  1
  O  O195  1  0.51731307  0.40744649  0.15097690  1
  O  O196  1  0.67059131  0.92962185  0.09483262  1
  O  O197  1  0.18509582  0.26876666  0.13517345  1
  O  O198  1  0.67350794  0.76954992  0.09329104  1
  O  O199  1  0.18413094  0.42909229  0.13606127  1
  O  O200  1  0.03712165  0.96693667  0.13526128  1
  O  O201  1  0.82113491  0.23114994  0.09572261  1
  O  O202  1  0.30766660  0.73771726  0.13466337  1
  O  O203  1  0.54842339  0.46474296  0.09512202  1
  O  O204  1  0.69956334  0.99442848  0.14834375  1
  O  O205  1  0.15312348  0.70461813  0.17222568  1
  O  O206  1  0.64499182  0.71051198  0.14786272  1
  O  O207  1  0.21291542  0.98846414  0.17185327  1
  O  O208  1  0.72283486  0.09859686  0.10257764  1
  O  O209  1  0.13404353  0.10053757  0.12871187  1
  O  O210  1  0.64178317  0.59654505  0.10531122  1
  O  O211  1  0.22492049  0.59922205  0.12753793  1
  O  O212  1  0.37923389  0.40201872  0.21639006  1
  O  O213  1  0.48533618  0.79425279  0.19463861  1
  O  O214  1  0.98509888  0.29629321  0.21632249  1
  O  O215  1  0.87705976  0.90224962  0.19369079  1
  O  O216  1  0.01238456  0.90630554  0.25932156  1
  O  O217  1  0.84373103  0.79209748  0.24012061  1
  O  O218  1  0.34373501  0.79212722  0.25988254  1
  O  O219  1  0.51239049  0.90631629  0.24067893  1
  O  O220  1  0.68184208  0.42863856  0.18587343  1
  O  O221  1  0.18130120  0.76834497  0.22485285  1
  O  O222  1  0.68444856  0.26774162  0.18520892  1
  O  O223  1  0.17874458  0.92899953  0.22492165  1
  O  O224  1  0.04860905  0.46392928  0.22486807  1
  O  O225  1  0.81415228  0.73429355  0.18510310  1
  O  O226  1  0.31573286  0.23403895  0.22488150  1
  O  O227  1  0.54660058  0.96280287  0.18618391  1
  O  O228  1  0.71047582  0.49382786  0.23798821  1
  O  O229  1  0.15464214  0.20432033  0.26189419  1
  O  O230  1  0.65463190  0.20431193  0.23810519  1
  O  O231  1  0.21046346  0.49382846  0.26201434  1
  O  O232  1  0.72829684  0.59697959  0.19140379  1
  O  O233  1  0.13631080  0.60029508  0.21767003  1
  O  O234  1  0.63564006  0.09991000  0.19256678  1
  O  O235  1  0.22501190  0.09846531  0.21726909  1
  O  O236  1  0.37708150  0.90225811  0.30630981  1
  O  O237  1  0.48510990  0.29628786  0.28368034  1
  O  O238  1  0.98535224  0.79423566  0.30536240  1
  O  O239  1  0.87922400  0.40202205  0.28361157  1
  O  O240  1  0.01727738  0.40741860  0.34901080  1
  O  O241  1  0.84860643  0.29068576  0.32964692  1
  O  O242  1  0.34765403  0.29314441  0.34937626  1
  O  O243  1  0.51789950  0.40425380  0.32982551  1
  O  O244  1  0.67878072  0.92900208  0.27507504  1
  O  O245  1  0.18445345  0.26773043  0.31478416  1
  O  O246  1  0.68127522  0.76835749  0.27515272  1
  O  O247  1  0.18187032  0.42862816  0.31413144  1
  O  O248  1  0.04666155  0.96277077  0.31381262  1
  O  O249  1  0.81573253  0.23405563  0.27510800  1
  O  O250  1  0.31418142  0.73427988  0.31490891  1
  O  O251  1  0.54861765  0.46390609  0.27512834  1
  O  O252  1  0.71293750  0.98843019  0.32814992  1
  O  O253  1  0.14492581  0.71050281  0.35214443  1
  O  O254  1  0.65314069  0.70459480  0.32777122  1
  O  O255  1  0.19957491  0.99443507  0.35165531  1
  O  O256  1  0.72504809  0.09846267  0.28273021  1
  O  O257  1  0.13562488  0.09991263  0.30742605  1
  O  O258  1  0.63627892  0.60029376  0.28233337  1
  O  O259  1  0.22834618  0.59696589  0.30860515  1
  O  O260  1  0.38040017  0.39951518  0.39640198  1
  O  O261  1  0.47516005  0.79653087  0.37265456  1
  O  O262  1  0.99133958  0.29535846  0.39514450  1
  O  O263  1  0.86814446  0.90264315  0.37528137  1
  O  O264  1  0.01841124  0.90550619  0.44252268  1
  O  O265  1  0.84069785  0.77715349  0.42086543  1
  O  O266  1  0.34663404  0.79415335  0.44003930  1
  O  O267  1  0.51050241  0.89830507  0.41766750  1
  O  O268  1  0.68416919  0.42907000  0.36393793  1
  O  O269  1  0.17347969  0.76955363  0.40670739  1
  O  O270  1  0.68508728  0.26876862  0.36482550  1
  O  O271  1  0.17062332  0.92959998  0.40518041  1
  O  O272  1  0.04842266  0.46473934  0.40487788  1
  O  O273  1  0.80758858  0.73770790  0.36534916  1
  O  O274  1  0.32115189  0.23113810  0.40426925  1
  O  O275  1  0.53715022  0.96691277  0.36475063  1
  O  O276  1  0.70640511  0.48324567  0.41570040  1
  O  O277  1  0.15449644  0.20998003  0.44192095  1
  O  O278  1  0.66263037  0.20186207  0.41738185  1
  O  O279  1  0.21407482  0.49764300  0.44134139  1
  O  O280  1  0.72490941  0.59919774  0.37246346  1
  O  O281  1  0.14177136  0.59653276  0.39469158  1
  O  O282  1  0.63407767  0.10053075  0.37127941  1
  O  O283  1  0.22284264  0.09854947  0.39743348  1
  O  O284  1  0.46558913  0.30138980  0.45982631  1
  O  O285  1  0.89620072  0.41005604  0.46063027  1
  O  O286  1  0.67835864  0.95274975  0.44141877  1
  O  O287  1  0.64602095  0.81793447  0.46045373  1
  O  O288  1  0.91181665  0.91346710  0.50514844  1
  O  O289  1  0.76697206  0.27490784  0.45462503  1
  O  O290  1  0.38389165  0.75487397  0.49987974  1
  O  O291  1  0.54251882  0.50116043  0.46025277  1
  O  O292  1  0.76638867  0.11110891  0.46414688  1
  O  O293  1  0.14740157  0.12617438  0.48955320  1
  O  O294  1  0.67885869  0.60937214  0.45067370  1
  O  O295  1  0.50865807  0.39569564  0.50785132  1
  O  O296  1  0.20393804  0.01552568  0.53941186  1
  O  O297  1  0.63497327  0.12358202  0.54020263  1
  O  O298  1  0.59011171  0.52628399  0.58225547  1
  O  O299  1  0.75314563  0.63078511  0.55993181  1
  O  O300  1  0.25978266  0.64782990  0.57930968  1
  O  O301  1  0.08124993  0.51917861  0.55740204  1
  O  O302  1  0.45311537  0.60778170  0.53962996  1
  O  O303  1  0.42116109  0.47261303  0.55856924  1
  O  O304  1  0.55748563  0.92441647  0.53980540  1
  O  O305  1  0.71623956  0.67025533  0.50009108  1
  O  O306  1  0.33275201  0.15073504  0.54536066  1
  O  O307  1  0.18842295  0.51129618  0.49478929  1
  O  O308  1  0.88660349  0.92713672  0.55864586  1
  O  O309  1  0.43801108  0.22297849  0.58263621  1
  O  O310  1  0.94521264  0.21538603  0.55815006  1
  O  O311  1  0.39353481  0.94190962  0.58432377  1
  O  O312  1  0.59149000  0.02964631  0.49218018  1
  O  O313  1  0.42149418  0.81600686  0.54924435  1
  O  O314  1  0.95213254  0.29962611  0.51052392  1
  O  O315  1  0.33459670  0.31395850  0.53589811  1
  O  O316  1  0.23125792  0.52224621  0.62471421  1
  O  O317  1  0.10923562  0.12966735  0.60485529  1
  O  O318  1  0.62406606  0.62845420  0.62729842  1
  O  O319  1  0.71967021  0.02529801  0.60354605  1
  O  O320  1  0.58257278  0.02050221  0.67017713  1
  O  O321  1  0.75289696  0.13156285  0.65060917  1
  O  O322  1  0.25192175  0.13419616  0.67038085  1
  O  O323  1  0.08325070  0.01764188  0.65103321  1
  O  O324  1  0.92901965  0.49557715  0.59484739  1
  O  O325  1  0.41543723  0.15600250  0.63520157  1
  O  O326  1  0.92665242  0.65545131  0.59318030  1
  O  O327  1  0.41614385  0.99577322  0.63608583  1
  O  O328  1  0.56231598  0.45793539  0.63516126  1
  O  O329  1  0.77971672  0.19334131  0.59583911  1
  O  O330  1  0.29196659  0.68712422  0.63483434  1
  O  O331  1  0.05160467  0.96021544  0.59517107  1
  O  O332  1  0.90002791  0.43080064  0.64837805  1
  O  O333  1  0.44696896  0.72063264  0.67219726  1
  O  O334  1  0.95467632  0.71440659  0.64788804  1
  O  O335  1  0.38634997  0.43666495  0.67182068  1
  O  O336  1  0.87716058  0.32641138  0.60266678  1
  O  O337  1  0.46554767  0.32431482  0.62870297  1
  O  O338  1  0.95829940  0.82832963  0.60531149  1
  O  O339  1  0.37438379  0.82570542  0.62739939  1
  O  O340  1  0.22104579  0.02285966  0.71632052  1
  O  O341  1  0.11449075  0.63064439  0.69468504  1
  O  O342  1  0.61498187  0.12863189  0.71628132  1
  O  O343  1  0.72214699  0.52283553  0.69368673  1
  O  O344  1  0.58790981  0.51864629  0.75922910  1
  O  O345  1  0.75655856  0.63253703  0.74011478  1
  O  O346  1  0.25656587  0.63255818  0.75988678  1
  O  O347  1  0.08788359  0.51867328  0.74076971  1
  O  O348  1  0.91856226  0.99624231  0.68586605  1
  O  O349  1  0.41819049  0.65676117  0.72481380  1
  O  O350  1  0.91543412  0.15733745  0.68524798  1
  O  O351  1  0.42144821  0.49587392  0.72486619  1
  O  O352  1  0.55161437  0.96093075  0.72486149  1
  O  O353  1  0.78577023  0.69061109  0.68516112  1
  O  O354  1  0.28450002  0.19078904  0.72491604  1
  O  O355  1  0.05269146  0.46239337  0.68632764  1
  O  O356  1  0.88960075  0.93124634  0.73799581  1
  O  O357  1  0.44575417  0.22066751  0.76187336  1
  O  O358  1  0.94574179  0.22064859  0.73812312  1
  O  O359  1  0.38959914  0.93122745  0.76200412  1
  O  O360  1  0.87176298  0.82791459  0.69139650  1
  O  O361  1  0.46379644  0.82458533  0.71771119  1
  O  O362  1  0.96414861  0.32516612  0.69257032  1
  O  O363  1  0.37509366  0.32636755  0.71723650  1
  O  O364  1  0.22215930  0.52283995  0.80631112  1
  O  O365  1  0.11495754  0.12861756  0.78371398  1
  O  O366  1  0.61448696  0.63064052  0.80531079  1
  O  O367  1  0.72101167  0.02286135  0.78368037  1
  O  O368  1  0.58324063  0.01762802  0.84896940  1
  O  O369  1  0.75191779  0.13420987  0.82961480  1
  O  O370  1  0.25290351  0.13153212  0.84938782  1
  O  O371  1  0.08255085  0.02052762  0.82982570  1
  O  O372  1  0.92147797  0.49584777  0.77513205  1
  O  O373  1  0.41548920  0.15733091  0.81475821  1
  O  O374  1  0.91812341  0.65677196  0.77519264  1
  O  O375  1  0.41857724  0.99625248  0.81412408  1
  O  O376  1  0.55268193  0.46240414  0.81367534  1
  O  O377  1  0.78443701  0.19079383  0.77507545  1
  O  O378  1  0.28576883  0.69060166  0.81483571  1
  O  O379  1  0.05159495  0.96093724  0.77514459  1
  O  O380  1  0.88634194  0.43664912  0.82817411  1
  O  O381  1  0.45469888  0.71439110  0.85210726  1
  O  O382  1  0.94698083  0.72064116  0.82780328  1
  O  O383  1  0.40001838  0.43080170  0.85162249  1
  O  O384  1  0.87503981  0.32635676  0.78275760  1
  O  O385  1  0.46411447  0.32517447  0.80743342  1
  O  O386  1  0.96377670  0.82458969  0.78228418  1
  O  O387  1  0.37175651  0.82790424  0.80859776  1
  O  O388  1  0.21963046  0.02529779  0.89645708  1
  O  O389  1  0.12409969  0.62843033  0.87269591  1
  O  O390  1  0.60921559  0.12965830  0.89514444  1
  O  O391  1  0.73125003  0.52223741  0.87528088  1
  O  O392  1  0.58124388  0.51918806  0.94260066  1
  O  O393  1  0.75979761  0.64780637  0.92069024  1
  O  O394  1  0.25315737  0.63078476  0.94006909  1
  O  O395  1  0.09012868  0.52626833  0.91774576  1
  O  O396  1  0.91608709  0.99580808  0.86391796  1
  O  O397  1  0.42664666  0.65545975  0.90682054  1
  O  O398  1  0.91541879  0.15603279  0.86479547  1
  O  O399  1  0.42901091  0.49558875  0.90515040  1
  O  O400  1  0.55154083  0.96024121  0.90482828  1
  O  O401  1  0.79200215  0.68710638  0.86516825  1
  O  O402  1  0.27972080  0.19332594  0.90416599  1
  O  O403  1  0.06230867  0.45792131  0.86483835  1
  O  O404  1  0.89351703  0.94191571  0.91567781  1
  O  O405  1  0.44524429  0.21537204  0.94185633  1
  O  O406  1  0.93802865  0.22297542  0.91736195  1
  O  O407  1  0.38657568  0.92713439  0.94135012  1
  O  O408  1  0.87439891  0.82569344  0.87260379  1
  O  O409  1  0.45826969  0.82833500  0.89468836  1
  O  O410  1  0.96559679  0.32429513  0.87129191  1
  O  O411  1  0.37713115  0.32640874  0.89734131  1
  O  O412  1  0.13500796  0.12358011  0.95979943  1
  O  O413  1  0.70393682  0.01552350  0.96058839  1
  O  O414  1  0.92120137  0.47259426  0.94143138  1
  O  O415  1  0.95309142  0.60779588  0.96037012  1
  O  O416  1  0.68843588  0.51130634  0.00521277  1
  O  O417  1  0.83284995  0.15070388  0.95464650  1
  O  O418  1  0.21623502  0.67028522  0.99990658  1
  O  O419  1  0.05747963  0.92441916  0.96019361  1
  O  O420  1  0.83468318  0.31394488  0.96410262  1
  O  O421  1  0.45219364  0.29962381  0.98947751  1
  O  O422  1  0.92147645  0.81600920  0.95075596  1
  O  O423  1  0.09153752  0.02959757  0.00782131  1
