# generated using pymatgen
data_Na3Zr2Si2PO12
_symmetry_space_group_name_H-M   'P 1'
_cell_length_a   9.27295600
_cell_length_b   15.80284349
_cell_length_c   27.63032516
_cell_angle_alpha   90.00000000
_cell_angle_beta   90.00000000
_cell_angle_gamma   56.43985526
_symmetry_Int_Tables_number   1
_chemical_formula_structural   Na3Zr2Si2PO12
_chemical_formula_sum   'Na36 Zr24 Si24 P12 O144'
_cell_volume   3373.99110205
_cell_formula_units_Z   12
loop_
 _symmetry_equiv_pos_site_id
 _symmetry_equiv_pos_as_xyz
  1  'x, y, z'
loop_
 _atom_site_type_symbol
 _atom_site_label
 _atom_site_symmetry_multiplicity
 _atom_site_fract_x
 _atom_site_fract_y
 _atom_site_fract_z
 _atom_site_occupancy
  Na  Na0  1  0.28639449  0.93792500  0.02296957  1
  Na  Na1  1  0.77957278  0.59419211  0.96487189  1
  Na  Na2  1  0.79607938  0.28337035  0.96936308  1
  Na  Na3  1  0.21665876  0.50080316  0.19586072  1
  Na  Na4  1  0.40583258  0.12457821  0.09948554  1
  Na  Na5  1  0.93630599  0.14195675  0.21591085  1
  Na  Na6  1  0.72819349  0.50993717  0.13825114  1
  Na  Na7  1  0.67888114  0.80071832  0.13120543  1
  Na  Na8  1  0.12460494  0.83071452  0.20261404  1
  Na  Na9  1  0.22820201  0.00991968  0.36174413  1
  Na  Na10  1  0.43631210  0.64196877  0.28407873  1
  Na  Na11  1  0.90581297  0.62459655  0.40051705  1
  Na  Na12  1  0.71670440  0.00078824  0.30413510  1
  Na  Na13  1  0.62457002  0.33072230  0.29738832  1
  Na  Na14  1  0.17885282  0.30072209  0.36880496  1
  Na  Na15  1  0.27954531  0.09419649  0.53512621  1
  Na  Na16  1  0.78641601  0.43793029  0.47702317  1
  Na  Na17  1  0.29603308  0.78338621  0.53064148  1
  Na  Na18  1  0.08875684  0.51193396  0.52312678  1
  Na  Na19  1  0.59526084  0.85598016  0.46488141  1
  Na  Na20  1  0.57962182  0.16648099  0.46945140  1
  Na  Na21  1  0.15719360  0.94914896  0.69610980  1
  Na  Na22  1  0.96860301  0.32517147  0.59961803  1
  Na  Na23  1  0.43858795  0.30797523  0.71600620  1
  Na  Na24  1  0.64499473  0.94021046  0.63816085  1
  Na  Na25  1  0.69782939  0.64839381  0.63125934  1
  Na  Na26  1  0.24971866  0.61946462  0.70259111  1
  Na  Na27  1  0.14505495  0.44019866  0.86183636  1
  Na  Na28  1  0.93857014  0.80797323  0.78400049  1
  Na  Na29  1  0.46861414  0.82516174  0.90038266  1
  Na  Na30  1  0.65722283  0.44914005  0.80389123  1
  Na  Na31  1  0.74972552  0.11947074  0.79740748  1
  Na  Na32  1  0.19781059  0.14840621  0.86874477  1
  Na  Na33  1  0.09523015  0.35601645  0.03512273  1
  Na  Na34  1  0.58874442  0.01192698  0.97687294  1
  Na  Na35  1  0.07964918  0.66648265  0.03054744  1
  Zr  Zr36  1  0.81809167  0.93291417  0.08934681  1
  Zr  Zr37  1  0.92844002  0.23154674  0.08534192  1
  Zr  Zr38  1  0.43357254  0.73116364  0.08569136  1
  Zr  Zr39  1  0.33001874  0.42884876  0.07987628  1
  Zr  Zr40  1  0.82048475  0.43046141  0.25178470  1
  Zr  Zr41  1  0.93581400  0.72658619  0.25092330  1
  Zr  Zr42  1  0.43582476  0.22658941  0.24906988  1
  Zr  Zr43  1  0.32050280  0.93046639  0.24821692  1
  Zr  Zr44  1  0.82997039  0.92885219  0.42011961  1
  Zr  Zr45  1  0.93355899  0.23115052  0.41430458  1
  Zr  Zr46  1  0.42841535  0.73153843  0.41466178  1
  Zr  Zr47  1  0.31804997  0.43292107  0.41064604  1
  Zr  Zr48  1  0.55676369  0.51719898  0.58944487  1
  Zr  Zr49  1  0.44671355  0.21861129  0.58527302  1
  Zr  Zr50  1  0.94155857  0.71896522  0.58577047  1
  Zr  Zr51  1  0.04533679  0.02109218  0.57994343  1
  Zr  Zr52  1  0.55426529  0.01960263  0.75174463  1
  Zr  Zr53  1  0.43926697  0.72329655  0.75102092  1
  Zr  Zr54  1  0.93924712  0.22330557  0.74897240  1
  Zr  Zr55  1  0.05428783  0.51958658  0.74826258  1
  Zr  Zr56  1  0.54534462  0.52109238  0.92005796  1
  Zr  Zr57  1  0.44159913  0.21894194  0.91423106  1
  Zr  Zr58  1  0.94672894  0.71861435  0.91473145  1
  Zr  Zr59  1  0.05677858  0.01720575  0.91055989  1
  Si  Si60  1  0.62016112  0.18602838  0.03423081  1
  Si  Si61  1  0.64861270  0.47394865  0.04030264  1
  Si  Si62  1  0.14286159  0.97428421  0.12976242  1
  Si  Si63  1  0.61217905  0.68982778  0.20537746  1
  Si  Si64  1  0.12982355  0.68472714  0.13302471  1
  Si  Si65  1  0.63721449  0.96948128  0.20273918  1
  Si  Si66  1  0.13720768  0.46946655  0.29725838  1
  Si  Si67  1  0.62981324  0.18471561  0.36696707  1
  Si  Si68  1  0.11219777  0.18981198  0.29462128  1
  Si  Si69  1  0.64284568  0.47428444  0.37022779  1
  Si  Si70  1  0.14861279  0.97392645  0.45969402  1
  Si  Si71  1  0.12009853  0.68603657  0.46577477  1
  Si  Si72  1  0.75529427  0.26403645  0.53427028  1
  Si  Si73  1  0.72675471  0.97604144  0.54039563  1
  Si  Si74  1  0.23238039  0.47569793  0.62980845  1
  Si  Si75  1  0.76265386  0.76014151  0.70534800  1
  Si  Si76  1  0.24524108  0.76529548  0.63319280  1
  Si  Si77  1  0.73783511  0.48049555  0.70279703  1
  Si  Si78  1  0.23781317  0.98050922  0.79720566  1
  Si  Si79  1  0.74526461  0.26528288  0.86680824  1
  Si  Si80  1  0.26266515  0.26013054  0.79465320  1
  Si  Si81  1  0.73243357  0.97568848  0.87018956  1
  Si  Si82  1  0.22677958  0.47603503  0.95960494  1
  Si  Si83  1  0.25529419  0.76404024  0.96573359  1
  P  P84  1  0.66892982  0.81259196  0.01010007  1
  P  P85  1  0.62382282  0.33277849  0.18082297  1
  P  P86  1  0.12981188  0.33230910  0.15191563  1
  P  P87  1  0.62981841  0.83228878  0.34808672  1
  P  P88  1  0.12383252  0.83275805  0.31917434  1
  P  P89  1  0.16890446  0.31258935  0.48990307  1
  P  P90  1  0.70626321  0.63723093  0.51015557  1
  P  P91  1  0.75086934  0.11726037  0.68080481  1
  P  P92  1  0.24474648  0.11803855  0.65181042  1
  P  P93  1  0.74476871  0.61803599  0.84819201  1
  P  P94  1  0.25087454  0.61725140  0.81919536  1
  P  P95  1  0.20630110  0.13721874  0.98985310  1
  O  O96  1  0.43780393  0.27629671  0.05952852  1
  O  O97  1  0.81867748  0.38756822  0.07114486  1
  O  O98  1  0.83008106  0.72176105  0.98358175  1
  O  O99  1  0.52608058  0.87478690  0.97341099  1
  O  O100  1  0.72910967  0.87967279  0.03295141  1
  O  O101  1  0.61583424  0.76758931  0.05066303  1
  O  O102  1  0.76847133  0.21157814  0.04397605  1
  O  O103  1  0.50048356  0.44933402  0.04895699  1
  O  O104  1  0.69983659  0.46874119  0.98250879  1
  O  O105  1  0.59668804  0.17751885  0.97575316  1
  O  O106  1  0.68312893  0.07330126  0.05708529  1
  O  O107  1  0.59093102  0.58411759  0.06224271  1
  O  O108  1  0.32250515  0.88464370  0.10498734  1
  O  O109  1  0.42823704  0.77659945  0.23123160  1
  O  O110  1  0.95279338  0.77747618  0.10639403  1
  O  O111  1  0.82099317  0.88002777  0.22661132  1
  O  O112  1  0.96670844  0.39231983  0.18435696  1
  O  O113  1  0.78900026  0.26720120  0.14941686  1
  O  O114  1  0.29422696  0.27439977  0.18361713  1
  O  O115  1  0.46052151  0.38748110  0.14905123  1
  O  O116  1  0.63535106  0.41288177  0.20935043  1
  O  O117  1  0.12279974  0.25354324  0.11994472  1
  O  O118  1  0.62186513  0.25766207  0.21661815  1
  O  O119  1  0.13773646  0.40910621  0.11858879  1
  O  O120  1  0.99451693  0.94968042  0.11772181  1
  O  O121  1  0.76028798  0.71390688  0.21613494  1
  O  O122  1  0.27700119  0.71064522  0.12719174  1
  O  O123  1  0.49001760  0.94498078  0.21228946  1
  O  O124  1  0.64833058  0.97165641  0.14238718  1
  O  O125  1  0.09831937  0.67986567  0.19102149  1
  O  O126  1  0.59881838  0.68826107  0.14627415  1
  O  O127  1  0.15199561  0.97480218  0.18936578  1
  O  O128  1  0.66913242  0.57824895  0.22627812  1
  O  O129  1  0.08322143  0.08475961  0.10706788  1
  O  O130  1  0.58262077  0.07798229  0.22583219  1
  O  O131  1  0.18631446  0.57721010  0.10748041  1
  O  O132  1  0.32100738  0.38001449  0.27339532  1
  O  O133  1  0.45279246  0.27746682  0.39360032  1
  O  O134  1  0.92823259  0.27660645  0.26877594  1
  O  O135  1  0.82246225  0.38463230  0.39500255  1
  O  O136  1  0.96052765  0.88746063  0.35094751  1
  O  O137  1  0.79422986  0.77437847  0.31637882  1
  O  O138  1  0.28901087  0.76717941  0.35057590  1
  O  O139  1  0.46669809  0.89231749  0.31564809  1
  O  O140  1  0.63776100  0.90908638  0.38141207  1
  O  O141  1  0.12185674  0.75764755  0.28337489  1
  O  O142  1  0.62277108  0.75352128  0.38004680  1
  O  O143  1  0.13537960  0.91285250  0.29064515  1
  O  O144  1  0.98998430  0.44499172  0.28771707  1
  O  O145  1  0.77699489  0.21063217  0.37281011  1
  O  O146  1  0.26031107  0.21389054  0.28385294  1
  O  O147  1  0.49445246  0.44969961  0.38225194  1
  O  O148  1  0.65198941  0.47481947  0.31062840  1
  O  O149  1  0.09881419  0.18826058  0.35372477  1
  O  O150  1  0.59829246  0.17986232  0.30897825  1
  O  O151  1  0.14828855  0.47168394  0.35760506  1
  O  O152  1  0.68629790  0.07720238  0.39251415  1
  O  O153  1  0.08259033  0.57796016  0.27416141  1
  O  O154  1  0.58319950  0.58474481  0.39293191  1
  O  O155  1  0.16912325  0.07825229  0.27372279  1
  O  O156  1  0.31866387  0.88755772  0.42885450  1
  O  O157  1  0.93773726  0.77629771  0.44047486  1
  O  O158  1  0.02605942  0.37480966  0.52659271  1
  O  O159  1  0.33005660  0.22176688  0.51641770  1
  O  O160  1  0.11574480  0.26760599  0.44934125  1
  O  O161  1  0.22906693  0.37966671  0.46703931  1
  O  O162  1  0.00048943  0.94930861  0.45103225  1
  O  O163  1  0.26843219  0.71155902  0.45601928  1
  O  O164  1  0.09666610  0.67751711  0.52425351  1
  O  O165  1  0.19982013  0.96872296  0.51748963  1
  O  O166  1  0.09093204  0.08409478  0.43775286  1
  O  O167  1  0.18310005  0.57330787  0.44290687  1
  O  O168  1  0.93781327  0.17367367  0.55950479  1
  O  O169  1  0.55680126  0.06253560  0.57122528  1
  O  O170  1  0.54553642  0.72813149  0.48356995  1
  O  O171  1  0.84928972  0.57473671  0.47355822  1
  O  O172  1  0.64545250  0.57040520  0.53296999  1
  O  O173  1  0.75966009  0.68205811  0.55073997  1
  O  O174  1  0.60709994  0.23839782  0.54398784  1
  O  O175  1  0.87507370  0.00053816  0.54892867  1
  O  O176  1  0.67561394  0.98094005  0.48260084  1
  O  O177  1  0.77850338  0.27282474  0.47582433  1
  O  O178  1  0.69200009  0.37673326  0.55723745  1
  O  O179  1  0.78413943  0.86599676  0.56239800  1
  O  O180  1  0.05265305  0.56543414  0.60511372  1
  O  O181  1  0.94666917  0.67345580  0.73116724  1
  O  O182  1  0.42222840  0.67258004  0.60655365  1
  O  O183  1  0.55416073  0.56982974  0.72676576  1
  O  O184  1  0.40746562  0.05831015  0.68441942  1
  O  O185  1  0.58584610  0.18305052  0.64939481  1
  O  O186  1  0.07993060  0.17588284  0.68335624  1
  O  O187  1  0.91414688  0.06252676  0.64901665  1
  O  O188  1  0.73899513  0.03724530  0.70928380  1
  O  O189  1  0.25190530  0.19674748  0.61985627  1
  O  O190  1  0.75307529  0.19222160  0.71664850  1
  O  O191  1  0.23755627  0.04093231  0.61852138  1
  O  O192  1  0.38064564  0.50042420  0.61800106  1
  O  O193  1  0.61490432  0.73579651  0.71618023  1
  O  O194  1  0.09808777  0.73932194  0.62739136  1
  O  O195  1  0.88491088  0.50507941  0.71226213  1
  O  O196  1  0.72663096  0.47836876  0.64245442  1
  O  O197  1  0.27639203  0.77019212  0.69121359  1
  O  O198  1  0.77600442  0.76181543  0.64626062  1
  O  O199  1  0.22294510  0.47486583  0.68940522  1
  O  O200  1  0.70503176  0.87184920  0.72623020  1
  O  O201  1  0.29212260  0.36546873  0.60681272  1
  O  O202  1  0.79257439  0.37194704  0.72583365  1
  O  O203  1  0.18874693  0.87283435  0.60764187  1
  O  O204  1  0.05414487  0.06982902  0.77324066  1
  O  O205  1  0.92224262  0.17257625  0.89344581  1
  O  O206  1  0.44668141  0.17345410  0.76884167  1
  O  O207  1  0.55272339  0.06541386  0.89489694  1
  O  O208  1  0.41415922  0.56252198  0.85098125  1
  O  O209  1  0.57995973  0.67587314  0.81663962  1
  O  O210  1  0.08587509  0.68305230  0.85061126  1
  O  O211  1  0.90750279  0.55830205  0.81558530  1
  O  O212  1  0.73755942  0.54092793  0.88147164  1
  O  O213  1  0.25307815  0.69221392  0.78335194  1
  O  O214  1  0.75191547  0.69674238  0.88015275  1
  O  O215  1  0.23899093  0.53724023  0.79071365  1
  O  O216  1  0.38488391  0.00510111  0.78774215  1
  O  O217  1  0.59810465  0.23930701  0.87260305  1
  O  O218  1  0.11488906  0.23582738  0.78380515  1
  O  O219  1  0.88069075  0.00042210  0.88199415  1
  O  O220  1  0.72296964  0.97486863  0.81059732  1
  O  O221  1  0.27602397  0.26177967  0.85374419  1
  O  O222  1  0.77644465  0.27017456  0.80878987  1
  O  O223  1  0.22663679  0.97837037  0.85755185  1
  O  O224  1  0.68876590  0.37282589  0.89236159  1
  O  O225  1  0.29258601  0.87195065  0.77416375  1
  O  O226  1  0.79214442  0.86547372  0.89319378  1
  O  O227  1  0.20508573  0.37183731  0.77378565  1
  O  O228  1  0.05682977  0.56252643  0.92877400  1
  O  O229  1  0.43780320  0.67367052  0.94049741  1
  O  O230  1  0.34932710  0.07470586  0.02644976  1
  O  O231  1  0.04559056  0.22814388  0.01644007  1
  O  O232  1  0.25972939  0.18202632  0.94926545  1
  O  O233  1  0.14543190  0.07043176  0.96704291  1
  O  O234  1  0.37507961  0.50055116  0.95108002  1
  O  O235  1  0.10710384  0.73839555  0.95602325  1
  O  O236  1  0.27852641  0.77284293  0.02417297  1
  O  O237  1  0.17562585  0.48095123  0.01740497  1
  O  O238  1  0.28419045  0.36598834  0.93759756  1
  O  O239  1  0.19203483  0.87673560  0.94276239  1
