# generated using pymatgen
data_Na17Zr12Si10(PO13)5
_symmetry_space_group_name_H-M   'P 1'
_cell_length_a   9.27295600
_cell_length_b   15.80284349
_cell_length_c   50.91304870
_cell_angle_alpha   90.00000000
_cell_angle_beta   90.00000000
_cell_angle_gamma   56.43985526
_symmetry_Int_Tables_number   1
_chemical_formula_structural   Na17Zr12Si10(PO13)5
_chemical_formula_sum   'Na68 Zr48 Si40 P20 O260'
_cell_volume   6217.08837172
_cell_formula_units_Z   4
loop_
 _symmetry_equiv_pos_site_id
 _symmetry_equiv_pos_as_xyz
  1  'x, y, z'
loop_
 _atom_site_type_symbol
 _atom_site_label
 _atom_site_symmetry_multiplicity
 _atom_site_fract_x
 _atom_site_fract_y
 _atom_site_fract_z
 _atom_site_occupancy
  Na  Na0  1  0.62322361  0.82793308  0.04448496  1
  Na  Na1  1  0.03619531  0.28414980  0.04352114  1
  Na  Na2  1  0.67671517  0.21699028  0.03672523  1
  Na  Na3  1  0.79457309  0.52248413  0.05028718  1
  Na  Na4  1  0.17386276  0.05509004  0.00488670  1
  Na  Na5  1  0.38671310  0.18553383  0.08794559  1
  Na  Na6  1  0.63818596  0.33763402  0.13968291  1
  Na  Na7  1  0.18507188  0.88479281  0.07968283  1
  Na  Na8  1  0.98861184  0.71476064  0.13475297  1
  Na  Na9  1  0.79271329  0.01729619  0.13923170  1
  Na  Na10  1  0.32713316  0.48939103  0.09297462  1
  Na  Na11  1  0.44810802  0.70593402  0.18168981  1
  Na  Na12  1  0.61724408  0.83882909  0.22687717  1
  Na  Na13  1  0.12602537  0.34069491  0.18248061  1
  Na  Na14  1  0.94928847  0.20315662  0.22691949  1
  Na  Na15  1  0.79175399  0.51917176  0.23066147  1
  Na  Na16  1  0.27230495  0.02949368  0.18057113  1
  Na  Na17  1  0.44931478  0.20315963  0.27307922  1
  Na  Na18  1  0.62595699  0.34065716  0.31753115  1
  Na  Na19  1  0.11726910  0.83882844  0.27313156  1
  Na  Na20  1  0.94809066  0.70593808  0.31831335  1
  Na  Na21  1  0.77231944  0.02947420  0.31943194  1
  Na  Na22  1  0.29172793  0.51920075  0.26934934  1
  Na  Na23  1  0.48865932  0.71476752  0.36526401  1
  Na  Na24  1  0.68504358  0.88478574  0.42032287  1
  Na  Na25  1  0.13824900  0.33762305  0.36031392  1
  Na  Na26  1  0.88673679  0.18551547  0.41205776  1
  Na  Na27  1  0.82717136  0.48934347  0.40703249  1
  Na  Na28  1  0.29275573  0.01726996  0.36077660  1
  Na  Na29  1  0.17673729  0.21696528  0.46326831  1
  Na  Na30  1  0.53617068  0.28411726  0.45647951  1
  Na  Na31  1  0.12323336  0.82790802  0.45551648  1
  Na  Na32  1  0.67395060  0.05502597  0.49510729  1
  Na  Na33  1  0.29458421  0.52246009  0.44972178  1
  Na  Na34  1  0.15157670  0.64737807  0.54451167  1
  Na  Na35  1  0.73835327  0.19103150  0.54337551  1
  Na  Na36  1  0.09714387  0.25836397  0.53669115  1
  Na  Na37  1  0.97975128  0.95288648  0.55012756  1
  Na  Na38  1  0.59972859  0.42009387  0.50488845  1
  Na  Na39  1  0.38846738  0.28976725  0.58786418  1
  Na  Na40  1  0.13690639  0.13706615  0.63955683  1
  Na  Na41  1  0.59003021  0.59032373  0.57966516  1
  Na  Na42  1  0.78576230  0.75991271  0.63467886  1
  Na  Na43  1  0.98280476  0.45731252  0.63920339  1
  Na  Na44  1  0.44763318  0.98571495  0.59296220  1
  Na  Na45  1  0.32751534  0.76918051  0.68163419  1
  Na  Na46  1  0.15834965  0.63581894  0.72684119  1
  Na  Na47  1  0.64975304  0.13454202  0.68250465  1
  Na  Na48  1  0.82676553  0.27135008  0.72704783  1
  Na  Na49  1  0.98393390  0.95557562  0.73066973  1
  Na  Na50  1  0.50363911  0.44495923  0.68057930  1
  Na  Na51  1  0.32679909  0.27138875  0.77293503  1
  Na  Na52  1  0.14977007  0.13459131  0.81749471  1
  Na  Na53  1  0.65835634  0.63584969  0.77314785  1
  Na  Na54  1  0.82751016  0.76921600  0.81835728  1
  Na  Na55  1  0.00362205  0.44498228  0.81940862  1
  Na  Na56  1  0.48392257  0.95557246  0.76932674  1
  Na  Na57  1  0.28580775  0.75987224  0.86529370  1
  Na  Na58  1  0.09006341  0.59035606  0.92031991  1
  Na  Na59  1  0.63697592  0.13709320  0.86045065  1
  Na  Na60  1  0.88852685  0.28978402  0.91214045  1
  Na  Na61  1  0.94767332  0.98568990  0.90703143  1
  Na  Na62  1  0.48294118  0.45727869  0.86079821  1
  Na  Na63  1  0.59718453  0.25837401  0.96331846  1
  Na  Na64  1  0.23837087  0.19105400  0.95662810  1
  Na  Na65  1  0.65155887  0.64741613  0.95548388  1
  Na  Na66  1  0.09981921  0.42006532  0.99512016  1
  Na  Na67  1  0.47975578  0.95287842  0.94985594  1
  Zr  Zr68  1  0.04905207  0.62127845  0.03701970  1
  Zr  Zr69  1  0.95365228  0.86976484  0.02218456  1
  Zr  Zr70  1  0.54943485  0.44494648  0.02608013  1
  Zr  Zr71  1  0.46318440  0.12087494  0.02067635  1
  Zr  Zr72  1  0.97964530  0.12090116  0.11521836  1
  Zr  Zr73  1  0.08917796  0.41674820  0.11375654  1
  Zr  Zr74  1  0.59793351  0.91682214  0.11576207  1
  Zr  Zr75  1  0.48345687  0.62691707  0.11595673  1
  Zr  Zr76  1  0.98013833  0.62304015  0.20525454  1
  Zr  Zr77  1  0.09373652  0.92150709  0.20483176  1
  Zr  Zr78  1  0.59320335  0.42045781  0.20573823  1
  Zr  Zr79  1  0.47902893  0.12245974  0.20434309  1
  Zr  Zr80  1  0.97907076  0.12242890  0.29566523  1
  Zr  Zr81  1  0.09319756  0.42045360  0.29427322  1
  Zr  Zr82  1  0.59376143  0.92149259  0.29517135  1
  Zr  Zr83  1  0.48012063  0.62305365  0.29474908  1
  Zr  Zr84  1  0.98343152  0.62690892  0.38404647  1
  Zr  Zr85  1  0.09793959  0.91680269  0.38424172  1
  Zr  Zr86  1  0.58919292  0.41673098  0.38624321  1
  Zr  Zr87  1  0.47965842  0.12088374  0.38478947  1
  Zr  Zr88  1  0.96320377  0.12084249  0.47932801  1
  Zr  Zr89  1  0.04941133  0.44491763  0.47391721  1
  Zr  Zr90  1  0.45367459  0.86974270  0.47782236  1
  Zr  Zr91  1  0.54903569  0.62127282  0.46297969  1
  Zr  Zr92  1  0.72575874  0.85389493  0.53705050  1
  Zr  Zr93  1  0.82118165  0.60536188  0.52218999  1
  Zr  Zr94  1  0.22550416  0.03015163  0.52605206  1
  Zr  Zr95  1  0.31138897  0.35415699  0.52063631  1
  Zr  Zr96  1  0.79525968  0.35418237  0.61514451  1
  Zr  Zr97  1  0.68521438  0.05863010  0.61374368  1
  Zr  Zr98  1  0.17663115  0.55854482  0.61574835  1
  Zr  Zr99  1  0.29113868  0.84832853  0.61598445  1
  Zr  Zr100  1  0.79588168  0.85155775  0.70518831  1
  Zr  Zr101  1  0.68148784  0.55322552  0.70484124  1
  Zr  Zr102  1  0.18257823  0.05413670  0.70574779  1
  Zr  Zr103  1  0.29631033  0.35216563  0.70429849  1
  Zr  Zr104  1  0.79631779  0.35215837  0.79568882  1
  Zr  Zr105  1  0.68254642  0.05414322  0.79425086  1
  Zr  Zr106  1  0.18149967  0.55324278  0.79515457  1
  Zr  Zr107  1  0.29582015  0.85155592  0.79478985  1
  Zr  Zr108  1  0.79108503  0.84835903  0.88401359  1
  Zr  Zr109  1  0.67672403  0.55856183  0.88425121  1
  Zr  Zr110  1  0.18520033  0.05864525  0.88624765  1
  Zr  Zr111  1  0.29528915  0.35420424  0.88485223  1
  Zr  Zr112  1  0.81141918  0.35417200  0.97935946  1
  Zr  Zr113  1  0.72548767  0.03015734  0.97394795  1
  Zr  Zr114  1  0.32118767  0.60536404  0.97780797  1
  Zr  Zr115  1  0.22570652  0.85390852  0.96295882  1
  Si  Si116  1  0.32047157  0.66966838  0.05506129  1
  Si  Si117  1  0.26686950  0.37527492  0.04904312  1
  Si  Si118  1  0.29429490  0.16005727  0.14058066  1
  Si  Si119  1  0.76695171  0.38076584  0.08847104  1
  Si  Si120  1  0.27306134  0.88003701  0.14101596  1
  Si  Si121  1  0.81697618  0.65775517  0.09217467  1
  Si  Si122  1  0.30189812  0.66177636  0.22975666  1
  Si  Si123  1  0.77379118  0.88153956  0.18038698  1
  Si  Si124  1  0.27500495  0.38040886  0.22995199  1
  Si  Si125  1  0.79723508  0.16133699  0.17971190  1
  Si  Si126  1  0.29729422  0.16130672  0.32028855  1
  Si  Si127  1  0.77502256  0.38038044  0.27006679  1
  Si  Si128  1  0.27381734  0.88153459  0.31962220  1
  Si  Si129  1  0.80190535  0.66176303  0.27024291  1
  Si  Si130  1  0.31693700  0.65774444  0.40782914  1
  Si  Si131  1  0.77305927  0.88003124  0.35898858  1
  Si  Si132  1  0.26696418  0.38074026  0.41152957  1
  Si  Si133  1  0.79433758  0.16000476  0.35942532  1
  Si  Si134  1  0.76681839  0.37524553  0.45096386  1
  Si  Si135  1  0.82048518  0.66965113  0.44494032  1
  Si  Si136  1  0.45426491  0.80535787  0.55510589  1
  Si  Si137  1  0.50732914  0.10014398  0.54907542  1
  Si  Si138  1  0.48003536  0.31541227  0.64049737  1
  Si  Si139  1  0.00737356  0.09430782  0.58833391  1
  Si  Si140  1  0.50182722  0.59497035  0.64101806  1
  Si  Si141  1  0.95737004  0.81767718  0.59220632  1
  Si  Si142  1  0.47414074  0.81296280  0.72974991  1
  Si  Si143  1  0.00162890  0.59297436  0.68038510  1
  Si  Si144  1  0.50119863  0.09405842  0.72985094  1
  Si  Si145  1  0.97796700  0.31321916  0.67972545  1
  Si  Si146  1  0.47795536  0.31323024  0.82026746  1
  Si  Si147  1  0.00122133  0.09405224  0.77014824  1
  Si  Si148  1  0.50168531  0.59296260  0.81959821  1
  Si  Si149  1  0.97412540  0.81296594  0.77022737  1
  Si  Si150  1  0.45732719  0.81770003  0.90779104  1
  Si  Si151  1  0.00186885  0.59500625  0.85897194  1
  Si  Si152  1  0.50736629  0.09432527  0.91166510  1
  Si  Si153  1  0.98001659  0.31543503  0.85949905  1
  Si  Si154  1  0.00731256  0.10016128  0.95091907  1
  Si  Si155  1  0.95425498  0.80536178  0.94489412  1
  P  P156  1  0.77550692  0.02637541  0.07514909  1
  P  P157  1  0.29703767  0.02084390  0.06251911  1
  P  P158  1  0.78835435  0.51785548  0.16804166  1
  P  P159  1  0.28614881  0.51812865  0.15188184  1
  P  P160  1  0.78555196  0.02284523  0.25743704  1
  P  P161  1  0.28552837  0.02286167  0.24256819  1
  P  P162  1  0.78613121  0.51814274  0.34812378  1
  P  P163  1  0.28833574  0.51786646  0.33196283  1
  P  P164  1  0.79705657  0.02080238  0.43748488  1
  P  P165  1  0.27553499  0.02633773  0.42485957  1
  P  P166  1  0.99978181  0.44875388  0.57513532  1
  P  P167  1  0.47779237  0.45456623  0.56246183  1
  P  P168  1  0.98638146  0.95731050  0.66804486  1
  P  P169  1  0.48914290  0.95681154  0.65186742  1
  P  P170  1  0.98966785  0.45187966  0.75742921  1
  P  P171  1  0.48967279  0.45185540  0.74256319  1
  P  P172  1  0.98913980  0.95681489  0.84812605  1
  P  P173  1  0.48636038  0.95730300  0.83194857  1
  P  P174  1  0.97787336  0.45461912  0.93754372  1
  P  P175  1  0.49980748  0.44879669  0.92486312  1
  O  O176  1  0.50298372  0.58148847  0.04167154  1
  O  O177  1  0.08844755  0.47738190  0.03727480  1
  O  O178  1  0.92636019  0.95753757  0.05540794  1
  O  O179  1  0.61101881  0.10014378  0.05880106  1
  O  O180  1  0.29842981  0.95190137  0.04112561  1
  O  O181  1  0.28448201  0.11563460  0.05035749  1
  O  O182  1  0.20625255  0.61915487  0.06278519  1
  O  O183  1  0.42962792  0.38783311  0.04535410  1
  O  O184  1  0.70090065  0.97751399  0.01256927  1
  O  O185  1  0.82815326  0.66011953  0.05962414  1
  O  O186  1  0.01062449  0.91933311  0.98997895  1
  O  O187  1  0.73890415  0.37605715  0.05647088  1
  O  O188  1  0.36033897  0.09346065  0.99275241  1
  O  O189  1  0.90081133  0.76162587  0.02264126  1
  O  O190  1  0.20025821  0.76553426  0.03548983  1
  O  O191  1  0.68418853  0.31497438  0.00406005  1
  O  O192  1  0.29943354  0.27714747  0.03277651  1
  O  O193  1  0.47414092  0.07292897  0.12610642  1
  O  O194  1  0.58886638  0.47317628  0.10254557  1
  O  O195  1  0.09407606  0.96350742  0.12561729  1
  O  O196  1  0.00547619  0.56533044  0.10350522  1
  O  O197  1  0.14092569  0.06168426  0.08125689  1
  O  O198  1  0.94679250  0.46163705  0.14934704  1
  O  O199  1  0.46933064  0.95603255  0.07814710  1
  O  O200  1  0.61857211  0.57229439  0.15225024  1
  O  O201  1  0.81590866  0.09342258  0.09120857  1
  O  O202  1  0.28886651  0.43417982  0.13529901  1
  O  O203  1  0.75865722  0.95604191  0.09381110  1
  O  O204  1  0.29305051  0.59323513  0.13280348  1
  O  O205  1  0.14906232  0.13274475  0.13621247  1
  O  O206  1  0.92197235  0.40259564  0.09105049  1
  O  O207  1  0.42399821  0.89975887  0.13273355  1
  O  O208  1  0.67442276  0.63284522  0.10049599  1
  O  O209  1  0.81757211  0.15931924  0.14737761  1
  O  O210  1  0.25350449  0.36372011  0.08082016  1
  O  O211  1  0.75856013  0.88061931  0.14810405  1
  O  O212  1  0.34234722  0.70869913  0.08325120  1
  O  O213  1  0.83045363  0.27189100  0.10262048  1
  O  O214  1  0.22794082  0.27015936  0.12727351  1
  O  O215  1  0.76601269  0.76776403  0.10355317  1
  O  O216  1  0.33873220  0.76276146  0.13470692  1
  O  O217  1  0.48530886  0.57417215  0.21584405  1
  O  O218  1  0.58991960  0.96840834  0.19419499  1
  O  O219  1  0.09375199  0.46813825  0.21570766  1
  O  O220  1  0.97747561  0.07764794  0.19479703  1
  O  O221  1  0.11866852  0.58090616  0.16830555  1
  O  O222  1  0.95249408  0.96596540  0.24077563  1
  O  O223  1  0.44840968  0.46408447  0.16971368  1
  O  O224  1  0.62101959  0.07998634  0.24024017  1
  O  O225  1  0.79133285  0.59813750  0.18508292  1
  O  O226  1  0.28626770  0.94201567  0.22520813  1
  O  O227  1  0.79706500  0.43628917  0.18628345  1
  O  O228  1  0.28253813  0.10315813  0.22454781  1
  O  O229  1  0.15536985  0.63599592  0.22411463  1
  O  O230  1  0.92214547  0.90603319  0.18572922  1
  O  O231  1  0.42230047  0.40624384  0.22543436  1
  O  O232  1  0.65096005  0.13552364  0.18483813  1
  O  O233  1  0.81862127  0.66351894  0.23797573  1
  O  O234  1  0.25506965  0.88906975  0.17323033  1
  O  O235  1  0.75655729  0.37664411  0.23792796  1
  O  O236  1  0.31249166  0.16600260  0.17246832  1
  O  O237  1  0.83095988  0.77115443  0.19247530  1
  O  O238  1  0.24354026  0.77252774  0.21765337  1
  O  O239  1  0.73589546  0.27416776  0.19063942  1
  O  O240  1  0.33362869  0.27033811  0.21759699  1
  O  O241  1  0.47751202  0.07764350  0.30520249  1
  O  O242  1  0.59375365  0.46816676  0.28429955  1
  O  O243  1  0.08993734  0.96839246  0.30581205  1
  O  O244  1  0.98528896  0.57417101  0.28416317  1
  O  O245  1  0.12096857  0.08001784  0.25976048  1
  O  O246  1  0.94839013  0.46410399  0.33029341  1
  O  O247  1  0.45244279  0.96599101  0.25923454  1
  O  O248  1  0.61865599  0.58093347  0.33170196  1
  O  O249  1  0.78254631  0.10314577  0.27545792  1
  O  O250  1  0.29703706  0.43628844  0.31372881  1
  O  O251  1  0.78630455  0.94199345  0.27479716  1
  O  O252  1  0.29133504  0.59812705  0.31491560  1
  O  O253  1  0.15102413  0.13548997  0.31516535  1
  O  O254  1  0.92235972  0.40619507  0.27457064  1
  O  O255  1  0.42219381  0.90600267  0.31427738  1
  O  O256  1  0.65536617  0.63599634  0.27588807  1
  O  O257  1  0.81251714  0.16594489  0.32753865  1
  O  O258  1  0.25658769  0.37667834  0.26209051  1
  O  O259  1  0.75508917  0.88904826  0.32677425  1
  O  O260  1  0.31861399  0.66353520  0.26202586  1
  O  O261  1  0.83355307  0.27035034  0.28243680  1
  O  O262  1  0.23592018  0.27415067  0.30936513  1
  O  O263  1  0.74354472  0.77252460  0.28234063  1
  O  O264  1  0.33095427  0.77115693  0.30753391  1
  O  O265  1  0.50544787  0.56530082  0.39650429  1
  O  O266  1  0.59408776  0.96349401  0.37439042  1
  O  O267  1  0.08887203  0.47314744  0.39744698  1
  O  O268  1  0.97420900  0.07289590  0.37389897  1
  O  O269  1  0.11853664  0.57232228  0.34775237  1
  O  O270  1  0.96933197  0.95603342  0.42185419  1
  O  O271  1  0.44677337  0.46164831  0.35065911  1
  O  O272  1  0.64093705  0.06163263  0.41875149  1
  O  O273  1  0.79303025  0.59323305  0.36720958  1
  O  O274  1  0.25871237  0.95599309  0.40619809  1
  O  O275  1  0.78886898  0.43417698  0.36470415  1
  O  O276  1  0.31596856  0.09336637  0.40879876  1
  O  O277  1  0.17440400  0.63282058  0.39951066  1
  O  O278  1  0.92399290  0.89976047  0.36726361  1
  O  O279  1  0.42196631  0.40258411  0.40894989  1
  O  O280  1  0.64913360  0.13267900  0.36379873  1
  O  O281  1  0.84232609  0.70869681  0.41675011  1
  O  O282  1  0.25857559  0.88062575  0.35190619  1
  O  O283  1  0.75346728  0.36368845  0.41918796  1
  O  O284  1  0.31763214  0.15928474  0.35262600  1
  O  O285  1  0.83870052  0.76276098  0.36530089  1
  O  O286  1  0.26603790  0.76772738  0.39644705  1
  O  O287  1  0.72792849  0.27013290  0.37272717  1
  O  O288  1  0.33045250  0.27187374  0.39737768  1
  O  O289  1  0.58841521  0.47736978  0.46273241  1
  O  O290  1  0.00299062  0.58146836  0.45832902  1
  O  O291  1  0.11101951  0.10010995  0.44120253  1
  O  O292  1  0.42637959  0.95753352  0.44460441  1
  O  O293  1  0.78442860  0.11560411  0.44965000  1
  O  O294  1  0.79855939  0.95180052  0.45887299  1
  O  O295  1  0.20091906  0.97749697  0.48743396  1
  O  O296  1  0.92960623  0.38777698  0.45465630  1
  O  O297  1  0.70627071  0.61913257  0.43721440  1
  O  O298  1  0.86044040  0.09339374  0.50726020  1
  O  O299  1  0.23888162  0.37603187  0.44352637  1
  O  O300  1  0.51064289  0.91932283  0.51002270  1
  O  O301  1  0.32811076  0.66012899  0.44038015  1
  O  O302  1  0.79939565  0.27711142  0.46722959  1
  O  O303  1  0.18419598  0.31495455  0.49593602  1
  O  O304  1  0.70025977  0.76553055  0.46450733  1
  O  O305  1  0.40080389  0.76160827  0.47736335  1
  O  O306  1  0.27193525  0.89362222  0.54168220  1
  O  O307  1  0.68578519  0.99795230  0.53733333  1
  O  O308  1  0.84883616  0.51741665  0.55539702  1
  O  O309  1  0.16424040  0.37496142  0.55880079  1
  O  O310  1  0.47574224  0.52380202  0.54109050  1
  O  O311  1  0.49060787  0.35980063  0.55022370  1
  O  O312  1  0.56862203  0.85581517  0.56279081  1
  O  O313  1  0.34437911  0.08781832  0.54533530  1
  O  O314  1  0.07383857  0.49749125  0.51255903  1
  O  O315  1  0.94660578  0.81522438  0.55963922  1
  O  O316  1  0.76407891  0.55603420  0.48996224  1
  O  O317  1  0.03548152  0.09905306  0.55634658  1
  O  O318  1  0.41361596  0.38154485  0.49260184  1
  O  O319  1  0.87396717  0.71353705  0.52266953  1
  O  O320  1  0.57463732  0.70938965  0.53556714  1
  O  O321  1  0.09013415  0.16009200  0.50407010  1
  O  O322  1  0.47534623  0.19810876  0.53278962  1
  O  O323  1  0.29994914  0.40247453  0.62609365  1
  O  O324  1  0.18570040  0.00198536  0.60242144  1
  O  O325  1  0.68077620  0.51159127  0.62559215  1
  O  O326  1  0.76869466  0.91010756  0.60347500  1
  O  O327  1  0.63426667  0.41366081  0.58113180  1
  O  O328  1  0.82794721  0.01392705  0.64935147  1
  O  O329  1  0.30578097  0.51902266  0.57816930  1
  O  O330  1  0.15614838  0.90329767  0.65224639  1
  O  O331  1  0.95935839  0.38178414  0.59124777  1
  O  O332  1  0.48626562  0.04089068  0.63533267  1
  O  O333  1  0.01633665  0.51930453  0.59374693  1
  O  O334  1  0.48171281  0.88201034  0.63272975  1
  O  O335  1  0.62504111  0.34288107  0.63607269  1
  O  O336  1  0.85245112  0.07245737  0.59091589  1
  O  O337  1  0.35073684  0.57545794  0.63269244  1
  O  O338  1  0.09995911  0.84248680  0.60060578  1
  O  O339  1  0.95697223  0.31537227  0.64739612  1
  O  O340  1  0.52045258  0.11173438  0.58084126  1
  O  O341  1  0.01614518  0.59442817  0.64809561  1
  O  O342  1  0.43221217  0.76648878  0.58330215  1
  O  O343  1  0.94396204  0.20321908  0.60249517  1
  O  O344  1  0.54660033  0.20535640  0.62710655  1
  O  O345  1  0.00822539  0.70762735  0.60353967  1
  O  O346  1  0.43585269  0.71241764  0.63479444  1
  O  O347  1  0.29059282  0.90041152  0.71582492  1
  O  O348  1  0.18578262  0.50606570  0.69411429  1
  O  O349  1  0.68230994  0.00646807  0.71556410  1
  O  O350  1  0.79793301  0.39693465  0.69485925  1
  O  O351  1  0.65677570  0.89377558  0.66824233  1
  O  O352  1  0.82258606  0.50875339  0.74080842  1
  O  O353  1  0.32692598  0.01082986  0.66970972  1
  O  O354  1  0.15401723  0.39454423  0.74019087  1
  O  O355  1  0.98380584  0.87644834  0.68487587  1
  O  O356  1  0.48919802  0.53272836  0.72524515  1
  O  O357  1  0.97786972  0.03836907  0.68646159  1
  O  O358  1  0.49258959  0.37165123  0.72450510  1
  O  O359  1  0.62043599  0.83884429  0.72406803  1
  O  O360  1  0.85353739  0.56828878  0.68574232  1
  O  O361  1  0.35381443  0.06828524  0.72535201  1
  O  O362  1  0.12469409  0.33870762  0.68482381  1
  O  O363  1  0.95740364  0.81115847  0.73795302  1
  O  O364  1  0.52020926  0.58556197  0.67322507  1
  O  O365  1  0.02000551  0.09762400  0.73801609  1
  O  O366  1  0.46264129  0.30887196  0.67238266  1
  O  O367  1  0.94451292  0.70327064  0.69253701  1
  O  O368  1  0.53248733  0.70221886  0.71764255  1
  O  O369  1  0.03924873  0.20040400  0.69065171  1
  O  O370  1  0.44237731  0.20424300  0.71754852  1
  O  O371  1  0.29793250  0.39695916  0.80513742  1
  O  O372  1  0.18230863  0.00645432  0.78443656  1
  O  O373  1  0.68571722  0.50609186  0.80583731  1
  O  O374  1  0.79061122  0.90040369  0.78416140  1
  O  O375  1  0.65403454  0.39446691  0.75979694  1
  O  O376  1  0.82689589  0.01082243  0.83028931  1
  O  O377  1  0.32260062  0.50874793  0.75918582  1
  O  O378  1  0.15675939  0.89379543  0.83174960  1
  O  O379  1  0.99263310  0.37165125  0.77548482  1
  O  O380  1  0.47786536  0.03836300  0.81353315  1
  O  O381  1  0.98917466  0.53276021  0.77474672  1
  O  O382  1  0.48379095  0.87644189  0.81511777  1
  O  O383  1  0.62468505  0.33871724  0.81516778  1
  O  O384  1  0.85378966  0.06831527  0.77465255  1
  O  O385  1  0.35353113  0.56830632  0.81426019  1
  O  O386  1  0.12042037  0.83885769  0.77589795  1
  O  O387  1  0.96254645  0.30896244  0.82761275  1
  O  O388  1  0.51998667  0.09763711  0.76198372  1
  O  O389  1  0.02017415  0.58560937  0.82676412  1
  O  O390  1  0.45742246  0.81118743  0.76202885  1
  O  O391  1  0.94244704  0.20422850  0.78245653  1
  O  O392  1  0.53921677  0.20041916  0.80934339  1
  O  O393  1  0.03249448  0.70223575  0.78234701  1
  O  O394  1  0.44443021  0.70329501  0.80745353  1
  O  O395  1  0.26864894  0.91015175  0.89652847  1
  O  O396  1  0.18080278  0.51160963  0.87439525  1
  O  O397  1  0.68567273  0.00199681  0.89757566  1
  O  O398  1  0.79994960  0.40249169  0.87391363  1
  O  O399  1  0.65611382  0.90329988  0.84774956  1
  O  O400  1  0.80588868  0.51911284  0.92183201  1
  O  O401  1  0.32793477  0.01393054  0.85064247  1
  O  O402  1  0.13433106  0.41371220  0.91887164  1
  O  O403  1  0.98169805  0.88202876  0.86726792  1
  O  O404  1  0.51638388  0.51938623  0.90626972  1
  O  O405  1  0.98625230  0.04090121  0.86465885  1
  O  O406  1  0.45942148  0.38184569  0.90873288  1
  O  O407  1  0.59990333  0.84251736  0.89939669  1
  O  O408  1  0.85082397  0.57545651  0.86730011  1
  O  O409  1  0.35243443  0.07248688  0.90907341  1
  O  O410  1  0.12505301  0.34287818  0.86393470  1
  O  O411  1  0.93216642  0.76650591  0.91669854  1
  O  O412  1  0.51640002  0.59434241  0.85188517  1
  O  O413  1  0.02043319  0.11174744  0.91915372  1
  O  O414  1  0.45698293  0.31537521  0.85259933  1
  O  O415  1  0.93588913  0.71245017  0.86520165  1
  O  O416  1  0.50818481  0.70765680  0.89644152  1
  O  O417  1  0.04657336  0.20536638  0.87288156  1
  O  O418  1  0.44398034  0.20324694  0.89751119  1
  O  O419  1  0.18575747  0.99796591  0.96266481  1
  O  O420  1  0.77191854  0.89363534  0.95831654  1
  O  O421  1  0.66425691  0.37498299  0.94119865  1
  O  O422  1  0.34881529  0.51743350  0.94459727  1
  O  O423  1  0.99062422  0.35984520  0.94976866  1
  O  O424  1  0.97584986  0.52380612  0.95892572  1
  O  O425  1  0.57385904  0.49750960  0.98743851  1
  O  O426  1  0.84438078  0.08782384  0.95466965  1
  O  O427  1  0.06861643  0.85581610  0.93721173  1
  O  O428  1  0.91365773  0.38153475  0.00739691  1
  O  O429  1  0.53546264  0.09903549  0.94365450  1
  O  O430  1  0.26409298  0.55602969  0.01003511  1
  O  O431  1  0.44654229  0.81520554  0.94035659  1
  O  O432  1  0.97535030  0.19813162  0.96720084  1
  O  O433  1  0.59011729  0.16009847  0.99592488  1
  O  O434  1  0.07462627  0.70939469  0.96443416  1
  O  O435  1  0.37396428  0.71354281  0.97733280  1
