# generated using pymatgen
data_Na17Zr12Si10(PO13)5
_symmetry_space_group_name_H-M   'P 1'
_cell_length_a   9.27295600
_cell_length_b   15.80284349
_cell_length_c   50.89928613
_cell_angle_alpha   90.00000000
_cell_angle_beta   90.00000000
_cell_angle_gamma   56.43985526
_symmetry_Int_Tables_number   1
_chemical_formula_structural   Na17Zr12Si10(PO13)5
_chemical_formula_sum   'Na68 Zr48 Si40 P20 O260'
_cell_volume   6215.40779888
_cell_formula_units_Z   4
loop_
 _symmetry_equiv_pos_site_id
 _symmetry_equiv_pos_as_xyz
  1  'x, y, z'
loop_
 _atom_site_type_symbol
 _atom_site_label
 _atom_site_symmetry_multiplicity
 _atom_site_fract_x
 _atom_site_fract_y
 _atom_site_fract_z
 _atom_site_occupancy
  Na  Na0  1  0.62351763  0.81445548  0.04453805  1
  Na  Na1  1  0.03627573  0.27123826  0.04349019  1
  Na  Na2  1  0.67798883  0.20405744  0.03673390  1
  Na  Na3  1  0.79589876  0.50864142  0.04994004  1
  Na  Na4  1  0.17551905  0.04229651  0.00500067  1
  Na  Na5  1  0.38731553  0.17208636  0.08792880  1
  Na  Na6  1  0.63798223  0.32469299  0.13970019  1
  Na  Na7  1  0.18505611  0.87198522  0.07960678  1
  Na  Na8  1  0.98918383  0.70205768  0.13465118  1
  Na  Na9  1  0.79212103  0.00431635  0.13922792  1
  Na  Na10  1  0.32721594  0.47604645  0.09293914  1
  Na  Na11  1  0.44763738  0.69268906  0.18164733  1
  Na  Na12  1  0.61606812  0.82582617  0.22677948  1
  Na  Na13  1  0.12512446  0.32753055  0.18257225  1
  Na  Na14  1  0.94741044  0.19040799  0.22711090  1
  Na  Na15  1  0.79105222  0.50625044  0.23062569  1
  Na  Na16  1  0.27022781  0.01733179  0.18062516  1
  Na  Na17  1  0.44739503  0.19039215  0.27288983  1
  Na  Na18  1  0.62511616  0.32752689  0.31743133  1
  Na  Na19  1  0.11603497  0.82582057  0.27322502  1
  Na  Na20  1  0.94764338  0.69267543  0.31835941  1
  Na  Na21  1  0.77014669  0.01735074  0.31937275  1
  Na  Na22  1  0.29107202  0.50624194  0.26938085  1
  Na  Na23  1  0.48923208  0.70206319  0.36535424  1
  Na  Na24  1  0.68505953  0.87200006  0.42040505  1
  Na  Na25  1  0.13798033  0.32468942  0.36030102  1
  Na  Na26  1  0.88731025  0.17203243  0.41207033  1
  Na  Na27  1  0.82722232  0.47603083  0.40706550  1
  Na  Na28  1  0.29206992  0.00431696  0.36077820  1
  Na  Na29  1  0.17796267  0.20406064  0.46326583  1
  Na  Na30  1  0.53628073  0.27123155  0.45650548  1
  Na  Na31  1  0.12352715  0.81443865  0.45546289  1
  Na  Na32  1  0.67548674  0.04229970  0.49500219  1
  Na  Na33  1  0.29590031  0.50863313  0.45006281  1
  Na  Na34  1  0.15161340  0.63556386  0.54451229  1
  Na  Na35  1  0.73894157  0.17874214  0.54344313  1
  Na  Na36  1  0.09720443  0.24591403  0.53671962  1
  Na  Na37  1  0.97948504  0.94134645  0.54984830  1
  Na  Na38  1  0.59895636  0.40778373  0.50498109  1
  Na  Na39  1  0.38830702  0.27779639  0.58789549  1
  Na  Na40  1  0.13731870  0.12553256  0.63954969  1
  Na  Na41  1  0.59020274  0.57827052  0.57960963  1
  Na  Na42  1  0.78637462  0.74834023  0.63466329  1
  Na  Na43  1  0.98174744  0.44607743  0.63918893  1
  Na  Na44  1  0.44811027  0.97386702  0.59291652  1
  Na  Na45  1  0.32762844  0.75717264  0.68161552  1
  Na  Na46  1  0.15841206  0.62401668  0.72682290  1
  Na  Na47  1  0.64984926  0.12244464  0.68250763  1
  Na  Na48  1  0.82651776  0.25946348  0.72702052  1
  Na  Na49  1  0.98406269  0.94362058  0.73063469  1
  Na  Na50  1  0.50372672  0.43308933  0.68058091  1
  Na  Na51  1  0.32660463  0.25946516  0.77296314  1
  Na  Na52  1  0.14990205  0.12242171  0.81749621  1
  Na  Na53  1  0.65848555  0.62408462  0.77315561  1
  Na  Na54  1  0.82767513  0.75715299  0.81838586  1
  Na  Na55  1  0.00380399  0.43306882  0.81941146  1
  Na  Na56  1  0.48411533  0.94359432  0.76936363  1
  Na  Na57  1  0.28636257  0.74826935  0.86532128  1
  Na  Na58  1  0.09021129  0.57827166  0.92040014  1
  Na  Na59  1  0.63730958  0.12548655  0.86044042  1
  Na  Na60  1  0.88836881  0.27780560  0.91210605  1
  Na  Na61  1  0.94812964  0.97386041  0.90707811  1
  Na  Na62  1  0.48200422  0.44598604  0.86079651  1
  Na  Na63  1  0.59722922  0.24591563  0.96328445  1
  Na  Na64  1  0.23898246  0.17873636  0.95655957  1
  Na  Na65  1  0.65162149  0.63554370  0.95549454  1
  Na  Na66  1  0.09893038  0.40781314  0.99501284  1
  Na  Na67  1  0.47953726  0.94132956  0.95014593  1
  Zr  Zr68  1  0.04918131  0.60827188  0.03708216  1
  Zr  Zr69  1  0.95434143  0.85651352  0.02208551  1
  Zr  Zr70  1  0.54942645  0.43211201  0.02609272  1
  Zr  Zr71  1  0.46413285  0.10775305  0.02058551  1
  Zr  Zr72  1  0.97942227  0.10779204  0.11522600  1
  Zr  Zr73  1  0.08921895  0.40326337  0.11369652  1
  Zr  Zr74  1  0.59798667  0.90352282  0.11571392  1
  Zr  Zr75  1  0.48323770  0.61381815  0.11599045  1
  Zr  Zr76  1  0.97904100  0.61018531  0.20518870  1
  Zr  Zr77  1  0.09312572  0.90861927  0.20482672  1
  Zr  Zr78  1  0.59211452  0.40775325  0.20571475  1
  Zr  Zr79  1  0.47813003  0.10966251  0.20433449  1
  Zr  Zr80  1  0.97811986  0.10965741  0.29566567  1
  Zr  Zr81  1  0.09211801  0.40775286  0.29429154  1
  Zr  Zr82  1  0.59312929  0.90861117  0.29517746  1
  Zr  Zr83  1  0.47903120  0.61018371  0.29481714  1
  Zr  Zr84  1  0.98326252  0.61379795  0.38401285  1
  Zr  Zr85  1  0.09798713  0.90347734  0.38428632  1
  Zr  Zr86  1  0.58925256  0.40322813  0.38630559  1
  Zr  Zr87  1  0.47941297  0.10777687  0.38477977  1
  Zr  Zr88  1  0.96412087  0.10774650  0.47941910  1
  Zr  Zr89  1  0.04941867  0.43211413  0.47390724  1
  Zr  Zr90  1  0.45433385  0.85650283  0.47791804  1
  Zr  Zr91  1  0.54920399  0.60824860  0.46291568  1
  Zr  Zr92  1  0.72632221  0.84171513  0.53704167  1
  Zr  Zr93  1  0.82109953  0.59338850  0.52206370  1
  Zr  Zr94  1  0.22631003  0.01772530  0.52606788  1
  Zr  Zr95  1  0.31109264  0.34216878  0.52061565  1
  Zr  Zr96  1  0.79556419  0.34227528  0.61512426  1
  Zr  Zr97  1  0.68589740  0.04669677  0.61368239  1
  Zr  Zr98  1  0.17691907  0.54646798  0.61571776  1
  Zr  Zr99  1  0.29175791  0.83635910  0.61598009  1
  Zr  Zr100  1  0.79587516  0.83971265  0.70519223  1
  Zr  Zr101  1  0.68164898  0.54138741  0.70482945  1
  Zr  Zr102  1  0.18245962  0.04235481  0.70568509  1
  Zr  Zr103  1  0.29656560  0.34023031  0.70431233  1
  Zr  Zr104  1  0.79662381  0.34021480  0.79568391  1
  Zr  Zr105  1  0.68251389  0.04232067  0.79431013  1
  Zr  Zr106  1  0.18173372  0.54135941  0.79517164  1
  Zr  Zr107  1  0.29587953  0.83970687  0.79479256  1
  Zr  Zr108  1  0.79173521  0.83635100  0.88401999  1
  Zr  Zr109  1  0.67692551  0.54647303  0.88427511  1
  Zr  Zr110  1  0.18592358  0.04668702  0.88632133  1
  Zr  Zr111  1  0.29562247  0.34226033  0.88487227  1
  Zr  Zr112  1  0.81110362  0.34218205  0.97938286  1
  Zr  Zr113  1  0.72635473  0.01772525  0.97394035  1
  Zr  Zr114  1  0.32108783  0.59339153  0.97793594  1
  Zr  Zr115  1  0.22633408  0.84171815  0.96295585  1
  Si  Si116  1  0.32061928  0.65675863  0.05516033  1
  Si  Si117  1  0.26730088  0.36196767  0.04895193  1
  Si  Si118  1  0.29410411  0.14667500  0.14055161  1
  Si  Si119  1  0.76690984  0.36759214  0.08843510  1
  Si  Si120  1  0.27276371  0.86692260  0.14101898  1
  Si  Si121  1  0.81715820  0.64446045  0.09218400  1
  Si  Si122  1  0.30074100  0.64893843  0.22973085  1
  Si  Si123  1  0.77304378  0.86870851  0.18036539  1
  Si  Si124  1  0.27392509  0.36782084  0.22995557  1
  Si  Si125  1  0.79623684  0.14854624  0.17973942  1
  Si  Si126  1  0.29620968  0.14854260  0.32026396  1
  Si  Si127  1  0.77391370  0.36781875  0.27005374  1
  Si  Si128  1  0.27303349  0.86869629  0.31963473  1
  Si  Si129  1  0.80074552  0.64893279  0.27026932  1
  Si  Si130  1  0.31718489  0.64444369  0.40782083  1
  Si  Si131  1  0.77274101  0.86686281  0.35899181  1
  Si  Si132  1  0.26691656  0.36757851  0.41156626  1
  Si  Si133  1  0.79412806  0.14665300  0.35944500  1
  Si  Si134  1  0.76734427  0.36193781  0.45104361  1
  Si  Si135  1  0.82062253  0.65676743  0.44484173  1
  Si  Si136  1  0.45480364  0.79327204  0.55511968  1
  Si  Si137  1  0.50798148  0.08797181  0.54898736  1
  Si  Si138  1  0.48086889  0.30333290  0.64050417  1
  Si  Si139  1  0.00813677  0.08243337  0.58835239  1
  Si  Si140  1  0.50212266  0.58301761  0.64097263  1
  Si  Si141  1  0.95814312  0.80572224  0.59215823  1
  Si  Si142  1  0.47411923  0.80108154  0.72972050  1
  Si  Si143  1  0.00184971  0.58109817  0.68035419  1
  Si  Si144  1  0.50114778  0.08215736  0.72988956  1
  Si  Si145  1  0.97796973  0.30145092  0.67971324  1
  Si  Si146  1  0.47805272  0.30141269  0.82028345  1
  Si  Si147  1  0.00118267  0.08216165  0.77010334  1
  Si  Si148  1  0.50201828  0.58107847  0.81962409  1
  Si  Si149  1  0.97414863  0.80104746  0.77027155  1
  Si  Si150  1  0.45811207  0.80568529  0.90783507  1
  Si  Si151  1  0.00220437  0.58299520  0.85903192  1
  Si  Si152  1  0.50818322  0.08241041  0.91165164  1
  Si  Si153  1  0.98091913  0.30331128  0.85949282  1
  Si  Si154  1  0.00801100  0.08798175  0.95101583  1
  Si  Si155  1  0.95480962  0.79325827  0.94488408  1
  P  P156  1  0.77565366  0.01322033  0.07507428  1
  P  P157  1  0.29720368  0.00766268  0.06246442  1
  P  P158  1  0.78813587  0.50434693  0.16801910  1
  P  P159  1  0.28530722  0.50487325  0.15183891  1
  P  P160  1  0.78503946  0.00991059  0.25742240  1
  P  P161  1  0.28503143  0.00992352  0.24257794  1
  P  P162  1  0.78531538  0.50486397  0.34816806  1
  P  P163  1  0.28814035  0.50432896  0.33198646  1
  P  P164  1  0.79720746  0.00766181  0.43753614  1
  P  P165  1  0.27561229  0.01322811  0.42492900  1
  P  P166  1  0.99980597  0.43677309  0.57507498  1
  P  P167  1  0.47756262  0.44269606  0.56242362  1
  P  P168  1  0.98677763  0.94529836  0.66802774  1
  P  P169  1  0.48927221  0.94520226  0.65182700  1
  P  P170  1  0.98979471  0.44009751  0.75743619  1
  P  P171  1  0.48976379  0.44010901  0.74256493  1
  P  P172  1  0.98933343  0.94517357  0.84816881  1
  P  P173  1  0.48677727  0.94528458  0.83197250  1
  P  P174  1  0.97758901  0.44270148  0.93757200  1
  P  P175  1  0.49982991  0.43676444  0.92492392  1
  O  O176  1  0.50338507  0.56821763  0.04188068  1
  O  O177  1  0.08907560  0.46423375  0.03719651  1
  O  O178  1  0.14155422  0.04894169  0.08132059  1
  O  O179  1  0.92648447  0.94406956  0.05537576  1
  O  O180  1  0.46991665  0.94318802  0.07802146  1
  O  O181  1  0.61109809  0.08686551  0.05871299  1
  O  O182  1  0.29797301  0.93833505  0.04124112  1
  O  O183  1  0.28426492  0.10217514  0.05000467  1
  O  O184  1  0.20605217  0.60645191  0.06287113  1
  O  O185  1  0.43008129  0.37444596  0.04526565  1
  O  O186  1  0.70194249  0.96451471  0.01249985  1
  O  O187  1  0.82801636  0.64670317  0.05961410  1
  O  O188  1  0.01140321  0.90663208  0.98997312  1
  O  O189  1  0.73913793  0.36226333  0.05645135  1
  O  O190  1  0.36337144  0.07946835  0.99246470  1
  O  O191  1  0.90097644  0.74852302  0.02264924  1
  O  O192  1  0.20094832  0.75236497  0.03548405  1
  O  O193  1  0.68424738  0.30246715  0.00396959  1
  O  O194  1  0.29943997  0.26397154  0.03264657  1
  O  O195  1  0.47411594  0.05958274  0.12612667  1
  O  O196  1  0.58866521  0.46016109  0.10244830  1
  O  O197  1  0.09378921  0.95032769  0.12558586  1
  O  O198  1  0.00555013  0.55178561  0.10345516  1
  O  O199  1  0.11757209  0.56790443  0.16819646  1
  O  O200  1  0.94659074  0.44795144  0.14932012  1
  O  O201  1  0.44731554  0.45091317  0.16972120  1
  O  O202  1  0.61831979  0.55840874  0.15224186  1
  O  O203  1  0.81635141  0.08048417  0.09098679  1
  O  O204  1  0.28821693  0.42081656  0.13528338  1
  O  O205  1  0.75848205  0.94339793  0.09387867  1
  O  O206  1  0.29289494  0.57970376  0.13273236  1
  O  O207  1  0.14913465  0.11913776  0.13628521  1
  O  O208  1  0.92174724  0.38956890  0.09091622  1
  O  O209  1  0.42400489  0.88620916  0.13255337  1
  O  O210  1  0.67397682  0.62029783  0.10069725  1
  O  O211  1  0.81713611  0.14635772  0.14739931  1
  O  O212  1  0.25384788  0.35019728  0.08072862  1
  O  O213  1  0.75828674  0.86754521  0.14807277  1
  O  O214  1  0.34211907  0.69605981  0.08333534  1
  O  O215  1  0.83045061  0.25892951  0.10273379  1
  O  O216  1  0.22773246  0.25661645  0.12711945  1
  O  O217  1  0.76691131  0.75452079  0.10346019  1
  O  O218  1  0.33822842  0.74947293  0.13491262  1
  O  O219  1  0.48402752  0.56150357  0.21574454  1
  O  O220  1  0.58911049  0.95565143  0.19415270  1
  O  O221  1  0.09288689  0.45532154  0.21562632  1
  O  O222  1  0.97627968  0.06493679  0.19489238  1
  O  O223  1  0.12080532  0.06714846  0.25983413  1
  O  O224  1  0.95232027  0.95280050  0.24084445  1
  O  O225  1  0.45230379  0.95280654  0.25915891  1
  O  O226  1  0.62082308  0.06712465  0.24016610  1
  O  O227  1  0.79072097  0.58502404  0.18495857  1
  O  O228  1  0.28523147  0.92926335  0.22520721  1
  O  O229  1  0.79686050  0.42304375  0.18637829  1
  O  O230  1  0.28188877  0.09032288  0.22456169  1
  O  O231  1  0.15402832  0.62332913  0.22405464  1
  O  O232  1  0.92147753  0.89313615  0.18573420  1
  O  O233  1  0.42123034  0.39363245  0.22545656  1
  O  O234  1  0.64980924  0.12284894  0.18480889  1
  O  O235  1  0.81759119  0.65055593  0.23798335  1
  O  O236  1  0.25459801  0.87661329  0.17323175  1
  O  O237  1  0.75501274  0.36439967  0.23791793  1
  O  O238  1  0.31168662  0.15319393  0.17244255  1
  O  O239  1  0.82987418  0.75835879  0.19245230  1
  O  O240  1  0.24266674  0.75964557  0.21762547  1
  O  O241  1  0.73492593  0.26135581  0.19066642  1
  O  O242  1  0.33275236  0.25752481  0.21770968  1
  O  O243  1  0.47624764  0.06492434  0.30511137  1
  O  O244  1  0.59287035  0.45531456  0.28438118  1
  O  O245  1  0.08909634  0.95564451  0.30585049  1
  O  O246  1  0.98403204  0.56149201  0.28425431  1
  O  O247  1  0.11834170  0.55839861  0.34776660  1
  O  O248  1  0.94732901  0.45091585  0.33028619  1
  O  O249  1  0.44661657  0.44793157  0.35068195  1
  O  O250  1  0.61758353  0.56788767  0.33180798  1
  O  O251  1  0.78187595  0.09032127  0.27543692  1
  O  O252  1  0.29683857  0.42303444  0.31362904  1
  O  O253  1  0.78522972  0.92925274  0.27479414  1
  O  O254  1  0.29071250  0.58499966  0.31504382  1
  O  O255  1  0.14976190  0.12285808  0.31519783  1
  O  O256  1  0.92123171  0.39363097  0.27454975  1
  O  O257  1  0.42147369  0.89312103  0.31425955  1
  O  O258  1  0.65402152  0.62333165  0.27594709  1
  O  O259  1  0.81163624  0.15319194  0.32755277  1
  O  O260  1  0.25505512  0.36439911  0.26209095  1
  O  O261  1  0.75455187  0.87662855  0.32677967  1
  O  O262  1  0.31760087  0.65054793  0.26201796  1
  O  O263  1  0.83275103  0.25752702  0.28229635  1
  O  O264  1  0.23492696  0.26133269  0.30933359  1
  O  O265  1  0.74271101  0.75962882  0.28238134  1
  O  O266  1  0.32983501  0.75836228  0.30754449  1
  O  O267  1  0.50557751  0.55174174  0.39655905  1
  O  O268  1  0.59379018  0.95029539  0.37442614  1
  O  O269  1  0.08866136  0.46015794  0.39755602  1
  O  O270  1  0.97414271  0.05952526  0.37385930  1
  O  O271  1  0.11108442  0.08688697  0.44129445  1
  O  O272  1  0.96991961  0.94318456  0.42197935  1
  O  O273  1  0.42645657  0.94404077  0.44462292  1
  O  O274  1  0.64153185  0.04894222  0.41868450  1
  O  O275  1  0.79290117  0.57968754  0.36727382  1
  O  O276  1  0.25835623  0.94345368  0.40611959  1
  O  O277  1  0.78822439  0.42080339  0.36472140  1
  O  O278  1  0.31631700  0.08049651  0.40902014  1
  O  O279  1  0.17396292  0.62032962  0.39929727  1
  O  O280  1  0.92404178  0.88607895  0.36747271  1
  O  O281  1  0.42174554  0.38955326  0.40908356  1
  O  O282  1  0.64910097  0.11915328  0.36372100  1
  O  O283  1  0.84215444  0.69605743  0.41666880  1
  O  O284  1  0.25831352  0.86750983  0.35192771  1
  O  O285  1  0.75393204  0.35014721  0.41926675  1
  O  O286  1  0.31716138  0.14632982  0.35260526  1
  O  O287  1  0.83812977  0.74942585  0.36508123  1
  O  O288  1  0.26701723  0.75449901  0.39655091  1
  O  O289  1  0.72782237  0.25657903  0.37288383  1
  O  O290  1  0.33042913  0.25892604  0.39726654  1
  O  O291  1  0.58913121  0.46421449  0.46279831  1
  O  O292  1  0.00336842  0.56823953  0.45812450  1
  O  O293  1  0.78426890  0.10217444  0.44999478  1
  O  O294  1  0.79797551  0.93833312  0.45875793  1
  O  O295  1  0.20193325  0.96450118  0.48750580  1
  O  O296  1  0.93010847  0.37443052  0.45473068  1
  O  O297  1  0.70606936  0.60644479  0.43712898  1
  O  O298  1  0.86333216  0.07945718  0.50753636  1
  O  O299  1  0.23913024  0.36226582  0.44355146  1
  O  O300  1  0.51138396  0.90663324  0.51002964  1
  O  O301  1  0.32799735  0.64668186  0.44039096  1
  O  O302  1  0.79944294  0.26397297  0.46736018  1
  O  O303  1  0.18420551  0.30246186  0.49603198  1
  O  O304  1  0.70094429  0.75238017  0.46451750  1
  O  O305  1  0.40099837  0.74849658  0.47734965  1
  O  O306  1  0.27221262  0.88158535  0.54177577  1
  O  O307  1  0.68621544  0.98578042  0.53722122  1
  O  O308  1  0.63371072  0.40177181  0.58116493  1
  O  O309  1  0.84898476  0.50564647  0.55534182  1
  O  O310  1  0.30522698  0.50671692  0.57807222  1
  O  O311  1  0.16443782  0.36306510  0.55874763  1
  O  O312  1  0.47552259  0.51218843  0.54112893  1
  O  O313  1  0.49109401  0.34791020  0.55002093  1
  O  O314  1  0.56916985  0.84374150  0.56280338  1
  O  O315  1  0.34514924  0.07554035  0.54531111  1
  O  O316  1  0.07346505  0.48533982  0.51250471  1
  O  O317  1  0.94728148  0.80323858  0.55958701  1
  O  O318  1  0.76405668  0.54356990  0.48990660  1
  O  O319  1  0.03623558  0.08746375  0.55637089  1
  O  O320  1  0.41171928  0.37025457  0.49242364  1
  O  O321  1  0.87428542  0.70142783  0.52261801  1
  O  O322  1  0.57467579  0.69754968  0.53548918  1
  O  O323  1  0.09119415  0.14738795  0.50397842  1
  O  O324  1  0.47587453  0.18604958  0.53272116  1
  O  O325  1  0.30091197  0.39048429  0.62606884  1
  O  O326  1  0.18629093  0.99007707  0.60244894  1
  O  O327  1  0.68104195  0.49973134  0.62551667  1
  O  O328  1  0.76942074  0.89817146  0.60342236  1
  O  O329  1  0.65678607  0.88239071  0.66824710  1
  O  O330  1  0.82850219  0.00179955  0.64930283  1
  O  O331  1  0.32688900  0.99925681  0.66964015  1
  O  O332  1  0.15667810  0.89124162  0.65226017  1
  O  O333  1  0.95942017  0.36956795  0.59108054  1
  O  O334  1  0.48649897  0.02920327  0.63526586  1
  O  O335  1  0.01632494  0.50702975  0.59380878  1
  O  O336  1  0.48222772  0.87016396  0.63272709  1
  O  O337  1  0.62596592  0.33074539  0.63617218  1
  O  O338  1  0.85302600  0.06067370  0.59087764  1
  O  O339  1  0.35109180  0.56349587  0.63261022  1
  O  O340  1  0.10050609  0.83065783  0.60058750  1
  O  O341  1  0.95725131  0.30385285  0.64736563  1
  O  O342  1  0.52122025  0.09969942  0.58076008  1
  O  O343  1  0.01640043  0.58246095  0.64805159  1
  O  O344  1  0.43308492  0.75423802  0.58332112  1
  O  O345  1  0.94461366  0.19129686  0.60255154  1
  O  O346  1  0.54722039  0.19339249  0.62706988  1
  O  O347  1  0.00896334  0.69562932  0.60348350  1
  O  O348  1  0.43627196  0.70047909  0.63480112  1
  O  O349  1  0.29084284  0.88858448  0.71574550  1
  O  O350  1  0.18589778  0.49416675  0.69410459  1
  O  O351  1  0.68232307  0.99461238  0.71559410  1
  O  O352  1  0.79803477  0.38514028  0.69486153  1
  O  O353  1  0.65404501  0.38281925  0.75981442  1
  O  O354  1  0.82263932  0.49701047  0.74082600  1
  O  O355  1  0.32258512  0.49701440  0.75916821  1
  O  O356  1  0.15408277  0.38280598  0.74018782  1
  O  O357  1  0.98409548  0.86451302  0.68489578  1
  O  O358  1  0.48928798  0.52099015  0.72523822  1
  O  O359  1  0.97800206  0.02645235  0.68643969  1
  O  O360  1  0.49281710  0.35985097  0.72450432  1
  O  O361  1  0.62068110  0.82678196  0.72405866  1
  O  O362  1  0.85367930  0.55647265  0.68570378  1
  O  O363  1  0.35365562  0.05654057  0.72528980  1
  O  O364  1  0.12495997  0.32668888  0.68487748  1
  O  O365  1  0.95726447  0.79933346  0.73798272  1
  O  O366  1  0.52054636  0.57355177  0.67318965  1
  O  O367  1  0.01973822  0.08555264  0.73795014  1
  O  O368  1  0.46290273  0.29689013  0.67238688  1
  O  O369  1  0.94479847  0.69145155  0.69247610  1
  O  O370  1  0.53243469  0.69034495  0.71761911  1
  O  O371  1  0.03884694  0.18861970  0.69058129  1
  O  O372  1  0.44246054  0.19241163  0.71763980  1
  O  O373  1  0.29810203  0.38510043  0.80513953  1
  O  O374  1  0.18237495  0.99457970  0.78438977  1
  O  O375  1  0.68610183  0.49412804  0.80589104  1
  O  O376  1  0.79088634  0.88853839  0.78425193  1
  O  O377  1  0.65669517  0.89122413  0.84773452  1
  O  O378  1  0.82696012  0.99923124  0.83035340  1
  O  O379  1  0.32851123  0.00177551  0.85069873  1
  O  O380  1  0.15684966  0.88235888  0.83174514  1
  O  O381  1  0.99283279  0.35982101  0.77548475  1
  O  O382  1  0.47801097  0.02645648  0.81356783  1
  O  O383  1  0.98930619  0.52097078  0.77476784  1
  O  O384  1  0.48406694  0.86451963  0.81510116  1
  O  O385  1  0.62502182  0.32666477  0.81512166  1
  O  O386  1  0.85365448  0.05656808  0.77470916  1
  O  O387  1  0.35388785  0.55641309  0.81426730  1
  O  O388  1  0.12068359  0.82677747  0.77592520  1
  O  O389  1  0.96295447  0.29687207  0.82761111  1
  O  O390  1  0.51979631  0.08553303  0.76204056  1
  O  O391  1  0.02064126  0.57352006  0.82681225  1
  O  O392  1  0.45728577  0.79935870  0.76200714  1
  O  O393  1  0.94258326  0.19239077  0.78235571  1
  O  O394  1  0.53892180  0.18858319  0.80941326  1
  O  O395  1  0.03249577  0.69031186  0.78237829  1
  O  O396  1  0.44492481  0.69142414  0.80749484  1
  O  O397  1  0.26939973  0.89818699  0.89658683  1
  O  O398  1  0.18109418  0.49971605  0.87449269  1
  O  O399  1  0.68631173  0.99001694  0.89755577  1
  O  O400  1  0.80095411  0.39047193  0.87392796  1
  O  O401  1  0.66448977  0.36307329  0.94125132  1
  O  O402  1  0.80524082  0.50671856  0.92192492  1
  O  O403  1  0.34899052  0.50564354  0.94465500  1
  O  O404  1  0.13372380  0.40176507  0.91882703  1
  O  O405  1  0.98226884  0.87015008  0.86727051  1
  O  O406  1  0.51633762  0.50700310  0.90618202  1
  O  O407  1  0.98657974  0.02916578  0.86473035  1
  O  O408  1  0.45947418  0.36952547  0.90892552  1
  O  O409  1  0.60049197  0.83061360  0.89940421  1
  O  O410  1  0.85116066  0.56348334  0.86739677  1
  O  O411  1  0.35305862  0.06066687  0.90912452  1
  O  O412  1  0.12600774  0.33073419  0.86382815  1
  O  O413  1  0.93308225  0.75425518  0.91667698  1
  O  O414  1  0.51643735  0.58249654  0.85193146  1
  O  O415  1  0.02121092  0.09971795  0.91924261  1
  O  O416  1  0.45730085  0.30383819  0.85262861  1
  O  O417  1  0.93631982  0.70046797  0.86520129  1
  O  O418  1  0.50883315  0.69562614  0.89650365  1
  O  O419  1  0.04727425  0.19337175  0.87292575  1
  O  O420  1  0.44472371  0.19124595  0.89743850  1
  O  O421  1  0.18625772  0.98577274  0.96277686  1
  O  O422  1  0.77222704  0.88159409  0.95822590  1
  O  O423  1  0.99112021  0.34791704  0.94997629  1
  O  O424  1  0.97557423  0.51219231  0.95886368  1
  O  O425  1  0.57345260  0.48535911  0.98749648  1
  O  O426  1  0.84515348  0.07557964  0.95470299  1
  O  O427  1  0.06915882  0.84373983  0.93720111  1
  O  O428  1  0.91171499  0.37027893  0.00757489  1
  O  O429  1  0.53626196  0.08744401  0.94363471  1
  O  O430  1  0.26406580  0.54356909  0.01009496  1
  O  O431  1  0.44731090  0.80318664  0.94040721  1
  O  O432  1  0.97593592  0.18604952  0.96728457  1
  O  O433  1  0.59125828  0.14737887  0.99603026  1
  O  O434  1  0.07466092  0.69752081  0.96450491  1
  O  O435  1  0.37422469  0.70145411  0.97739173  1
