# generated using pymatgen
data_Na14Zr10Si8P4O53
_symmetry_space_group_name_H-M   'P 1'
_cell_length_a   9.27295600
_cell_length_b   15.80284349
_cell_length_c   41.79642331
_cell_angle_alpha   90.00000000
_cell_angle_beta   90.00000000
_cell_angle_gamma   56.43985526
_symmetry_Int_Tables_number   1
_chemical_formula_structural   Na14Zr10Si8P4O53
_chemical_formula_sum   'Na56 Zr40 Si32 P16 O212'
_cell_volume   5103.84005624
_cell_formula_units_Z   4
loop_
 _symmetry_equiv_pos_site_id
 _symmetry_equiv_pos_as_xyz
  1  'x, y, z'
loop_
 _atom_site_type_symbol
 _atom_site_label
 _atom_site_symmetry_multiplicity
 _atom_site_fract_x
 _atom_site_fract_y
 _atom_site_fract_z
 _atom_site_occupancy
  Na  Na0  1  0.62381018  0.88165268  0.05395405  1
  Na  Na1  1  0.03895074  0.33566932  0.05299854  1
  Na  Na2  1  0.67700779  0.26884909  0.04543496  1
  Na  Na3  1  0.78997770  0.57766546  0.06405173  1
  Na  Na4  1  0.17176470  0.10606900  0.00544083  1
  Na  Na5  1  0.38846378  0.23518765  0.10779188  1
  Na  Na6  1  0.63029632  0.38558106  0.16948559  1
  Na  Na7  1  0.18668998  0.93749814  0.09731285  1
  Na  Na8  1  0.99101330  0.76901326  0.16475702  1
  Na  Na9  1  0.79527939  0.06920887  0.16960682  1
  Na  Na10  1  0.32809268  0.54168296  0.11264421  1
  Na  Na11  1  0.44886068  0.75769555  0.22171703  1
  Na  Na12  1  0.62551657  0.89176390  0.27716029  1
  Na  Na13  1  0.12553185  0.39176296  0.22289284  1
  Na  Na14  1  0.94876615  0.25773525  0.27829349  1
  Na  Na15  1  0.78279045  0.57722601  0.27909687  1
  Na  Na16  1  0.28286073  0.07717684  0.22092322  1
  Na  Na17  1  0.49073650  0.26895744  0.33526728  1
  Na  Na18  1  0.68620217  0.43767252  0.40269429  1
  Na  Na19  1  0.13001176  0.88557333  0.33055175  1
  Na  Na20  1  0.88777760  0.73542970  0.39224072  1
  Na  Na21  1  0.82789328  0.04178782  0.38737903  1
  Na  Na22  1  0.29500647  0.56934682  0.33043836  1
  Na  Na23  1  0.17695527  0.76901540  0.45449761  1
  Na  Na24  1  0.53857105  0.83587261  0.44703180  1
  Na  Na25  1  0.12320712  0.38176272  0.44608453  1
  Na  Na26  1  0.67133193  0.60636913  0.49456547  1
  Na  Na27  1  0.28962394  0.07780047  0.43598393  1
  Na  Na28  1  0.15128927  0.19326405  0.55391290  1
  Na  Na29  1  0.73551931  0.73953771  0.55299104  1
  Na  Na30  1  0.09774560  0.80594788  0.54548726  1
  Na  Na31  1  0.98406558  0.49751721  0.56376871  1
  Na  Na32  1  0.60378673  0.96915368  0.50538982  1
  Na  Na33  1  0.38571854  0.83968559  0.60772310  1
  Na  Na34  1  0.14454613  0.68949004  0.66942363  1
  Na  Na35  1  0.58829154  0.13724865  0.59736963  1
  Na  Na36  1  0.78400668  0.30611790  0.66472349  1
  Na  Na37  1  0.97891576  0.00630812  0.66963601  1
  Na  Na38  1  0.44677279  0.53325240  0.61256770  1
  Na  Na39  1  0.32665265  0.31761125  0.72160055  1
  Na  Na40  1  0.15019832  0.18346628  0.77711629  1
  Na  Na41  1  0.65024973  0.68346700  0.72292675  1
  Na  Na42  1  0.82679465  0.81761109  0.77837519  1
  Na  Na43  1  0.99299597  0.49759060  0.77911541  1
  Na  Na44  1  0.49297336  0.99763022  0.72087832  1
  Na  Na45  1  0.28413155  0.80604834  0.83525092  1
  Na  Na46  1  0.08847704  0.63722067  0.90258724  1
  Na  Na47  1  0.64478089  0.18949815  0.83058854  1
  Na  Na48  1  0.88637702  0.33943876  0.89230450  1
  Na  Na49  1  0.94703437  0.03310510  0.88743565  1
  Na  Na50  1  0.47959334  0.50589301  0.83039790  1
  Na  Na51  1  0.59821083  0.30572626  0.95455491  1
  Na  Na52  1  0.23599568  0.23932203  0.94705871  1
  Na  Na53  1  0.65161368  0.69302482  0.94604760  1
  Na  Na54  1  0.10412915  0.46899398  0.99462502  1
  Na  Na55  1  0.48424909  0.99744598  0.93629303  1
  Zr  Zr56  1  0.05013344  0.67238980  0.04538046  1
  Zr  Zr57  1  0.95411129  0.92157520  0.02746794  1
  Zr  Zr58  1  0.54998771  0.49646061  0.03200042  1
  Zr  Zr59  1  0.46418886  0.17260602  0.02540980  1
  Zr  Zr60  1  0.98176179  0.17271617  0.14132155  1
  Zr  Zr61  1  0.09253003  0.46688192  0.13865128  1
  Zr  Zr62  1  0.59913637  0.96843123  0.14159407  1
  Zr  Zr63  1  0.48488510  0.67898275  0.14094610  1
  Zr  Zr64  1  0.98199792  0.67484843  0.24902755  1
  Zr  Zr65  1  0.09534717  0.97398529  0.25039242  1
  Zr  Zr66  1  0.59527666  0.47398054  0.24962853  1
  Zr  Zr67  1  0.48196965  0.17484417  0.25098983  1
  Zr  Zr68  1  0.98462287  0.17909127  0.35906758  1
  Zr  Zr69  1  0.09895370  0.46853365  0.35842879  1
  Zr  Zr70  1  0.59234542  0.96700879  0.36135858  1
  Zr  Zr71  1  0.48163073  0.67280970  0.35868707  1
  Zr  Zr72  1  0.96362441  0.67300008  0.47459590  1
  Zr  Zr73  1  0.04980567  0.99657263  0.46799668  1
  Zr  Zr74  1  0.45335976  0.42188943  0.47253870  1
  Zr  Zr75  1  0.54956673  0.17271738  0.45462696  1
  Zr  Zr76  1  0.72474771  0.40239954  0.54527611  1
  Zr  Zr77  1  0.82086155  0.15360800  0.52731734  1
  Zr  Zr78  1  0.22419915  0.57869037  0.53191058  1
  Zr  Zr79  1  0.31096318  0.90213039  0.52533369  1
  Zr  Zr80  1  0.79339713  0.90211926  0.64128574  1
  Zr  Zr81  1  0.68247928  0.60780356  0.63856540  1
  Zr  Zr82  1  0.17615568  0.10642737  0.64160362  1
  Zr  Zr83  1  0.29027711  0.39582350  0.64081120  1
  Zr  Zr84  1  0.79319784  0.40052500  0.74908224  1
  Zr  Zr85  1  0.67998624  0.10128895  0.75043460  1
  Zr  Zr86  1  0.17992798  0.60129097  0.74954165  1
  Zr  Zr87  1  0.29325616  0.90047441  0.75092484  1
  Zr  Zr88  1  0.79037961  0.89577335  0.85914909  1
  Zr  Zr89  1  0.67628738  0.60637495  0.85840266  1
  Zr  Zr90  1  0.18267320  0.10770930  0.86143116  1
  Zr  Zr91  1  0.29356758  0.40206341  0.85869684  1
  Zr  Zr92  1  0.81130109  0.40196169  0.97464884  1
  Zr  Zr93  1  0.72468716  0.07842009  0.96808598  1
  Zr  Zr94  1  0.32118368  0.65319526  0.97259671  1
  Zr  Zr95  1  0.22516232  0.90215394  0.95469644  1
  Si  Si96  1  0.32174986  0.72274623  0.06685066  1
  Si  Si97  1  0.26851500  0.42654753  0.06011715  1
  Si  Si98  1  0.29737586  0.21139755  0.17249518  1
  Si  Si99  1  0.76790986  0.43155270  0.10804958  1
  Si  Si100  1  0.27521930  0.93160150  0.17246003  1
  Si  Si101  1  0.82000936  0.70927650  0.11267355  1
  Si  Si102  1  0.30179665  0.71280350  0.27985741  1
  Si  Si103  1  0.77691057  0.93470562  0.22008792  1
  Si  Si104  1  0.27688808  0.43470379  0.27995945  1
  Si  Si105  1  0.80175367  0.21278748  0.22015282  1
  Si  Si106  1  0.31971530  0.20935998  0.38733734  1
  Si  Si107  1  0.77511726  0.43168169  0.32754605  1
  Si  Si108  1  0.26771256  0.93170289  0.39194553  1
  Si  Si109  1  0.79729121  0.71146460  0.32752277  1
  Si  Si110  1  0.76803767  0.92684000  0.43990722  1
  Si  Si111  1  0.82116327  0.22293798  0.43315343  1
  Si  Si112  1  0.45294649  0.35248286  0.56673627  1
  Si  Si113  1  0.50649461  0.64810265  0.55997633  1
  Si  Si114  1  0.47788353  0.86332714  0.67233635  1
  Si  Si115  1  0.00697525  0.64310704  0.60798119  1
  Si  Si116  1  0.50004090  0.14340611  0.67247893  1
  Si  Si117  1  0.95518391  0.36539187  0.61262454  1
  Si  Si118  1  0.47346975  0.36246497  0.77981205  1
  Si  Si119  1  0.99827347  0.14072856  0.72010410  1
  Si  Si120  1  0.49823801  0.64067799  0.77991335  1
  Si  Si121  1  0.97350800  0.86249150  0.72014455  1
  Si  Si122  1  0.45535112  0.86529076  0.88736404  1
  Si  Si123  1  0.00005258  0.64338289  0.82749341  1
  Si  Si124  1  0.50721315  0.14302212  0.89200185  1
  Si  Si125  1  0.97787188  0.36330723  0.82767414  1
  Si  Si126  1  0.00687628  0.14790100  0.94002915  1
  Si  Si127  1  0.95313573  0.85227840  0.93326128  1
  P  P128  1  0.29709882  0.07391619  0.07688141  1
  P  P129  1  0.77661693  0.07846493  0.09193835  1
  P  P130  1  0.28868240  0.57003516  0.18420351  1
  P  P131  1  0.79013505  0.57073541  0.20403379  1
  P  P132  1  0.28996128  0.07082706  0.29598156  1
  P  P133  1  0.78861018  0.07006076  0.31580718  1
  P  P134  1  0.27613275  0.57875565  0.40806177  1
  P  P135  1  0.79684910  0.57404725  0.42313773  1
  P  P136  1  0.47754953  0.00087062  0.57692181  1
  P  P137  1  0.99787467  0.99679873  0.59182833  1
  P  P138  1  0.48628739  0.50495183  0.68416726  1
  P  P139  1  0.98502955  0.50447910  0.70393346  1
  P  P140  1  0.48515626  0.00444161  0.79604166  1
  P  P141  1  0.98632451  0.00500056  0.81582619  1
  P  P142  1  0.49842449  0.49651660  0.90810202  1
  P  P143  1  0.97802326  0.50071741  0.92308057  1
  O  O144  1  0.50371268  0.63369959  0.05053770  1
  O  O145  1  0.08815671  0.52853042  0.04617951  1
  O  O146  1  0.92750517  0.00986960  0.06786404  1
  O  O147  1  0.61350044  0.15370683  0.07196454  1
  O  O148  1  0.29574066  0.00730195  0.05031734  1
  O  O149  1  0.29001700  0.16795203  0.06294784  1
  O  O150  1  0.20653467  0.67291423  0.07630338  1
  O  O151  1  0.42912358  0.44147721  0.05641084  1
  O  O152  1  0.69958820  0.02761407  0.01569089  1
  O  O153  1  0.82886360  0.71428835  0.07301229  1
  O  O154  1  0.00922540  0.96913663  0.98766143  1
  O  O155  1  0.74141537  0.42757116  0.06890484  1
  O  O156  1  0.35423994  0.14834888  0.99213510  1
  O  O157  1  0.90443959  0.81236008  0.02772475  1
  O  O158  1  0.20217455  0.81919034  0.04323663  1
  O  O159  1  0.68189392  0.36627111  0.00557962  1
  O  O160  1  0.30403564  0.32916266  0.03950124  1
  O  O161  1  0.47525257  0.12442935  0.15424397  1
  O  O162  1  0.58929887  0.52562139  0.12454417  1
  O  O163  1  0.09684033  0.01555666  0.15367497  1
  O  O164  1  0.00925163  0.61520604  0.12559766  1
  O  O165  1  0.14032568  0.11563481  0.09962399  1
  O  O166  1  0.94970464  0.51476023  0.18164295  1
  O  O167  1  0.46824929  0.00583076  0.09605939  1
  O  O168  1  0.62052010  0.62515684  0.18484933  1
  O  O169  1  0.81859689  0.14334868  0.11233908  1
  O  O170  1  0.29373193  0.48540142  0.16400913  1
  O  O171  1  0.75686271  0.00779377  0.11400481  1
  O  O172  1  0.29359351  0.64618242  0.16116741  1
  O  O173  1  0.14981602  0.18575713  0.16694674  1
  O  O174  1  0.92462536  0.45185587  0.11157709  1
  O  O175  1  0.42603246  0.95214134  0.16308529  1
  O  O176  1  0.67799371  0.68302821  0.12191075  1
  O  O177  1  0.81929998  0.20963734  0.18063914  1
  O  O178  1  0.25624868  0.41210727  0.09864388  1
  O  O179  1  0.75973183  0.93485725  0.18077999  1
  O  O180  1  0.34493531  0.76131479  0.10117081  1
  O  O181  1  0.82794124  0.32345779  0.12547454  1
  O  O182  1  0.23160228  0.32180810  0.15644737  1
  O  O183  1  0.76880965  0.81831402  0.12743349  1
  O  O184  1  0.34111210  0.81480197  0.16397526  1
  O  O185  1  0.48305918  0.62933401  0.26163634  1
  O  O186  1  0.59569016  0.02054362  0.23782271  1
  O  O187  1  0.09572763  0.52053471  0.26222701  1
  O  O188  1  0.98301888  0.12932326  0.23837660  1
  O  O189  1  0.12105252  0.63189758  0.20420242  1
  O  O190  1  0.95122807  0.01627563  0.29419741  1
  O  O191  1  0.45129492  0.51628562  0.20581542  1
  O  O192  1  0.62094857  0.13188082  0.29581201  1
  O  O193  1  0.79185823  0.65126194  0.22489336  1
  O  O194  1  0.29851163  0.98921459  0.27394854  1
  O  O195  1  0.79859892  0.48915410  0.22606564  1
  O  O196  1  0.29167595  0.15134040  0.27511693  1
  O  O197  1  0.15560273  0.68783133  0.27217577  1
  O  O198  1  0.92627037  0.95840727  0.22637534  1
  O  O199  1  0.42620874  0.45843570  0.27364433  1
  O  O200  1  0.65555916  0.18782516  0.22783810  1
  O  O201  1  0.81852397  0.71583570  0.28866969  1
  O  O202  1  0.25647697  0.93912871  0.21169048  1
  O  O203  1  0.75647545  0.43915034  0.28831267  1
  O  O204  1  0.31847131  0.21587713  0.21134767  1
  O  O205  1  0.83490663  0.82340493  0.23404041  1
  O  O206  1  0.24131073  0.82609334  0.26719286  1
  O  O207  1  0.74125257  0.32609961  0.23280335  1
  O  O208  1  0.33492319  0.32337998  0.26601471  1
  O  O209  1  0.50894869  0.11534128  0.37439877  1
  O  O210  1  0.59672084  0.51563642  0.34632850  1
  O  O211  1  0.08909394  0.02572981  0.37544553  1
  O  O212  1  0.97510652  0.62452389  0.34578499  1
  O  O213  1  0.12032813  0.12521029  0.31516084  1
  O  O214  1  0.96802534  0.50592678  0.40396804  1
  O  O215  1  0.44951828  0.01484913  0.31837669  1
  O  O216  1  0.64005367  0.61572755  0.40039771  1
  O  O217  1  0.79344342  0.14625817  0.33882391  1
  O  O218  1  0.25652746  0.50801227  0.38600370  1
  O  O219  1  0.79362962  0.98546465  0.33601824  1
  O  O220  1  0.31828507  0.64353662  0.38764688  1
  O  O221  1  0.17777929  0.18305831  0.37809816  1
  O  O222  1  0.92586216  0.45227027  0.33692368  1
  O  O223  1  0.42450116  0.95193882  0.38843489  1
  O  O224  1  0.64970879  0.68584043  0.33307632  1
  O  O225  1  0.84446989  0.26146613  0.39883501  1
  O  O226  1  0.25966029  0.43487506  0.31926355  1
  O  O227  1  0.75593865  0.91235424  0.40137680  1
  O  O228  1  0.31922684  0.70968617  0.31936771  1
  O  O229  1  0.84099904  0.31489223  0.33603097  1
  O  O230  1  0.26844993  0.31839945  0.37257247  1
  O  O231  1  0.73149155  0.82190195  0.34355307  1
  O  O232  1  0.32775253  0.82357382  0.37453169  1
  O  O233  1  0.58773800  0.02884699  0.45384306  1
  O  O234  1  0.00320413  0.13393331  0.44945433  1
  O  O235  1  0.11297167  0.65406998  0.42801309  1
  O  O236  1  0.42692277  0.51023962  0.43216243  1
  O  O237  1  0.78964650  0.66813256  0.43706156  1
  O  O238  1  0.79547182  0.50747397  0.44971035  1
  O  O239  1  0.19888603  0.52796221  0.48432805  1
  O  O240  1  0.92884050  0.94160569  0.44361487  1
  O  O241  1  0.70597635  0.17310179  0.42366823  1
  O  O242  1  0.85339505  0.64894008  0.50785677  1
  O  O243  1  0.24112477  0.92775381  0.43109106  1
  O  O244  1  0.50857557  0.46941549  0.51234025  1
  O  O245  1  0.32845023  0.21439465  0.42699457  1
  O  O246  1  0.80333135  0.82950195  0.46052075  1
  O  O247  1  0.18171499  0.86635307  0.49440737  1
  O  O248  1  0.70132837  0.31936663  0.45675823  1
  O  O249  1  0.40356125  0.31272747  0.47227484  1
  O  O250  1  0.27063435  0.44148844  0.55052230  1
  O  O251  1  0.68695292  0.54612841  0.54603841  1
  O  O252  1  0.84702398  0.06561572  0.56775881  1
  O  O253  1  0.16075887  0.92138549  0.57182517  1
  O  O254  1  0.47950085  0.06713635  0.55030211  1
  O  O255  1  0.48419688  0.90683935  0.56312177  1
  O  O256  1  0.56833059  0.40214500  0.57627429  1
  O  O257  1  0.34584051  0.63319943  0.55631102  1
  O  O258  1  0.07538607  0.04721277  0.51551181  1
  O  O259  1  0.94593558  0.36054150  0.57296534  1
  O  O260  1  0.76527876  0.10579632  0.48761068  1
  O  O261  1  0.03312917  0.64777015  0.56885669  1
  O  O262  1  0.42272213  0.92576606  0.49230460  1
  O  O263  1  0.87095546  0.26268307  0.52742979  1
  O  O264  1  0.57285600  0.25642933  0.54297626  1
  O  O265  1  0.09344593  0.70878028  0.50539817  1
  O  O266  1  0.47119561  0.74540809  0.53933383  1
  O  O267  1  0.29992592  0.95039948  0.65412595  1
  O  O268  1  0.18589277  0.54903237  0.62440345  1
  O  O269  1  0.67829355  0.05939675  0.65366363  1
  O  O270  1  0.76594890  0.45946698  0.62555923  1
  O  O271  1  0.63424013  0.95925280  0.59968778  1
  O  O272  1  0.82522133  0.56022870  0.68158458  1
  O  O273  1  0.30633295  0.06940745  0.59603710  1
  O  O274  1  0.15448851  0.45001258  0.68470623  1
  O  O275  1  0.95546273  0.93201544  0.61219234  1
  O  O276  1  0.48128558  0.58947593  0.66388830  1
  O  O277  1  0.01809342  0.06718092  0.61393940  1
  O  O278  1  0.48136888  0.42873391  0.66117470  1
  O  O279  1  0.62546785  0.88896286  0.66687132  1
  O  O280  1  0.85066666  0.62251923  0.61145795  1
  O  O281  1  0.34925282  0.12278883  0.66309936  1
  O  O282  1  0.09738696  0.39142912  0.62189507  1
  O  O283  1  0.95562092  0.86545229  0.68063663  1
  O  O284  1  0.51896033  0.66263615  0.59849557  1
  O  O285  1  0.01541126  0.14037779  0.68079487  1
  O  O286  1  0.43016370  0.31342627  0.60100408  1
  O  O287  1  0.94699516  0.75115236  0.62550246  1
  O  O288  1  0.54358158  0.75299559  0.65627856  1
  O  O289  1  0.00615912  0.25639308  0.62736766  1
  O  O290  1  0.43418632  0.26017426  0.66394997  1
  O  O291  1  0.29244044  0.44590133  0.76152677  1
  O  O292  1  0.17967535  0.05490115  0.73780589  1
  O  O293  1  0.67959444  0.55490752  0.76218855  1
  O  O294  1  0.79247917  0.94594658  0.73842795  1
  O  O295  1  0.65366361  0.44330461  0.70424247  1
  O  O296  1  0.82350871  0.05910206  0.79426799  1
  O  O297  1  0.32347331  0.55901866  0.70572206  1
  O  O298  1  0.15370405  0.94334730  0.79575276  1
  O  O299  1  0.98361488  0.42399445  0.72489827  1
  O  O300  1  0.47661562  0.08620873  0.77407743  1
  O  O301  1  0.97657985  0.58622088  0.72589832  1
  O  O302  1  0.48373811  0.92394659  0.77508622  1
  O  O303  1  0.61957372  0.38764818  0.77227328  1
  O  O304  1  0.84909848  0.11695081  0.72647063  1
  O  O305  1  0.34898704  0.61698142  0.77351121  1
  O  O306  1  0.11960734  0.88763600  0.72772011  1
  O  O307  1  0.95644557  0.35918894  0.78879858  1
  O  O308  1  0.51906490  0.13586224  0.71169900  1
  O  O309  1  0.01908625  0.63577712  0.78827137  1
  O  O310  1  0.45653667  0.85911414  0.71121105  1
  O  O311  1  0.94027880  0.25204695  0.73401922  1
  O  O312  1  0.53413238  0.24921650  0.76710175  1
  O  O313  1  0.03409882  0.74923831  0.73285106  1
  O  O314  1  0.44023771  0.75204234  0.76602899  1
  O  O315  1  0.26603733  0.95936841  0.87445393  1
  O  O316  1  0.17824239  0.55936117  0.84633364  1
  O  O317  1  0.68604488  0.04893705  0.87556877  1
  O  O318  1  0.79990388  0.45030136  0.84590176  1
  O  O319  1  0.65466572  0.95000194  0.81525458  1
  O  O320  1  0.80699306  0.56926916  0.90391265  1
  O  O321  1  0.32539356  0.06013788  0.81840569  1
  O  O322  1  0.13499864  0.45908739  0.90037890  1
  O  O323  1  0.98144504  0.92875585  0.83880616  1
  O  O324  1  0.51842260  0.56720437  0.88610976  1
  O  O325  1  0.98136361  0.08949633  0.83611970  1
  O  O326  1  0.45640032  0.43181459  0.88759617  1
  O  O327  1  0.59748810  0.89131376  0.87802382  1
  O  O328  1  0.84920762  0.62281637  0.83685924  1
  O  O329  1  0.35092386  0.12241054  0.88852520  1
  O  O330  1  0.12546302  0.38891262  0.83317414  1
  O  O331  1  0.93015798  0.81345038  0.89896632  1
  O  O332  1  0.51554868  0.64014416  0.81921929  1
  O  O333  1  0.01939873  0.16242616  0.90151537  1
  O  O334  1  0.45554023  0.36538113  0.81931529  1
  O  O335  1  0.93444799  0.76011871  0.83600042  1
  O  O336  1  0.50624607  0.75629569  0.87263276  1
  O  O337  1  0.04368474  0.25290817  0.84369967  1
  O  O338  1  0.44724125  0.25109055  0.87450575  1
  O  O339  1  0.18730677  0.04592946  0.95396949  1
  O  O340  1  0.77097384  0.94121776  0.94952836  1
  O  O341  1  0.66122583  0.42107417  0.92811776  1
  O  O342  1  0.34740746  0.56510181  0.93217337  1
  O  O343  1  0.98456535  0.40669160  0.93685625  1
  O  O344  1  0.97967008  0.56700795  0.94972655  1
  O  O345  1  0.57574832  0.54705079  0.98446256  1
  O  O346  1  0.84624155  0.13296985  0.94367530  1
  O  O347  1  0.06846034  0.90200617  0.92375498  1
  O  O348  1  0.92344015  0.42529420  0.00766548  1
  O  O349  1  0.53361404  0.14754259  0.93112949  1
  O  O350  1  0.26574340  0.60550157  0.01235823  1
  O  O351  1  0.44641893  0.86038751  0.92703502  1
  O  O352  1  0.97156551  0.24521969  0.96066834  1
  O  O353  1  0.59390487  0.20847459  0.99460708  1
  O  O354  1  0.07308274  0.75602961  0.95695149  1
  O  O355  1  0.37126642  0.76225748  0.97243624  1
