# generated using pymatgen
data_Na17Zr12Si10(PO13)5
_symmetry_space_group_name_H-M   'P 1'
_cell_length_a   9.27295600
_cell_length_b   15.80284349
_cell_length_c   51.70761531
_cell_angle_alpha   90.00000000
_cell_angle_beta   90.00000000
_cell_angle_gamma   56.43985526
_symmetry_Int_Tables_number   1
_chemical_formula_structural   Na17Zr12Si10(PO13)5
_chemical_formula_sum   'Na68 Zr48 Si40 P20 O260'
_cell_volume   6314.11439936
_cell_formula_units_Z   4
loop_
 _symmetry_equiv_pos_site_id
 _symmetry_equiv_pos_as_xyz
  1  'x, y, z'
loop_
 _atom_site_type_symbol
 _atom_site_label
 _atom_site_symmetry_multiplicity
 _atom_site_fract_x
 _atom_site_fract_y
 _atom_site_fract_z
 _atom_site_occupancy
  Na  Na0  1  0.34820175  0.57374231  0.00159358  1
  Na  Na1  1  0.46111453  0.69717766  0.04254060  1
  Na  Na2  1  0.92174312  0.23041916  0.02853027  1
  Na  Na3  1  0.73876732  0.10610233  0.06145885  1
  Na  Na4  1  0.65266182  0.43558560  0.05550625  1
  Na  Na5  1  0.21926095  0.41460884  0.09453377  1
  Na  Na6  1  0.33792971  0.10608094  0.09140938  1
  Na  Na7  1  0.53600959  0.23866985  0.13984889  1
  Na  Na8  1  0.02528048  0.73940906  0.09592847  1
  Na  Na9  1  0.85810183  0.60477420  0.14048698  1
  Na  Na10  1  0.69472082  0.92617550  0.14084442  1
  Na  Na11  1  0.20972454  0.91932374  0.18041986  1
  Na  Na12  1  0.36596702  0.60705342  0.18327657  1
  Na  Na13  1  0.53841338  0.74262893  0.22718621  1
  Na  Na14  1  0.03784797  0.23956748  0.18367365  1
  Na  Na15  1  0.87085339  0.10290912  0.22700595  1
  Na  Na16  1  0.70078343  0.42448371  0.23154503  1
  Na  Na17  1  0.20081256  0.42447443  0.26845448  1
  Na  Na18  1  0.37089879  0.10290922  0.27299973  1
  Na  Na19  1  0.53789227  0.23956652  0.31632772  1
  Na  Na20  1  0.03845602  0.74262378  0.27281048  1
  Na  Na21  1  0.86599015  0.60702762  0.31672244  1
  Na  Na22  1  0.70974179  0.91931342  0.31957948  1
  Na  Na23  1  0.19480732  0.92613712  0.35915399  1
  Na  Na24  1  0.35813345  0.60478024  0.35951227  1
  Na  Na25  1  0.52532434  0.73940972  0.40407047  1
  Na  Na26  1  0.03609722  0.23868400  0.36015387  1
  Na  Na27  1  0.83808134  0.10611568  0.40858235  1
  Na  Na28  1  0.71928128  0.41460822  0.40546884  1
  Na  Na29  1  0.15267973  0.43558541  0.44449002  1
  Na  Na30  1  0.23887505  0.10605499  0.43855155  1
  Na  Na31  1  0.42173798  0.23040793  0.47146307  1
  Na  Na32  1  0.96115794  0.69718403  0.45745352  1
  Na  Na33  1  0.84827883  0.57372646  0.49840366  1
  Na  Na34  1  0.17627975  0.07643341  0.50164640  1
  Na  Na35  1  0.06373321  0.95273007  0.54250150  1
  Na  Na36  1  0.60300580  0.42003665  0.52870170  1
  Na  Na37  1  0.78622614  0.54411029  0.56157407  1
  Na  Na38  1  0.87180136  0.21468161  0.55555969  1
  Na  Na39  1  0.30577350  0.23520233  0.59457215  1
  Na  Na40  1  0.18738558  0.54408013  0.59134878  1
  Na  Na41  1  0.98919882  0.41130565  0.63992271  1
  Na  Na42  1  0.49930199  0.91060609  0.59598717  1
  Na  Na43  1  0.66670910  0.04489253  0.64047471  1
  Na  Na44  1  0.83036806  0.72376182  0.64078789  1
  Na  Na45  1  0.31552352  0.73054186  0.68042956  1
  Na  Na46  1  0.15953799  0.04314725  0.68326133  1
  Na  Na47  1  0.98798022  0.90737068  0.72697559  1
  Na  Na48  1  0.48761058  0.41025348  0.68371270  1
  Na  Na49  1  0.65414559  0.54697459  0.72700274  1
  Na  Na50  1  0.82377712  0.22555516  0.73150608  1
  Na  Na51  1  0.32373975  0.22557440  0.76849487  1
  Na  Na52  1  0.15417115  0.54696830  0.77299284  1
  Na  Na53  1  0.98758352  0.41028082  0.81628299  1
  Na  Na54  1  0.48797291  0.90737007  0.77301960  1
  Na  Na55  1  0.65950073  0.04315841  0.81673292  1
  Na  Na56  1  0.81550407  0.73053724  0.81956802  1
  Na  Na57  1  0.33030843  0.72377161  0.85921119  1
  Na  Na58  1  0.16657488  0.04487671  0.85952361  1
  Na  Na59  1  0.99927649  0.91060159  0.90400650  1
  Na  Na60  1  0.48914958  0.41131220  0.86008414  1
  Na  Na61  1  0.68733586  0.54407552  0.90865225  1
  Na  Na62  1  0.80572847  0.23520957  0.90542909  1
  Na  Na63  1  0.37176097  0.21468960  0.94443565  1
  Na  Na64  1  0.28617692  0.54411748  0.93842977  1
  Na  Na65  1  0.10296573  0.42003668  0.97129813  1
  Na  Na66  1  0.56364710  0.95276810  0.95749377  1
  Na  Na67  1  0.67627908  0.07645253  0.99835190  1
  Zr  Zr68  1  0.93884143  0.50668931  0.03694654  1
  Zr  Zr69  1  0.03739820  0.81035854  0.02982909  1
  Zr  Zr70  1  0.47550272  0.31365859  0.02866876  1
  Zr  Zr71  1  0.35799956  0.05261067  0.02548037  1
  Zr  Zr72  1  0.90023923  0.02221827  0.11717283  1
  Zr  Zr73  1  0.00462646  0.32424284  0.11779719  1
  Zr  Zr74  1  0.50605461  0.82351474  0.11653303  1
  Zr  Zr75  1  0.39610663  0.52319800  0.11701088  1
  Zr  Zr76  1  0.89518936  0.52514679  0.20683147  1
  Zr  Zr77  1  0.00959408  0.82211857  0.20465090  1
  Zr  Zr78  1  0.51207504  0.32060512  0.20661933  1
  Zr  Zr79  1  0.39633550  0.02333915  0.20491069  1
  Zr  Zr80  1  0.89632345  0.02334480  0.29509063  1
  Zr  Zr81  1  0.01207904  0.32059463  0.29337749  1
  Zr  Zr82  1  0.50962023  0.82210662  0.29535317  1
  Zr  Zr83  1  0.39520951  0.52514135  0.29316854  1
  Zr  Zr84  1  0.89614677  0.52316660  0.38299120  1
  Zr  Zr85  1  0.00606367  0.82351491  0.38347156  1
  Zr  Zr86  1  0.50466986  0.32423330  0.38220288  1
  Zr  Zr87  1  0.40024506  0.02220638  0.38282772  1
  Zr  Zr88  1  0.85800207  0.05261227  0.47451662  1
  Zr  Zr89  1  0.97551660  0.31366467  0.47133595  1
  Zr  Zr90  1  0.53743684  0.81035205  0.47017329  1
  Zr  Zr91  1  0.43885423  0.50669142  0.46305180  1
  Zr  Zr92  1  0.58575607  0.14361207  0.53700458  1
  Zr  Zr93  1  0.48765320  0.84005895  0.52973109  1
  Zr  Zr94  1  0.04894793  0.33663514  0.52874380  1
  Zr  Zr95  1  0.16703584  0.59759646  0.52550562  1
  Zr  Zr96  1  0.62478261  0.62796798  0.61720265  1
  Zr  Zr97  1  0.52026869  0.32566623  0.61783331  1
  Zr  Zr98  1  0.01910850  0.82648650  0.61652637  1
  Zr  Zr99  1  0.12859710  0.12683715  0.61702247  1
  Zr  Zr100  1  0.63018825  0.12436375  0.70681550  1
  Zr  Zr101  1  0.51561816  0.82772351  0.70469468  1
  Zr  Zr102  1  0.01298451  0.32920022  0.70661175  1
  Zr  Zr103  1  0.12928374  0.62634103  0.70492425  1
  Zr  Zr104  1  0.62924221  0.62635559  0.79507244  1
  Zr  Zr105  1  0.51297558  0.32919620  0.79338969  1
  Zr  Zr106  1  0.01562379  0.82770845  0.79530005  1
  Zr  Zr107  1  0.13017580  0.12436630  0.79318235  1
  Zr  Zr108  1  0.62853892  0.12684873  0.88297799  1
  Zr  Zr109  1  0.51905741  0.82650094  0.88347133  1
  Zr  Zr110  1  0.02021834  0.32570690  0.88216430  1
  Zr  Zr111  1  0.12471294  0.62799080  0.88279840  1
  Zr  Zr112  1  0.66693662  0.59759992  0.97449368  1
  Zr  Zr113  1  0.54889632  0.33664697  0.97125944  1
  Zr  Zr114  1  0.98760763  0.84007223  0.97027121  1
  Zr  Zr115  1  0.08566559  0.14363753  0.96299717  1
  Si  Si116  1  0.22247012  0.57067095  0.05473124  1
  Si  Si117  1  0.68830709  0.28081984  0.09316024  1
  Si  Si118  1  0.13764978  0.30031750  0.05534310  1
  Si  Si119  1  0.71010184  0.56656450  0.09258432  1
  Si  Si120  1  0.21677008  0.06398166  0.14142523  1
  Si  Si121  1  0.68955802  0.78317211  0.18049871  1
  Si  Si122  1  0.18970354  0.78366324  0.14091972  1
  Si  Si123  1  0.71684181  0.06214995  0.18070534  1
  Si  Si124  1  0.21687606  0.56419462  0.22990179  1
  Si  Si125  1  0.69069094  0.28159377  0.26993610  1
  Si  Si126  1  0.19068750  0.28159640  0.23006132  1
  Si  Si127  1  0.71687510  0.56419913  0.27009871  1
  Si  Si128  1  0.21683726  0.06215349  0.31929643  1
  Si  Si129  1  0.68972167  0.78364549  0.35908344  1
  Si  Si130  1  0.18956932  0.78317383  0.31950421  1
  Si  Si131  1  0.71678997  0.06396493  0.35857846  1
  Si  Si132  1  0.21014568  0.56655735  0.40740631  1
  Si  Si133  1  0.63768996  0.30033048  0.44465974  1
  Si  Si134  1  0.18837972  0.28079428  0.40684803  1
  Si  Si135  1  0.72246511  0.57067927  0.44527069  1
  Si  Si136  1  0.30198353  0.07950628  0.55471365  1
  Si  Si137  1  0.83665810  0.36921636  0.59323768  1
  Si  Si138  1  0.38668288  0.35000169  0.55541182  1
  Si  Si139  1  0.81461268  0.08342659  0.59259364  1
  Si  Si140  1  0.30834210  0.58603894  0.64140948  1
  Si  Si141  1  0.83591239  0.86627973  0.68044155  1
  Si  Si142  1  0.33469942  0.86656412  0.64102819  1
  Si  Si143  1  0.80852801  0.58758481  0.68070665  1
  Si  Si144  1  0.30837634  0.08557288  0.72994305  1
  Si  Si145  1  0.83468919  0.36816637  0.76990840  1
  Si  Si146  1  0.33469495  0.36816165  0.73009104  1
  Si  Si147  1  0.80840002  0.08555726  0.77005505  1
  Si  Si148  1  0.30851060  0.58758876  0.81929510  1
  Si  Si149  1  0.83463127  0.86659698  0.85896364  1
  Si  Si150  1  0.33590010  0.86627653  0.81955165  1
  Si  Si151  1  0.80827074  0.58607824  0.85858950  1
  Si  Si152  1  0.31453400  0.08343189  0.90740158  1
  Si  Si153  1  0.88666537  0.35000709  0.94458806  1
  Si  Si154  1  0.33660322  0.36924753  0.90676945  1
  Si  Si155  1  0.80191400  0.07953126  0.94528544  1
  P  P156  1  0.69240666  0.92441712  0.07674512  1
  P  P157  1  0.20214617  0.92872593  0.06380584  1
  P  P158  1  0.70217600  0.42477900  0.16991676  1
  P  P159  1  0.20310751  0.42441346  0.15479768  1
  P  P160  1  0.70376478  0.92235190  0.25733342  1
  P  P161  1  0.20376860  0.92235501  0.24266840  1
  P  P162  1  0.70312394  0.42439333  0.34520514  1
  P  P163  1  0.20219602  0.42476122  0.33008321  1
  P  P164  1  0.70215634  0.92872614  0.43619804  1
  P  P165  1  0.19243045  0.92441019  0.42325540  1
  P  P166  1  0.83236872  0.72598266  0.57671879  1
  P  P167  1  0.32353215  0.72142665  0.56380051  1
  P  P168  1  0.82285359  0.22483335  0.66992811  1
  P  P169  1  0.32217437  0.22527629  0.65482383  1
  P  P170  1  0.82140244  0.72759896  0.75732041  1
  P  P171  1  0.32139780  0.72761006  0.74267897  1
  P  P172  1  0.82213148  0.22529430  0.84517711  1
  P  P173  1  0.32281441  0.22484585  0.83007001  1
  P  P174  1  0.82341819  0.72145415  0.93620707  1
  P  P175  1  0.33229632  0.72599983  0.92327853  1
  O  O176  1  0.38848727  0.47536247  0.04045488  1
  O  O177  1  0.93573082  0.37427799  0.04534265  1
  O  O178  1  0.03192687  0.98994999  0.07961991  1
  O  O179  1  0.85179026  0.86178522  0.05816055  1
  O  O180  1  0.35952478  0.86572824  0.08185598  1
  O  O181  1  0.52599211  0.98480053  0.06075463  1
  O  O182  1  0.19487557  0.85194868  0.04579803  1
  O  O183  1  0.67307295  0.29273107  0.00607296  1
  O  O184  1  0.22256713  0.99997026  0.04634162  1
  O  O185  1  0.03797429  0.58791181  0.04549626  1
  O  O186  1  0.07316449  0.73045300  0.99742014  1
  O  O187  1  0.20337986  0.37540622  0.04702940  1
  O  O188  1  0.53054268  0.99474046  0.00009138  1
  O  O189  1  0.72638592  0.57783337  0.06090594  1
  O  O190  1  0.16973281  0.28321016  0.08672395  1
  O  O191  1  0.66800713  0.28025682  0.06193954  1
  O  O192  1  0.22700881  0.56077650  0.08666888  1
  O  O193  1  0.87185494  0.53419565  0.00110142  1
  O  O194  1  0.21590783  0.67511651  0.04841168  1
  O  O195  1  0.53309381  0.17720748  0.03224533  1
  O  O196  1  0.21833315  0.18896326  0.04352455  1
  O  O197  1  0.39721019  0.97908127  0.12675961  1
  O  O198  1  0.50783495  0.36843383  0.10788988  1
  O  O199  1  0.00738880  0.86805331  0.12626102  1
  O  O200  1  0.89437628  0.47755560  0.10564591  1
  O  O201  1  0.03773832  0.48043702  0.17156962  1
  O  O202  1  0.86964710  0.36984094  0.15358564  1
  O  O203  1  0.36884452  0.36576484  0.17141819  1
  O  O204  1  0.53987261  0.48145504  0.15249242  1
  O  O205  1  0.71484500  0.99988463  0.09278117  1
  O  O206  1  0.20238960  0.34576464  0.13691649  1
  O  O207  1  0.69626292  0.84679988  0.09559676  1
  O  O208  1  0.20272203  0.50583562  0.13796588  1
  O  O209  1  0.06950712  0.03871989  0.13546443  1
  O  O210  1  0.83747154  0.30327789  0.10021410  1
  O  O211  1  0.33160697  0.81348031  0.13646693  1
  O  O212  1  0.56524621  0.53786986  0.09600596  1
  O  O213  1  0.73681236  0.06089655  0.14888621  1
  O  O214  1  0.16935304  0.78242014  0.17258802  1
  O  O215  1  0.66973312  0.78420819  0.14878116  1
  O  O216  1  0.23370584  0.06242868  0.17316458  1
  O  O217  1  0.73953481  0.17017827  0.10492658  1
  O  O218  1  0.15612876  0.17644897  0.13094502  1
  O  O219  1  0.65151668  0.67362058  0.10655415  1
  O  O220  1  0.25334486  0.67186273  0.12946830  1
  O  O221  1  0.40070292  0.47506332  0.21676271  1
  O  O222  1  0.50769168  0.86862403  0.19491819  1
  O  O223  1  0.00630891  0.37076231  0.21700772  1
  O  O224  1  0.89895155  0.97680397  0.19495566  1
  O  O225  1  0.03816214  0.97991553  0.25946791  1
  O  O226  1  0.86895028  0.86453294  0.24047392  1
  O  O227  1  0.36894732  0.86452268  0.25952923  1
  O  O228  1  0.53816778  0.97991014  0.24053266  1
  O  O229  1  0.69710904  0.50544667  0.18775368  1
  O  O230  1  0.20405472  0.84268397  0.22498508  1
  O  O231  1  0.70471443  0.34280835  0.18681891  1
  O  O232  1  0.20361827  0.00270497  0.22529342  1
  O  O233  1  0.06991690  0.53819537  0.22545877  1
  O  O234  1  0.83601214  0.80891578  0.18596136  1
  O  O235  1  0.33769008  0.30736329  0.22528625  1
  O  O236  1  0.56932616  0.03703045  0.18590540  1
  O  O237  1  0.73195835  0.56992226  0.23845677  1
  O  O238  1  0.17646063  0.27637809  0.26176971  1
  O  O239  1  0.67644747  0.27638643  0.23822913  1
  O  O240  1  0.23197149  0.56991255  0.26154320  1
  O  O241  1  0.74992862  0.67147424  0.19201736  1
  O  O242  1  0.15925107  0.67351101  0.21724584  1
  O  O243  1  0.65710693  0.17389522  0.19203876  1
  O  O244  1  0.24785095  0.17213054  0.21747805  1
  O  O245  1  0.39894918  0.97678719  0.30504886  1
  O  O246  1  0.50632438  0.37075932  0.28299584  1
  O  O247  1  0.00771772  0.86862474  0.30507720  1
  O  O248  1  0.90071122  0.47506693  0.28323648  1
  O  O249  1  0.03988436  0.48144093  0.34750601  1
  O  O250  1  0.86885148  0.36575430  0.32858088  1
  O  O251  1  0.36966538  0.36983197  0.34641513  1
  O  O252  1  0.53774882  0.48042592  0.32843599  1
  O  O253  1  0.70361520  0.00270623  0.27470790  1
  O  O254  1  0.20473132  0.34278666  0.31318105  1
  O  O255  1  0.70405941  0.84267633  0.27501349  1
  O  O256  1  0.19713144  0.50542747  0.31224501  1
  O  O257  1  0.06929537  0.03705690  0.31409702  1
  O  O258  1  0.83770459  0.30735199  0.27471190  1
  O  O259  1  0.33601197  0.80893250  0.31404549  1
  O  O260  1  0.56993215  0.53818941  0.27454047  1
  O  O261  1  0.73372939  0.06241979  0.32683807  1
  O  O262  1  0.16971485  0.78422020  0.35122078  1
  O  O263  1  0.66940247  0.78239274  0.32741306  1
  O  O264  1  0.23680782  0.06090682  0.35111635  1
  O  O265  1  0.74784212  0.17213494  0.28252062  1
  O  O266  1  0.15713793  0.17388804  0.30796054  1
  O  O267  1  0.65923253  0.67351677  0.28275428  1
  O  O268  1  0.24997279  0.67147360  0.30798531  1
  O  O269  1  0.39440949  0.47756093  0.39434211  1
  O  O270  1  0.50737167  0.86803862  0.37373031  1
  O  O271  1  0.00791184  0.36840093  0.39211708  1
  O  O272  1  0.89722686  0.97907104  0.37324637  1
  O  O273  1  0.02600225  0.98478882  0.43924382  1
  O  O274  1  0.85956128  0.86571486  0.41815335  1
  O  O275  1  0.35183576  0.86182393  0.44184070  1
  O  O276  1  0.53195122  0.98990272  0.42038094  1
  O  O277  1  0.70276829  0.50579389  0.36204267  1
  O  O278  1  0.19632659  0.84677479  0.40440626  1
  O  O279  1  0.70242739  0.34573260  0.36308483  1
  O  O280  1  0.21481063  0.99989140  0.40721510  1
  O  O281  1  0.06529822  0.53785271  0.40398943  1
  O  O282  1  0.83161103  0.81346823  0.36354180  1
  O  O283  1  0.33750815  0.30327641  0.39978704  1
  O  O284  1  0.56952831  0.03869877  0.36453565  1
  O  O285  1  0.72701527  0.56078021  0.41333258  1
  O  O286  1  0.16810228  0.28022398  0.43806911  1
  O  O287  1  0.66976244  0.28323162  0.41327979  1
  O  O288  1  0.22643248  0.57782028  0.43908742  1
  O  O289  1  0.75337210  0.67184324  0.37053216  1
  O  O290  1  0.15153175  0.67362118  0.39344041  1
  O  O291  1  0.65616164  0.17642894  0.36906005  1
  O  O292  1  0.23961127  0.17015764  0.39507866  1
  O  O293  1  0.43577258  0.37426446  0.45466082  1
  O  O294  1  0.88850343  0.47535947  0.45954378  1
  O  O295  1  0.72247746  0.00003038  0.45365263  1
  O  O296  1  0.17308257  0.29274792  0.49392840  1
  O  O297  1  0.69492024  0.85196175  0.45421762  1
  O  O298  1  0.03055725  0.99470743  0.49990428  1
  O  O299  1  0.70338898  0.37543160  0.45297839  1
  O  O300  1  0.57320493  0.73044773  0.50258118  1
  O  O301  1  0.53795411  0.58794833  0.45450744  1
  O  O302  1  0.71837304  0.18897675  0.45648176  1
  O  O303  1  0.03314660  0.17720455  0.46775355  1
  O  O304  1  0.71594798  0.67511397  0.45158809  1
  O  O305  1  0.37194625  0.53417905  0.49889949  1
  O  O306  1  0.13586698  0.17489021  0.54047670  1
  O  O307  1  0.58868112  0.27613427  0.54543031  1
  O  O308  1  0.49389658  0.66004538  0.57958579  1
  O  O309  1  0.67312626  0.78857305  0.55809582  1
  O  O310  1  0.16649731  0.78450908  0.58192509  1
  O  O311  1  0.99884127  0.66558269  0.56074455  1
  O  O312  1  0.33074604  0.79813583  0.54576385  1
  O  O313  1  0.85133629  0.35755407  0.50614429  1
  O  O314  1  0.30246534  0.65030229  0.54640076  1
  O  O315  1  0.48637995  0.06244656  0.54549505  1
  O  O316  1  0.45163100  0.92003816  0.49731571  1
  O  O317  1  0.32101922  0.27495217  0.54701466  1
  O  O318  1  0.99487347  0.65493546  0.50005027  1
  O  O319  1  0.79846704  0.07227324  0.56091141  1
  O  O320  1  0.35474085  0.36677459  0.58679964  1
  O  O321  1  0.85644283  0.37003619  0.56200650  1
  O  O322  1  0.29753609  0.08909251  0.58665429  1
  O  O323  1  0.65327439  0.11593802  0.50120222  1
  O  O324  1  0.30846181  0.97516786  0.54827847  1
  O  O325  1  0.99134683  0.47306185  0.53233678  1
  O  O326  1  0.30610685  0.46152329  0.54370080  1
  O  O327  1  0.12789022  0.67087053  0.62672815  1
  O  O328  1  0.01734077  0.28154974  0.60790418  1
  O  O329  1  0.51694365  0.78213947  0.62635338  1
  O  O330  1  0.63011566  0.17245702  0.60559013  1
  O  O331  1  0.48766705  0.16910274  0.67156622  1
  O  O332  1  0.65516417  0.27961554  0.65364814  1
  O  O333  1  0.15655835  0.28367805  0.67147159  1
  O  O334  1  0.98495496  0.16857594  0.65247209  1
  O  O335  1  0.80979895  0.65066286  0.59280030  1
  O  O336  1  0.32268380  0.30411400  0.63699109  1
  O  O337  1  0.82852124  0.80366523  0.59554413  1
  O  O338  1  0.32253651  0.14398596  0.63793492  1
  O  O339  1  0.45539547  0.61150636  0.63545250  1
  O  O340  1  0.68753206  0.34673570  0.60031991  1
  O  O341  1  0.19259522  0.83685461  0.63664419  1
  O  O342  1  0.95923524  0.11230057  0.59606947  1
  O  O343  1  0.78852565  0.58925477  0.64888145  1
  O  O344  1  0.35536149  0.86779222  0.67267757  1
  O  O345  1  0.85487922  0.86550431  0.64871616  1
  O  O346  1  0.29174069  0.58740687  0.67315139  1
  O  O347  1  0.78552153  0.47982953  0.60502447  1
  O  O348  1  0.36915286  0.47357819  0.63091677  1
  O  O349  1  0.87344715  0.97636951  0.60656407  1
  O  O350  1  0.27115591  0.97825506  0.62952226  1
  O  O351  1  0.12454580  0.17487209  0.71682631  1
  O  O352  1  0.01807634  0.78094431  0.69480422  1
  O  O353  1  0.51897527  0.27890107  0.71702393  1
  O  O354  1  0.62646110  0.67296814  0.69497357  1
  O  O355  1  0.48695552  0.67025378  0.75948629  1
  O  O356  1  0.65597010  0.78539433  0.74052501  1
  O  O357  1  0.15594455  0.78539445  0.75946959  1
  O  O358  1  0.98696576  0.67025154  0.74051397  1
  O  O359  1  0.82871276  0.14392282  0.68777005  1
  O  O360  1  0.32087625  0.80727324  0.72495929  1
  O  O361  1  0.82001845  0.30691046  0.68683685  1
  O  O362  1  0.32193187  0.64710186  0.72531127  1
  O  O363  1  0.45537253  0.11153648  0.72547741  1
  O  O364  1  0.68959310  0.84052494  0.68599668  1
  O  O365  1  0.18705205  0.34293068  0.72523273  1
  O  O366  1  0.95633246  0.61239402  0.68600370  1
  O  O367  1  0.79335890  0.07981665  0.73842847  1
  O  O368  1  0.34864273  0.37333940  0.76179760  1
  O  O369  1  0.84863284  0.37334282  0.73819980  1
  O  O370  1  0.29335809  0.07981603  0.76156998  1
  O  O371  1  0.77542681  0.97808702  0.69193716  1
  O  O372  1  0.36588791  0.97636259  0.71723297  1
  O  O373  1  0.86783505  0.47573331  0.69189961  1
  O  O374  1  0.27811719  0.47767188  0.71758951  1
  O  O375  1  0.12643170  0.67295937  0.80502818  1
  O  O376  1  0.01898467  0.27890668  0.78297220  1
  O  O377  1  0.51806614  0.78095159  0.80519026  1
  O  O378  1  0.62457433  0.17485829  0.78317314  1
  O  O379  1  0.48489282  0.16859275  0.84753057  1
  O  O380  1  0.65649738  0.28368763  0.82853197  1
  O  O381  1  0.15511966  0.27963340  0.84634759  1
  O  O382  1  0.98761008  0.16912543  0.82843106  1
  O  O383  1  0.82191267  0.64710114  0.77468726  1
  O  O384  1  0.31999897  0.30691119  0.81315695  1
  O  O385  1  0.82086071  0.80727534  0.77503768  1
  O  O386  1  0.32868840  0.14392843  0.81223069  1
  O  O387  1  0.45630558  0.61240090  0.81399710  1
  O  O388  1  0.68708804  0.34290344  0.77477023  1
  O  O389  1  0.18959447  0.84051885  0.81399188  1
  O  O390  1  0.95538467  0.11153057  0.77451942  1
  O  O391  1  0.79166641  0.58743821  0.82684776  1
  O  O392  1  0.35485730  0.86548118  0.85127593  1
  O  O393  1  0.85531196  0.86780113  0.82731408  1
  O  O394  1  0.28847903  0.58925855  0.85112238  1
  O  O395  1  0.77807520  0.47768386  0.78241127  1
  O  O396  1  0.36782777  0.47573935  0.80809950  1
  O  O397  1  0.86588363  0.97634883  0.78276085  1
  O  O398  1  0.27537655  0.97809758  0.80806302  1
  O  O399  1  0.13008749  0.17248096  0.89439811  1
  O  O400  1  0.01686549  0.78216715  0.87364184  1
  O  O401  1  0.51724793  0.28156786  0.89210132  1
  O  O402  1  0.62784117  0.67089196  0.87327653  1
  O  O403  1  0.49878432  0.66557797  0.93924949  1
  O  O404  1  0.66637531  0.78452699  0.91808183  1
  O  O405  1  0.17306945  0.78858038  0.94190431  1
  O  O406  1  0.99377172  0.66003843  0.92041654  1
  O  O407  1  0.82250893  0.14400186  0.86206923  1
  O  O408  1  0.32843024  0.80367922  0.90445042  1
  O  O409  1  0.82261284  0.30414141  0.86300928  1
  O  O410  1  0.30970226  0.65068339  0.90719938  1
  O  O411  1  0.45923471  0.11225926  0.90393947  1
  O  O412  1  0.69250541  0.83690524  0.86335641  1
  O  O413  1  0.18746398  0.34676524  0.89968369  1
  O  O414  1  0.95532035  0.61154686  0.86454330  1
  O  O415  1  0.79749872  0.08908318  0.91334251  1
  O  O416  1  0.35636853  0.37006393  0.93799754  1
  O  O417  1  0.85471237  0.36676605  0.91319893  1
  O  O418  1  0.29831699  0.07227360  0.93908270  1
  O  O419  1  0.77111637  0.97828274  0.87046556  1
  O  O420  1  0.37333785  0.97638094  0.89342926  1
  O  O421  1  0.86908440  0.47362307  0.86908796  1
  O  O422  1  0.28544279  0.47985385  0.89497833  1
  O  O423  1  0.08865233  0.27613574  0.95456769  1
  O  O424  1  0.63578642  0.17493543  0.95951351  1
  O  O425  1  0.80230469  0.65038424  0.95362540  1
  O  O426  1  0.35129260  0.35757216  0.99385945  1
  O  O427  1  0.83067620  0.79817560  0.95423177  1
  O  O428  1  0.49476859  0.65495105  0.99994739  1
  O  O429  1  0.82096116  0.27497370  0.95298863  1
  O  O430  1  0.95161429  0.92003860  0.00268921  1
  O  O431  1  0.98630676  0.06246718  0.95450494  1
  O  O432  1  0.80611026  0.46154092  0.95628945  1
  O  O433  1  0.49134509  0.47306607  0.96766549  1
  O  O434  1  0.80842267  0.97519079  0.95172658  1
  O  O435  1  0.15326506  0.11594112  0.99879701  1
