# generated using pymatgen
data_Na17Zr12Si10(PO13)5
_symmetry_space_group_name_H-M   'P 1'
_cell_length_a   9.27295600
_cell_length_b   15.80284349
_cell_length_c   50.93481994
_cell_angle_alpha   90.00000000
_cell_angle_beta   90.00000000
_cell_angle_gamma   56.43985526
_symmetry_Int_Tables_number   1
_chemical_formula_structural   Na17Zr12Si10(PO13)5
_chemical_formula_sum   'Na68 Zr48 Si40 P20 O260'
_cell_volume   6219.74689960
_cell_formula_units_Z   4
loop_
 _symmetry_equiv_pos_site_id
 _symmetry_equiv_pos_as_xyz
  1  'x, y, z'
loop_
 _atom_site_type_symbol
 _atom_site_label
 _atom_site_symmetry_multiplicity
 _atom_site_fract_x
 _atom_site_fract_y
 _atom_site_fract_z
 _atom_site_occupancy
  Na  Na0  1  0.36420213  0.54950917  0.99479836  1
  Na  Na1  1  0.45544894  0.66733646  0.04227730  1
  Na  Na2  1  0.87588506  0.21155037  0.03037369  1
  Na  Na3  1  0.63708736  0.07749837  0.01233185  1
  Na  Na4  1  0.65637018  0.43623763  0.04893607  1
  Na  Na5  1  0.47014523  0.14152961  0.08119959  1
  Na  Na6  1  0.61574051  0.23175623  0.14483468  1
  Na  Na7  1  0.00988247  0.72836431  0.09571833  1
  Na  Na8  1  0.85792065  0.58470181  0.14120592  1
  Na  Na9  1  0.65518063  0.92457186  0.13908617  1
  Na  Na10  1  0.18406412  0.41108780  0.09413191  1
  Na  Na11  1  0.36873764  0.58501680  0.18379537  1
  Na  Na12  1  0.53067616  0.72177285  0.22726546  1
  Na  Na13  1  0.10934958  0.22968676  0.17383797  1
  Na  Na14  1  0.87778361  0.08696669  0.22352673  1
  Na  Na15  1  0.71586110  0.39407456  0.22987361  1
  Na  Na16  1  0.20806589  0.89602980  0.17945712  1
  Na  Na17  1  0.36777474  0.08137719  0.27441864  1
  Na  Na18  1  0.54347745  0.22353462  0.31875383  1
  Na  Na19  1  0.03376566  0.72306471  0.27233843  1
  Na  Na20  1  0.87329353  0.58827234  0.31482345  1
  Na  Na21  1  0.69673927  0.90289055  0.32031030  1
  Na  Na22  1  0.20832002  0.39774255  0.26875358  1
  Na  Na23  1  0.37353571  0.59176050  0.36147308  1
  Na  Na24  1  0.60757314  0.73795841  0.41491844  1
  Na  Na25  1  0.07528502  0.22199244  0.35784011  1
  Na  Na26  1  0.88323649  0.09783941  0.40466393  1
  Na  Na27  1  0.67814720  0.40875579  0.40782044  1
  Na  Na28  1  0.19906275  0.90422685  0.36122801  1
  Na  Na29  1  0.58633974  0.89871063  0.49757940  1
  Na  Na30  1  0.39797590  0.13951618  0.46174532  1
  Na  Na31  1  0.10946183  0.74146030  0.44235434  1
  Na  Na32  1  0.92650920  0.63544805  0.46438846  1
  Na  Na33  1  0.20547134  0.40270729  0.44651129  1
  Na  Na34  1  0.16085067  0.02530465  0.49485669  1
  Na  Na35  1  0.06937121  0.90756393  0.54225966  1
  Na  Na36  1  0.64864348  0.36387482  0.53055241  1
  Na  Na37  1  0.88762319  0.49737573  0.51236713  1
  Na  Na38  1  0.86841194  0.13873248  0.54890148  1
  Na  Na39  1  0.05438802  0.43345335  0.58122923  1
  Na  Na40  1  0.90925117  0.34313491  0.64489664  1
  Na  Na41  1  0.51483482  0.84667143  0.59578042  1
  Na  Na42  1  0.66733441  0.99034030  0.64122051  1
  Na  Na43  1  0.86999667  0.65045243  0.63910840  1
  Na  Na44  1  0.34072371  0.16383243  0.59420025  1
  Na  Na45  1  0.15640120  0.99006266  0.68393751  1
  Na  Na46  1  0.99432857  0.85326313  0.72734610  1
  Na  Na47  1  0.41588293  0.34527904  0.67385214  1
  Na  Na48  1  0.64740024  0.48803085  0.72358015  1
  Na  Na49  1  0.80930820  0.18111133  0.72991073  1
  Na  Na50  1  0.31716876  0.67895306  0.67952630  1
  Na  Na51  1  0.15753862  0.49356132  0.77437119  1
  Na  Na52  1  0.98243745  0.35196780  0.81870469  1
  Na  Na53  1  0.49124034  0.85192164  0.77233291  1
  Na  Na54  1  0.65152546  0.98688351  0.81487298  1
  Na  Na55  1  0.82831023  0.67208494  0.82030303  1
  Na  Na56  1  0.31764127  0.17706483  0.76878734  1
  Na  Na57  1  0.15145619  0.98304832  0.86146451  1
  Na  Na58  1  0.91726069  0.83710170  0.91494276  1
  Na  Na59  1  0.45119043  0.35302961  0.85796675  1
  Na  Na60  1  0.64174203  0.47728728  0.90472801  1
  Na  Na61  1  0.84731758  0.16587858  0.90782862  1
  Na  Na62  1  0.32596382  0.67067222  0.86126095  1
  Na  Na63  1  0.93877917  0.67595579  0.99744158  1
  Na  Na64  1  0.12690065  0.43508668  0.96180180  1
  Na  Na65  1  0.41544818  0.83330533  0.94239380  1
  Na  Na66  1  0.59784817  0.93961727  0.96428893  1
  Na  Na67  1  0.31943899  0.17222944  0.94642650  1
  Zr  Zr68  1  0.92723864  0.50543363  0.03359740  1
  Zr  Zr69  1  0.03783328  0.82025474  0.03610904  1
  Zr  Zr70  1  0.42861253  0.33365174  0.02972333  1
  Zr  Zr71  1  0.28128025  0.04171633  0.03052934  1
  Zr  Zr72  1  0.88266281  0.00352358  0.11315425  1
  Zr  Zr73  1  0.01285208  0.29588167  0.11181070  1
  Zr  Zr74  1  0.50063210  0.80036845  0.11759157  1
  Zr  Zr75  1  0.38913868  0.50666102  0.11488953  1
  Zr  Zr76  1  0.89067900  0.50424490  0.20606611  1
  Zr  Zr77  1  0.00333509  0.80337342  0.20499641  1
  Zr  Zr78  1  0.50442992  0.30176979  0.20633978  1
  Zr  Zr79  1  0.38624495  0.00511758  0.20286487  1
  Zr  Zr80  1  0.88874195  0.00537601  0.29613661  1
  Zr  Zr81  1  0.00637240  0.30004248  0.29386013  1
  Zr  Zr82  1  0.50372326  0.80238057  0.29497390  1
  Zr  Zr83  1  0.39018015  0.50490859  0.29420119  1
  Zr  Zr84  1  0.89531240  0.50104018  0.38326775  1
  Zr  Zr85  1  0.99398177  0.80471518  0.38265994  1
  Zr  Zr86  1  0.49983385  0.30441224  0.38601679  1
  Zr  Zr87  1  0.39666331  0.00172563  0.38697890  1
  Zr  Zr88  1  0.80993509  0.03026883  0.47424625  1
  Zr  Zr89  1  0.96113246  0.30657213  0.47156557  1
  Zr  Zr90  1  0.46281262  0.73225722  0.47606072  1
  Zr  Zr91  1  0.38303156  0.52393397  0.47343168  1
  Zr  Zr92  1  0.59734366  0.06964271  0.53366107  1
  Zr  Zr93  1  0.48697181  0.75471540  0.53613728  1
  Zr  Zr94  1  0.09635956  0.24127777  0.52979573  1
  Zr  Zr95  1  0.24320960  0.53339188  0.53051009  1
  Zr  Zr96  1  0.64237816  0.57154260  0.61319646  1
  Zr  Zr97  1  0.51209058  0.27894302  0.61186604  1
  Zr  Zr98  1  0.02468696  0.77452517  0.61763969  1
  Zr  Zr99  1  0.13548875  0.06835227  0.61491114  1
  Zr  Zr100  1  0.63480713  0.07076430  0.70608974  1
  Zr  Zr101  1  0.52196432  0.77158735  0.70502469  1
  Zr  Zr102  1  0.02097707  0.27317267  0.70640515  1
  Zr  Zr103  1  0.13884021  0.56992241  0.70290562  1
  Zr  Zr104  1  0.63596993  0.56980249  0.79617130  1
  Zr  Zr105  1  0.51878757  0.27523372  0.79389589  1
  Zr  Zr106  1  0.02071843  0.77292415  0.79497944  1
  Zr  Zr107  1  0.13527937  0.07015461  0.79425019  1
  Zr  Zr108  1  0.62948817  0.07385200  0.88334008  1
  Zr  Zr109  1  0.53077604  0.77034698  0.88263067  1
  Zr  Zr110  1  0.02461961  0.27062152  0.88598407  1
  Zr  Zr111  1  0.12827537  0.57313734  0.88696957  1
  Zr  Zr112  1  0.71485631  0.54470434  0.97417952  1
  Zr  Zr113  1  0.56388072  0.26824900  0.97150520  1
  Zr  Zr114  1  0.06196109  0.84272427  0.97605770  1
  Zr  Zr115  1  0.14177955  0.05094383  0.97345355  1
  Si  Si116  1  0.20017304  0.57366612  0.05362720  1
  Si  Si117  1  0.16455494  0.28381752  0.04790844  1
  Si  Si118  1  0.20480558  0.04503322  0.13839715  1
  Si  Si119  1  0.67870164  0.26567094  0.08899017  1
  Si  Si120  1  0.18040721  0.76472510  0.14070091  1
  Si  Si121  1  0.70800641  0.54698765  0.09215450  1
  Si  Si122  1  0.21088295  0.54500487  0.23011887  1
  Si  Si123  1  0.68416863  0.76316478  0.18051625  1
  Si  Si124  1  0.18864236  0.26027952  0.23000968  1
  Si  Si125  1  0.70794387  0.04389307  0.17863657  1
  Si  Si126  1  0.21112618  0.04157612  0.32136019  1
  Si  Si127  1  0.68684160  0.26150045  0.26991121  1
  Si  Si128  1  0.18150116  0.76465650  0.31964776  1
  Si  Si129  1  0.71266561  0.54320876  0.26998674  1
  Si  Si130  1  0.20464331  0.55044056  0.40829237  1
  Si  Si131  1  0.68662375  0.76189022  0.35955113  1
  Si  Si132  1  0.18368866  0.26148302  0.40895948  1
  Si  Si133  1  0.70816198  0.04565908  0.36080711  1
  Si  Si134  1  0.64283019  0.26832934  0.45090187  1
  Si  Si135  1  0.74749159  0.52247698  0.44786988  1
  Si  Si136  1  0.32478436  0.00119021  0.55371656  1
  Si  Si137  1  0.36005508  0.29134523  0.54798602  1
  Si  Si138  1  0.32065873  0.52990596  0.63847667  1
  Si  Si139  1  0.84598493  0.30926282  0.58904977  1
  Si  Si140  1  0.34445494  0.81033491  0.64075297  1
  Si  Si141  1  0.81672904  0.02798293  0.59216809  1
  Si  Si142  1  0.31499696  0.02999405  0.73021342  1
  Si  Si143  1  0.84119506  0.81178418  0.68057010  1
  Si  Si144  1  0.33714697  0.31461456  0.72997132  1
  Si  Si145  1  0.81718350  0.53113478  0.67864989  1
  Si  Si146  1  0.31332495  0.53381504  0.82135565  1
  Si  Si147  1  0.83860927  0.31355908  0.77000688  1
  Si  Si148  1  0.34325154  0.81049526  0.81961566  1
  Si  Si149  1  0.81243737  0.03201441  0.77001484  1
  Si  Si150  1  0.32023005  0.02456160  0.90832915  1
  Si  Si151  1  0.83826659  0.81296093  0.85959373  1
  Si  Si152  1  0.34093069  0.31348229  0.90894459  1
  Si  Si153  1  0.81655611  0.52943497  0.86083128  1
  Si  Si154  1  0.88227674  0.30652504  0.95087097  1
  Si  Si155  1  0.77752845  0.05246718  0.94785426  1
  P  P156  1  0.66664814  0.91008774  0.07416112  1
  P  P157  1  0.21107373  0.89487724  0.06612450  1
  P  P158  1  0.70086144  0.40049625  0.16678856  1
  P  P159  1  0.20014351  0.39968028  0.15315162  1
  P  P160  1  0.69505871  0.90682959  0.25729728  1
  P  P161  1  0.19569214  0.90716498  0.24248053  1
  P  P162  1  0.69661292  0.40125201  0.34697526  1
  P  P163  1  0.19751360  0.40156093  0.33135858  1
  P  P164  1  0.71473504  0.87652842  0.43777820  1
  P  P165  1  0.17777789  0.91020057  0.42740194  1
  P  P166  1  0.85782835  0.66531749  0.57415091  1
  P  P167  1  0.31413366  0.67984510  0.56613254  1
  P  P168  1  0.82443091  0.17440407  0.66683414  1
  P  P169  1  0.32483735  0.17517711  0.65322175  1
  P  P170  1  0.83000703  0.66809772  0.75731756  1
  P  P171  1  0.32923151  0.66793415  0.74254734  1
  P  P172  1  0.82852433  0.17337793  0.84697488  1
  P  P173  1  0.32749861  0.17372813  0.83139855  1
  P  P174  1  0.80996441  0.69855553  0.93771337  1
  P  P175  1  0.34669900  0.66500280  0.92734429  1
  O  O176  1  0.36860676  0.48536498  0.03691742  1
  O  O177  1  0.96109073  0.36584386  0.03537054  1
  O  O178  1  0.02757941  0.92162530  0.07441031  1
  O  O179  1  0.83312653  0.84102677  0.05749294  1
  O  O180  1  0.35253324  0.81558125  0.08424500  1
  O  O181  1  0.51906150  0.98033070  0.05490924  1
  O  O182  1  0.24217121  0.84190515  0.03855105  1
  O  O183  1  0.64016205  0.22269389  0.00833358  1
  O  O184  1  0.21192583  0.99030773  0.06362689  1
  O  O185  1  0.01751018  0.59885453  0.04034889  1
  O  O186  1  0.90452680  0.92154097  0.00798178  1
  O  O187  1  0.17539461  0.39858820  0.04777349  1
  O  O188  1  0.37595420  0.01623324  0.99401966  1
  O  O189  1  0.72858707  0.56458428  0.06047241  1
  O  O190  1  0.17332457  0.27149296  0.08097809  1
  O  O191  1  0.62550042  0.29177656  0.05786885  1
  O  O192  1  0.21280790  0.54239963  0.08486476  1
  O  O193  1  0.91175798  0.53796707  0.99499918  1
  O  O194  1  0.19412590  0.67981168  0.05471400  1
  O  O195  1  0.37560584  0.22367223  0.03676535  1
  O  O196  1  0.15587870  0.18117699  0.04060555  1
  O  O197  1  0.38866736  0.95242884  0.12673556  1
  O  O198  1  0.51513713  0.34887911  0.10750397  1
  O  O199  1  0.99857243  0.85245476  0.12629454  1
  O  O200  1  0.89113474  0.45284702  0.10394508  1
  O  O201  1  0.03659123  0.45707038  0.17076458  1
  O  O202  1  0.86156773  0.34285678  0.14907597  1
  O  O203  1  0.36464003  0.34064922  0.17023549  1
  O  O204  1  0.53326912  0.46747819  0.15031562  1
  O  O205  1  0.69310157  0.97810734  0.09316236  1
  O  O206  1  0.19072201  0.32294030  0.13567539  1
  O  O207  1  0.64743071  0.83559161  0.09080513  1
  O  O208  1  0.20122505  0.48068030  0.13606624  1
  O  O209  1  0.05276381  0.02646411  0.12897356  1
  O  O210  1  0.84510679  0.27465837  0.09365970  1
  O  O211  1  0.32556234  0.79311060  0.13892210  1
  O  O212  1  0.55815141  0.52081483  0.09303822  1
  O  O213  1  0.73035397  0.04916875  0.14632165  1
  O  O214  1  0.16042972  0.75768127  0.17259560  1
  O  O215  1  0.67592527  0.76544161  0.14824128  1
  O  O216  1  0.21838374  0.04305234  0.17105505  1
  O  O217  1  0.72451812  0.15170334  0.09730490  1
  O  O218  1  0.15676060  0.15638170  0.12908201  1
  O  O219  1  0.65506900  0.64808442  0.10867147  1
  O  O220  1  0.24255906  0.65493831  0.12761726  1
  O  O221  1  0.39374855  0.45557354  0.21634849  1
  O  O222  1  0.49862540  0.84937141  0.19417547  1
  O  O223  1  0.00597470  0.35044389  0.21687531  1
  O  O224  1  0.88960563  0.95701620  0.19289930  1
  O  O225  1  0.03189279  0.96469378  0.25986819  1
  O  O226  1  0.86521966  0.84956611  0.24141032  1
  O  O227  1  0.36317139  0.84827605  0.25897260  1
  O  O228  1  0.53390696  0.96347080  0.23928927  1
  O  O229  1  0.70803944  0.47426344  0.18608088  1
  O  O230  1  0.19469816  0.82819296  0.22445941  1
  O  O231  1  0.68653661  0.32169603  0.18286195  1
  O  O232  1  0.19553270  0.98755176  0.22480214  1
  O  O233  1  0.06090639  0.52206937  0.22470077  1
  O  O234  1  0.82983931  0.78596196  0.18856363  1
  O  O235  1  0.33298767  0.28912605  0.22644140  1
  O  O236  1  0.56032778  0.01728697  0.18222112  1
  O  O237  1  0.72442511  0.54616324  0.23775049  1
  O  O238  1  0.17306922  0.25104512  0.26199278  1
  O  O239  1  0.67434798  0.25565600  0.23769574  1
  O  O240  1  0.22628873  0.54692110  0.26232105  1
  O  O241  1  0.73825264  0.65071297  0.19095481  1
  O  O242  1  0.15824544  0.65524849  0.21876895  1
  O  O243  1  0.64856329  0.15440203  0.19111600  1
  O  O244  1  0.25025103  0.15367573  0.21516715  1
  O  O245  1  0.39123466  0.95662032  0.30628254  1
  O  O246  1  0.50325072  0.35048286  0.28322424  1
  O  O247  1  0.99781781  0.85035944  0.30557547  1
  O  O248  1  0.89783329  0.45381261  0.28324693  1
  O  O249  1  0.02565633  0.46254786  0.34668474  1
  O  O250  1  0.86043051  0.34392544  0.32964109  1
  O  O251  1  0.35502497  0.34729175  0.35006282  1
  O  O252  1  0.52999749  0.45784363  0.33017031  1
  O  O253  1  0.69107453  0.98687589  0.27568556  1
  O  O254  1  0.20391752  0.31824797  0.31421763  1
  O  O255  1  0.69300357  0.82669956  0.27483633  1
  O  O256  1  0.20156125  0.47907578  0.31330133  1
  O  O257  1  0.06269325  0.01667886  0.31634586  1
  O  O258  1  0.83353313  0.28774956  0.27445430  1
  O  O259  1  0.32898316  0.78781804  0.31284007  1
  O  O260  1  0.56426777  0.51976703  0.27604953  1
  O  O261  1  0.72363993  0.04618843  0.32852953  1
  O  O262  1  0.16794408  0.76812734  0.35208509  1
  O  O263  1  0.65799049  0.75894175  0.32785295  1
  O  O264  1  0.23702665  0.03973120  0.35358933  1
  O  O265  1  0.74420319  0.15340399  0.28346204  1
  O  O266  1  0.14952226  0.15423347  0.30997069  1
  O  O267  1  0.65810901  0.65385570  0.28155417  1
  O  O268  1  0.23895347  0.65220542  0.30897139  1
  O  O269  1  0.39125778  0.45781654  0.39632197  1
  O  O270  1  0.51409946  0.84791461  0.37600467  1
  O  O271  1  0.01937344  0.34378762  0.39087557  1
  O  O272  1  0.89181374  0.95899188  0.37467716  1
  O  O273  1  0.03020099  0.98611547  0.44656262  1
  O  O274  1  0.84162765  0.80582869  0.41579839  1
  O  O275  1  0.34563228  0.83841914  0.44320266  1
  O  O276  1  0.54266095  0.96332922  0.42505428  1
  O  O277  1  0.69595827  0.48333487  0.36391829  1
  O  O278  1  0.13026789  0.84274568  0.41248798  1
  O  O279  1  0.69449607  0.32349092  0.36527595  1
  O  O280  1  0.20458949  0.97347545  0.40693524  1
  O  O281  1  0.06305064  0.52048228  0.40305172  1
  O  O282  1  0.83319305  0.79019919  0.36050234  1
  O  O283  1  0.33609559  0.28494314  0.40645037  1
  O  O284  1  0.56497699  0.01829195  0.36749540  1
  O  O285  1  0.75688207  0.51962406  0.41588398  1
  O  O286  1  0.14230150  0.26602989  0.44032550  1
  O  O287  1  0.66043508  0.26785609  0.41848966  1
  O  O288  1  0.20429432  0.56727347  0.44020972  1
  O  O289  1  0.75077341  0.65240301  0.37275922  1
  O  O290  1  0.16029436  0.65533128  0.39396231  1
  O  O291  1  0.65109118  0.15696475  0.37223054  1
  O  O292  1  0.24719477  0.14906426  0.39765941  1
  O  O293  1  0.47159154  0.37167355  0.46236663  1
  O  O294  1  0.93160203  0.45168543  0.46382175  1
  O  O295  1  0.81258592  0.91736131  0.45242295  1
  O  O296  1  0.68691998  0.81348901  0.45762340  1
  O  O297  1  0.45139327  0.50989777  0.51082934  1
  O  O298  1  0.92452301  0.02020539  0.50625649  1
  O  O299  1  0.82592176  0.24727461  0.46237000  1
  O  O300  1  0.39030800  0.84617264  0.50268584  1
  O  O301  1  0.63097839  0.47809179  0.45619293  1
  O  O302  1  0.63923101  0.16765397  0.45847068  1
  O  O303  1  0.16629260  0.19130527  0.49122754  1
  O  O304  1  0.67512838  0.64168886  0.45362087  1
  O  O305  1  0.32539255  0.67410172  0.47207364  1
  O  O306  1  0.15640886  0.08958785  0.53700502  1
  O  O307  1  0.56353544  0.20930875  0.53545211  1
  O  O308  1  0.49779874  0.65304975  0.57436079  1
  O  O309  1  0.69089614  0.73471295  0.55760446  1
  O  O310  1  0.17311843  0.75902692  0.58432826  1
  O  O311  1  0.00487960  0.59548801  0.55477510  1
  O  O312  1  0.28267336  0.73298467  0.53856869  1
  O  O313  1  0.88461797  0.35206637  0.50839138  1
  O  O314  1  0.31310715  0.58449219  0.56363165  1
  O  O315  1  0.50733361  0.97611754  0.54042558  1
  O  O316  1  0.62107360  0.65371218  0.50797763  1
  O  O317  1  0.34930993  0.17649491  0.54786415  1
  O  O318  1  0.14899596  0.55850087  0.49397462  1
  O  O319  1  0.79623739  0.01020635  0.56049711  1
  O  O320  1  0.35136138  0.30355594  0.58105609  1
  O  O321  1  0.89956402  0.28314452  0.55793729  1
  O  O322  1  0.31244948  0.03227605  0.58495201  1
  O  O323  1  0.61323092  0.03681585  0.49509178  1
  O  O324  1  0.33058808  0.89510608  0.55473961  1
  O  O325  1  0.14903896  0.35144207  0.53684676  1
  O  O326  1  0.36857334  0.39404986  0.54070417  1
  O  O327  1  0.13676035  0.62247449  0.62680376  1
  O  O328  1  0.00958900  0.22607225  0.60756552  1
  O  O329  1  0.52650072  0.72258517  0.62635363  1
  O  O330  1  0.63347727  0.12190222  0.60400952  1
  O  O331  1  0.48836718  0.11770663  0.67084038  1
  O  O332  1  0.66394669  0.23191271  0.64908156  1
  O  O333  1  0.16035990  0.23407344  0.67030142  1
  O  O334  1  0.99231888  0.10746936  0.65042281  1
  O  O335  1  0.83192484  0.59691589  0.59310137  1
  O  O336  1  0.33427866  0.25204825  0.63580519  1
  O  O337  1  0.87761000  0.73944999  0.59085853  1
  O  O338  1  0.32373472  0.09431656  0.63608004  1
  O  O339  1  0.47263012  0.54854001  0.62909335  1
  O  O340  1  0.67981085  0.30002590  0.59365211  1
  O  O341  1  0.19977857  0.78163369  0.63901564  1
  O  O342  1  0.96604711  0.05458039  0.59306007  1
  O  O343  1  0.79487638  0.52589913  0.64633215  1
  O  O344  1  0.36466090  0.81752103  0.67263455  1
  O  O345  1  0.84957902  0.80958086  0.64829972  1
  O  O346  1  0.30701147  0.53180120  0.67113146  1
  O  O347  1  0.80014659  0.42320572  0.59738840  1
  O  O348  1  0.36904209  0.41847735  0.62913739  1
  O  O349  1  0.87058799  0.92676145  0.60869582  1
  O  O350  1  0.28184476  0.92005145  0.62758822  1
  O  O351  1  0.13200983  0.11938755  0.71645075  1
  O  O352  1  0.02665419  0.72556900  0.69423451  1
  O  O353  1  0.51978789  0.22467636  0.71679465  1
  O  O354  1  0.63557167  0.61800731  0.69293081  1
  O  O355  1  0.49306500  0.61052787  0.75992129  1
  O  O356  1  0.65985918  0.72542049  0.74142442  1
  O  O357  1  0.16176359  0.72670725  0.75904672  1
  O  O358  1  0.99126976  0.61157757  0.73933049  1
  O  O359  1  0.81736722  0.10045801  0.68607736  1
  O  O360  1  0.33013611  0.74697910  0.72454353  1
  O  O361  1  0.83841239  0.25320480  0.68296032  1
  O  O362  1  0.32963857  0.58738962  0.72490092  1
  O  O363  1  0.46473181  0.05311093  0.72483534  1
  O  O364  1  0.69550378  0.78887780  0.68853738  1
  O  O365  1  0.19296503  0.28562562  0.72639287  1
  O  O366  1  0.96476587  0.55778095  0.68224204  1
  O  O367  1  0.80080356  0.02920162  0.73778024  1
  O  O368  1  0.35281074  0.32385675  0.76195312  1
  O  O369  1  0.85124587  0.31941653  0.73778717  1
  O  O370  1  0.29936156  0.02804400  0.76240418  1
  O  O371  1  0.78701689  0.92416729  0.69106042  1
  O  O372  1  0.36776309  0.91973837  0.71884245  1
  O  O373  1  0.87673379  0.42058686  0.69111609  1
  O  O374  1  0.27484904  0.42139159  0.71517650  1
  O  O375  1  0.13302229  0.61867601  0.80633184  1
  O  O376  1  0.02221263  0.22465045  0.78331535  1
  O  O377  1  0.52695614  0.72473912  0.80555866  1
  O  O378  1  0.62737962  0.12144571  0.78327564  1
  O  O379  1  0.49911061  0.11267131  0.84677664  1
  O  O380  1  0.66471898  0.23092990  0.82964479  1
  O  O381  1  0.16950956  0.22785470  0.85002411  1
  O  O382  1  0.99525412  0.11696057  0.83019626  1
  O  O383  1  0.83409242  0.58793257  0.77566535  1
  O  O384  1  0.32113269  0.25715155  0.81430871  1
  O  O385  1  0.83180813  0.74829146  0.77486913  1
  O  O386  1  0.32393532  0.09613615  0.81329548  1
  O  O387  1  0.46156340  0.55886542  0.81637239  1
  O  O388  1  0.69185317  0.28736889  0.77450412  1
  O  O389  1  0.19537330  0.78774362  0.81277326  1
  O  O390  1  0.96127676  0.05506361  0.77612952  1
  O  O391  1  0.80093034  0.52917423  0.82855629  1
  O  O392  1  0.35681833  0.80683576  0.85205872  1
  O  O393  1  0.86706157  0.81623155  0.82791283  1
  O  O394  1  0.28786531  0.53521691  0.85358918  1
  O  O395  1  0.78083791  0.42168236  0.78356282  1
  O  O396  1  0.37543461  0.42109578  0.80992718  1
  O  O397  1  0.86631248  0.92140482  0.78153590  1
  O  O398  1  0.28652244  0.92288534  0.80900597  1
  O  O399  1  0.13371437  0.11722543  0.89633515  1
  O  O400  1  0.01081717  0.72703452  0.87606376  1
  O  O401  1  0.50571460  0.23097615  0.89095220  1
  O  O402  1  0.63302858  0.61602287  0.87475585  1
  O  O403  1  0.49438883  0.58916455  0.94651080  1
  O  O404  1  0.68260901  0.76931322  0.91579356  1
  O  O405  1  0.17879272  0.73666684  0.94314071  1
  O  O406  1  0.98183271  0.61175090  0.92494265  1
  O  O407  1  0.82920199  0.09116245  0.86385986  1
  O  O408  1  0.39388381  0.73262668  0.91244526  1
  O  O409  1  0.83039565  0.25109574  0.86533326  1
  O  O410  1  0.32035176  0.60148590  0.90689519  1
  O  O411  1  0.46181949  0.05467112  0.90327390  1
  O  O412  1  0.69193234  0.78444817  0.86045147  1
  O  O413  1  0.18865441  0.28996152  0.90636062  1
  O  O414  1  0.96010449  0.55650131  0.86750119  1
  O  O415  1  0.76897467  0.05490521  0.91586171  1
  O  O416  1  0.38185375  0.30902031  0.94033238  1
  O  O417  1  0.86410229  0.30711739  0.91846761  1
  O  O418  1  0.32016681  0.00746365  0.94021960  1
  O  O419  1  0.77338029  0.92247499  0.87285284  1
  O  O420  1  0.36483050  0.91985073  0.89386454  1
  O  O421  1  0.87333986  0.41813104  0.87222088  1
  O  O422  1  0.27801316  0.42576658  0.89763640  1
  O  O423  1  0.05360435  0.20320486  0.96232658  1
  O  O424  1  0.59320127  0.12336567  0.96372671  1
  O  O425  1  0.71243542  0.65764124  0.95242231  1
  O  O426  1  0.83788408  0.76164266  0.95751712  1
  O  O427  1  0.07313094  0.06527754  0.01083701  1
  O  O428  1  0.60030809  0.55490147  0.00620388  1
  O  O429  1  0.69948111  0.32733032  0.96238725  1
  O  O430  1  0.13389015  0.72881089  0.00264197  1
  O  O431  1  0.89388340  0.09687370  0.95623357  1
  O  O432  1  0.88564375  0.40727717  0.95840738  1
  O  O433  1  0.35912103  0.38374236  0.99117349  1
  O  O434  1  0.84944454  0.93336855  0.95369136  1
  O  O435  1  0.19966109  0.90073475  0.97209240  1
