# generated using pymatgen
data_Na22Zr16Si13(PO14)6
_symmetry_space_group_name_H-M   'P 1'
_cell_length_a   15.80284400
_cell_length_b   16.04975156
_cell_length_c   42.48249945
_cell_angle_alpha   90.00000000
_cell_angle_beta   90.00000000
_cell_angle_gamma   48.30066901
_symmetry_Int_Tables_number   1
_chemical_formula_structural   Na22Zr16Si13(PO14)6
_chemical_formula_sum   'Na88 Zr64 Si52 P24 O336'
_cell_volume   8045.04247320
_cell_formula_units_Z   4
loop_
 _symmetry_equiv_pos_site_id
 _symmetry_equiv_pos_as_xyz
  1  'x, y, z'
loop_
 _atom_site_type_symbol
 _atom_site_label
 _atom_site_symmetry_multiplicity
 _atom_site_fract_x
 _atom_site_fract_y
 _atom_site_fract_z
 _atom_site_occupancy
  Na  Na0  1  0.20408508  0.60818706  0.99953778  1
  Na  Na1  1  0.53446315  0.89939204  0.06953571  1
  Na  Na2  1  0.10666660  0.15580475  0.07933709  1
  Na  Na3  1  0.99858254  0.80493301  0.04710834  1
  Na  Na4  1  0.75230222  0.48592771  0.03206258  1
  Na  Na5  1  0.11553001  0.75114955  0.12351539  1
  Na  Na6  1  0.68739906  0.13496927  0.00339625  1
  Na  Na7  1  0.96417453  0.52348155  0.12127956  1
  Na  Na8  1  0.69312344  0.49725024  0.12129694  1
  Na  Na9  1  0.39344968  0.24450538  0.04745310  1
  Na  Na10  1  0.31219698  0.80243503  0.09440275  1
  Na  Na11  1  0.02041491  0.45548268  0.03322509  1
  Na  Na12  1  0.82102400  0.19039584  0.13814731  1
  Na  Na13  1  0.14051965  0.46859761  0.21148099  1
  Na  Na14  1  0.79493599  0.68572612  0.22127436  1
  Na  Na15  1  0.49354005  0.40381087  0.15353060  1
  Na  Na16  1  0.34919171  0.05176304  0.17029462  1
  Na  Na17  1  0.70742652  0.32670531  0.25595441  1
  Na  Na18  1  0.28023771  0.80935072  0.19280562  1
  Na  Na19  1  0.52185937  0.10965161  0.23824039  1
  Na  Na20  1  0.31578152  0.05023352  0.26937904  1
  Na  Na21  1  0.01041521  0.76166269  0.20341109  1
  Na  Na22  1  0.92053076  0.39288435  0.23176487  1
  Na  Na23  1  0.62150307  0.10452813  0.16049375  1
  Na  Na24  1  0.52097239  0.69776458  0.28480929  1
  Na  Na25  1  0.74697811  0.04087954  0.34966800  1
  Na  Na26  1  0.43221230  0.24961811  0.36295059  1
  Na  Na27  1  0.13788348  0.95099410  0.28769791  1
  Na  Na28  1  0.99504995  0.62209696  0.32476254  1
  Na  Na29  1  0.22641508  0.94588945  0.37324254  1
  Na  Na30  1  0.86854771  0.40675505  0.32510522  1
  Na  Na31  1  0.13268720  0.70670020  0.37994298  1
  Na  Na32  1  0.91199419  0.64435862  0.40934743  1
  Na  Na33  1  0.61897202  0.35054512  0.33491734  1
  Na  Na34  1  0.53973567  0.96199940  0.37924274  1
  Na  Na35  1  0.23183065  0.68000483  0.29887598  1
  Na  Na36  1  0.09349988  0.29837721  0.42054337  1
  Na  Na37  1  0.32290304  0.61496403  0.46211863  1
  Na  Na38  1  0.99336686  0.86823118  0.50211398  1
  Na  Na39  1  0.73076020  0.53881611  0.43844934  1
  Na  Na40  1  0.57150227  0.24276672  0.45758689  1
  Na  Na41  1  0.50667011  0.00749781  0.47225310  1
  Na  Na42  1  0.32625502  0.98875280  0.43155310  1
  Na  Na43  1  0.84193416  0.22976555  0.44481824  1
  Na  Na44  1  0.24588575  0.14214290  0.49944665  1
  Na  Na45  1  0.91607134  0.84961218  0.56942063  1
  Na  Na46  1  0.34365831  0.59436815  0.57911950  1
  Na  Na47  1  0.45099959  0.94571890  0.54649050  1
  Na  Na48  1  0.69503861  0.26462130  0.53312902  1
  Na  Na49  1  0.33520752  0.99853775  0.62333665  1
  Na  Na50  1  0.76198481  0.61576996  0.50324438  1
  Na  Na51  1  0.48466621  0.22704192  0.62128985  1
  Na  Na52  1  0.75728745  0.25259060  0.62146298  1
  Na  Na53  1  0.05681382  0.50630862  0.54760116  1
  Na  Na54  1  0.13751900  0.94815790  0.59422296  1
  Na  Na55  1  0.42859529  0.29466855  0.53309423  1
  Na  Na56  1  0.62874418  0.55982550  0.63811541  1
  Na  Na57  1  0.30814929  0.28264961  0.71128843  1
  Na  Na58  1  0.65544580  0.06384472  0.72123407  1
  Na  Na59  1  0.95679522  0.34579335  0.65333173  1
  Na  Na60  1  0.10210980  0.69792063  0.66946182  1
  Na  Na61  1  0.74208887  0.42346312  0.75593526  1
  Na  Na62  1  0.17011720  0.94043422  0.69263870  1
  Na  Na63  1  0.92838750  0.64024624  0.73802437  1
  Na  Na64  1  0.13420871  0.69962305  0.76914271  1
  Na  Na65  1  0.43952914  0.98857789  0.70334883  1
  Na  Na66  1  0.52947196  0.35707094  0.73162557  1
  Na  Na67  1  0.82855661  0.64509967  0.66039804  1
  Na  Na68  1  0.92936694  0.05181311  0.78468313  1
  Na  Na69  1  0.70279733  0.70918889  0.84968956  1
  Na  Na70  1  0.01815353  0.50037916  0.86275421  1
  Na  Na71  1  0.31255451  0.79894540  0.78767907  1
  Na  Na72  1  0.45488314  0.12759204  0.82472092  1
  Na  Na73  1  0.22354017  0.80424348  0.87325550  1
  Na  Na74  1  0.58086059  0.34352248  0.82522220  1
  Na  Na75  1  0.31744185  0.04293953  0.88019902  1
  Na  Na76  1  0.53823276  0.10515052  0.90931796  1
  Na  Na77  1  0.83120131  0.39943023  0.83490527  1
  Na  Na78  1  0.91014860  0.78803147  0.87921431  1
  Na  Na79  1  0.21802463  0.07034501  0.79889950  1
  Na  Na80  1  0.35694857  0.45136325  0.92037677  1
  Na  Na81  1  0.12829933  0.13415074  0.96205927  1
  Na  Na82  1  0.45618469  0.88212165  0.00225505  1
  Na  Na83  1  0.71960407  0.21110027  0.93855206  1
  Na  Na84  1  0.87851699  0.50706581  0.95746446  1
  Na  Na85  1  0.94305532  0.74252366  0.97230708  1
  Na  Na86  1  0.12370905  0.76096947  0.93149191  1
  Na  Na87  1  0.60836868  0.51911941  0.94442279  1
  Zr  Zr88  1  0.53678231  0.47227372  0.07931383  1
  Zr  Zr89  1  0.27779134  0.14769525  0.02320669  1
  Zr  Zr90  1  0.86357685  0.23724913  0.99580470  1
  Zr  Zr91  1  0.16973237  0.51724566  0.06794140  1
  Zr  Zr92  1  0.35825300  0.74082754  0.00374816  1
  Zr  Zr93  1  0.65743602  0.03116915  0.07551837  1
  Zr  Zr94  1  0.03650251  0.97200959  0.07622084  1
  Zr  Zr95  1  0.74164187  0.69574086  0.01340767  1
  Zr  Zr96  1  0.14418813  0.05731972  0.22271224  1
  Zr  Zr97  1  0.84463075  0.76707696  0.15606036  1
  Zr  Zr98  1  0.47935267  0.80845321  0.13775768  1
  Zr  Zr99  1  0.78594798  0.09689949  0.20742702  1
  Zr  Zr100  1  0.97097061  0.31291093  0.14034957  1
  Zr  Zr101  1  0.28335649  0.60208727  0.20862594  1
  Zr  Zr102  1  0.65045905  0.55273677  0.22178536  1
  Zr  Zr103  1  0.34601748  0.26126311  0.15386030  1
  Zr  Zr104  1  0.74580699  0.64919024  0.36632060  1
  Zr  Zr105  1  0.45360251  0.34335456  0.29480276  1
  Zr  Zr106  1  0.08723028  0.39025137  0.27622531  1
  Zr  Zr107  1  0.39914166  0.67515977  0.34715516  1
  Zr  Zr108  1  0.58533155  0.89861368  0.28039514  1
  Zr  Zr109  1  0.89099434  0.18587949  0.34578963  1
  Zr  Zr110  1  0.25617589  0.13246475  0.36145261  1
  Zr  Zr111  1  0.95519064  0.84307012  0.29383983  1
  Zr  Zr112  1  0.22877189  0.35985556  0.48356770  1
  Zr  Zr113  1  0.06482143  0.92846325  0.43052685  1
  Zr  Zr114  1  0.70386675  0.97467478  0.42451513  1
  Zr  Zr115  1  0.91633672  0.31526755  0.48849532  1
  Zr  Zr116  1  0.17691388  0.47403776  0.40991861  1
  Zr  Zr117  1  0.47484348  0.80072408  0.48704263  1
  Zr  Zr118  1  0.90025288  0.72413040  0.50001161  1
  Zr  Zr119  1  0.57000419  0.43392664  0.42260943  1
  Zr  Zr120  1  0.91337959  0.27751542  0.57913309  1
  Zr  Zr121  1  0.17215436  0.60294984  0.52286322  1
  Zr  Zr122  1  0.58768281  0.51223315  0.49585271  1
  Zr  Zr123  1  0.27992791  0.23324612  0.56781159  1
  Zr  Zr124  1  0.09218194  0.00904045  0.50340810  1
  Zr  Zr125  1  0.79176619  0.71903439  0.57539031  1
  Zr  Zr126  1  0.41352188  0.77799598  0.57616750  1
  Zr  Zr127  1  0.70847095  0.05385767  0.51343545  1
  Zr  Zr128  1  0.30568250  0.69287454  0.72258089  1
  Zr  Zr129  1  0.60516843  0.98284571  0.65601978  1
  Zr  Zr130  1  0.97031222  0.94144931  0.63753769  1
  Zr  Zr131  1  0.66429657  0.65281792  0.70743963  1
  Zr  Zr132  1  0.47907259  0.43701886  0.64017004  1
  Zr  Zr133  1  0.16659746  0.14774532  0.70851972  1
  Zr  Zr134  1  0.79964996  0.19722717  0.72163247  1
  Zr  Zr135  1  0.10375462  0.48898933  0.65361395  1
  Zr  Zr136  1  0.70431427  0.10083978  0.86634387  1
  Zr  Zr137  1  0.99672193  0.40642861  0.79473111  1
  Zr  Zr138  1  0.36302219  0.35961883  0.77606072  1
  Zr  Zr139  1  0.05056606  0.07505020  0.84716541  1
  Zr  Zr140  1  0.86474007  0.85124242  0.78033677  1
  Zr  Zr141  1  0.55881084  0.56436362  0.84577303  1
  Zr  Zr142  1  0.19394214  0.61729648  0.86137608  1
  Zr  Zr143  1  0.49486845  0.90700137  0.79369586  1
  Zr  Zr144  1  0.22061635  0.39091834  0.98368148  1
  Zr  Zr145  1  0.38514930  0.82140149  0.93066194  1
  Zr  Zr146  1  0.74613291  0.77523225  0.92448926  1
  Zr  Zr147  1  0.53412486  0.43491017  0.98865546  1
  Zr  Zr148  1  0.27354062  0.27571896  0.90999406  1
  Zr  Zr149  1  0.97476346  0.94905220  0.98706424  1
  Zr  Zr150  1  0.54986644  0.02572964  0.00018838  1
  Zr  Zr151  1  0.88016494  0.31599371  0.92250434  1
  Si  Si152  1  0.55734629  0.97537754  0.13307420  1
  Si  Si153  1  0.25509411  0.67864298  0.05736365  1
  Si  Si154  1  0.45803053  0.31566697  0.09683918  1
  Si  Si155  1  0.15377715  0.01631976  0.02072195  1
  Si  Si156  1  0.85906137  0.96719857  0.13135718  1
  Si  Si157  1  0.53828018  0.69364178  0.05943722  1
  Si  Si158  1  0.17070798  0.30357210  0.09327025  1
  Si  Si159  1  0.16634156  0.55871126  0.26939496  1
  Si  Si160  1  0.85646374  0.26958096  0.19811422  1
  Si  Si161  1  0.07242677  0.88471506  0.23328781  1
  Si  Si162  1  0.76617556  0.59670389  0.16339038  1
  Si  Si163  1  0.46689474  0.54251571  0.27097083  1
  Si  Si164  1  0.15071333  0.26184723  0.20125486  1
  Si  Si165  1  0.77359043  0.89828685  0.23040720  1
  Si  Si166  1  0.47358799  0.60404610  0.15815227  1
  Si  Si167  1  0.77345074  0.13980045  0.40401846  1
  Si  Si168  1  0.46825173  0.84994240  0.33959814  1
  Si  Si169  1  0.68337617  0.46764790  0.37258517  1
  Si  Si170  1  0.37316750  0.17939396  0.30446920  1
  Si  Si171  1  0.05638994  0.14569800  0.41343198  1
  Si  Si172  1  0.76635190  0.84160498  0.34466703  1
  Si  Si173  1  0.37012205  0.48520566  0.36955395  1
  Si  Si174  1  0.07781082  0.18767073  0.29751299  1
  Si  Si175  1  0.01449806  0.44921098  0.46845416  1
  Si  Si176  1  0.00674300  0.74902547  0.43944460  1
  Si  Si177  1  0.70276491  0.76478773  0.44499883  1
  Si  Si178  1  0.89239603  0.77454348  0.63291534  1
  Si  Si179  1  0.19514904  0.07135998  0.55717071  1
  Si  Si180  1  0.99144226  0.43471128  0.59659899  1
  Si  Si181  1  0.29697756  0.73378005  0.52042407  1
  Si  Si182  1  0.59101205  0.78250150  0.63142616  1
  Si  Si183  1  0.91219907  0.05596213  0.55918902  1
  Si  Si184  1  0.27860236  0.44754561  0.59305021  1
  Si  Si185  1  0.28356249  0.19129531  0.76916070  1
  Si  Si186  1  0.59331655  0.48046111  0.69799294  1
  Si  Si187  1  0.37778464  0.86522036  0.73319154  1
  Si  Si188  1  0.68345485  0.15322392  0.66329063  1
  Si  Si189  1  0.98278555  0.20778679  0.77091853  1
  Si  Si190  1  0.29912290  0.48845852  0.70104998  1
  Si  Si191  1  0.67669298  0.85133994  0.73029672  1
  Si  Si192  1  0.97693105  0.14531276  0.65800581  1
  Si  Si193  1  0.67633543  0.61024155  0.90402502  1
  Si  Si194  1  0.98201926  0.89970480  0.83959313  1
  Si  Si195  1  0.76616421  0.28289094  0.87262949  1
  Si  Si196  1  0.07728479  0.57046929  0.80428462  1
  Si  Si197  1  0.39358361  0.60430457  0.91344817  1
  Si  Si198  1  0.68374977  0.90826704  0.84458464  1
  Si  Si199  1  0.08030612  0.26457863  0.86955122  1
  Si  Si200  1  0.37199489  0.56261721  0.79742450  1
  Si  Si201  1  0.43507937  0.30130811  0.96836713  1
  Si  Si202  1  0.44346892  0.00075084  0.93966994  1
  Si  Si203  1  0.74675398  0.98560041  0.94508568  1
  P  P204  1  0.83877932  0.27467252  0.07803315  1
  P  P205  1  0.87065678  0.73678177  0.07247908  1
  P  P206  1  0.44829072  0.85365645  0.22211004  1
  P  P207  1  0.14368974  0.56243209  0.15206321  1
  P  P208  1  0.17474063  0.00890327  0.13952530  1
  P  P209  1  0.48057167  0.30065312  0.21130870  1
  P  P210  1  0.03971787  0.43363106  0.35843770  1
  P  P211  1  0.75380461  0.14247954  0.29145826  1
  P  P212  1  0.77931587  0.60132394  0.28041882  1
  P  P213  1  0.09804484  0.88939560  0.34520177  1
  P  P214  1  0.36768267  0.74087085  0.42664554  1
  P  P215  1  0.37974744  0.18216781  0.41907919  1
  P  P216  1  0.61151850  0.47489117  0.57807190  1
  P  P217  1  0.57909435  0.01310865  0.57243539  1
  P  P218  1  0.00144360  0.89640034  0.72190038  1
  P  P219  1  0.30623254  0.18752724  0.65187994  1
  P  P220  1  0.27504573  0.74113051  0.63938152  1
  P  P221  1  0.96969104  0.44904198  0.71117813  1
  P  P222  1  0.41036258  0.31589022  0.85827754  1
  P  P223  1  0.69662545  0.60740620  0.79144892  1
  P  P224  1  0.67096900  0.14862072  0.78040671  1
  P  P225  1  0.35205210  0.86103346  0.84526004  1
  P  P226  1  0.08200769  0.00909773  0.92669913  1
  P  P227  1  0.06980767  0.56784669  0.91902539  1
  O  O228  1  0.27748676  0.68566831  0.02040703  1
  O  O229  1  0.57213806  0.99599023  0.09613278  1
  O  O230  1  0.13120914  0.00966915  0.05811502  1
  O  O231  1  0.44677275  0.28692565  0.13294864  1
  O  O232  1  0.59899590  0.56508485  0.06848064  1
  O  O233  1  0.42792659  0.08303546  0.03673392  1
  O  O234  1  0.97631433  0.96292113  0.03577468  1
  O  O235  1  0.11789781  0.42575604  0.07906258  1
  O  O236  1  0.54176001  0.42122463  0.03558653  1
  O  O237  1  0.86678913  0.71157750  0.10727664  1
  O  O238  1  0.82775740  0.29955590  0.04183976  1
  O  O239  1  0.13581213  0.58003189  0.11631160  1
  O  O240  1  0.09662513  0.13623193  0.13284104  1
  O  O241  1  0.81237895  0.85947883  0.06689619  1
  O  O242  1  0.90362895  0.14990666  0.08420090  1
  O  O243  1  0.61499210  0.87466261  0.01197879  1
  O  O244  1  0.71975852  0.34354930  0.09261377  1
  O  O245  1  0.29707332  0.95280476  0.12907367  1
  O  O246  1  0.99365054  0.66625676  0.06111763  1
  O  O247  1  0.90157180  0.30845148  0.09318659  1
  O  O248  1  0.13330345  0.95854267  0.12146124  1
  O  O249  1  0.81467670  0.70370360  0.05223401  1
  O  O250  1  0.37138745  0.61170829  0.07789230  1
  O  O251  1  0.19384120  0.29948209  0.00946837  1
  O  O252  1  0.03425429  0.12528961  0.00470370  1
  O  O253  1  0.33471004  0.39217285  0.07834067  1
  O  O254  1  0.41313480  0.75723399  0.04331211  1
  O  O255  1  0.74422022  0.02888551  0.11031153  1
  O  O256  1  0.28127216  0.25572951  0.11425115  1
  O  O257  1  0.20463312  0.21082940  0.06632671  1
  O  O258  1  0.53173262  0.51521608  0.12935324  1
  O  O259  1  0.16014702  0.48920336  0.02230204  1
  O  O260  1  0.50612329  0.77184534  0.09038468  1
  O  O261  1  0.54094529  0.19958624  0.07661319  1
  O  O262  1  0.19731450  0.90325322  0.00352311  1
  O  O263  1  0.84866221  0.53441766  0.01138394  1
  O  O264  1  0.16648635  0.80085654  0.07566193  1
  O  O265  1  0.50889402  0.37620881  0.09928396  1
  O  O266  1  0.23765579  0.04694793  0.01740699  1
  O  O267  1  0.50099570  0.92049427  0.13100891  1
  O  O268  1  0.19339128  0.62732887  0.05769982  1
  O  O269  1  0.06793544  0.32779069  0.11332124  1
  O  O270  1  0.63890292  0.04353058  0.02889559  1
  O  O271  1  0.95812648  0.94512514  0.10955901  1
  O  O272  1  0.61433795  0.70220190  0.03475131  1
  O  O273  1  0.86265487  0.29689681  0.16137730  1
  O  O274  1  0.17377537  0.58977300  0.23315596  1
  O  O275  1  0.75965992  0.56778401  0.19995589  1
  O  O276  1  0.06740408  0.85084796  0.26931700  1
  O  O277  1  0.20543627  0.13857353  0.21447941  1
  O  O278  1  0.90611527  0.84736849  0.14587269  1
  O  O279  1  0.41467972  0.73045245  0.14637819  1
  O  O280  1  0.72341711  0.01552466  0.21360745  1
  O  O281  1  0.17591371  0.99224554  0.17567931  1
  O  O282  1  0.48746754  0.28287550  0.24739937  1
  O  O283  1  0.44927413  0.86570593  0.18597677  1
  O  O284  1  0.74745467  0.15330558  0.25526340  1
  O  O285  1  0.70573277  0.72461713  0.26986704  1
  O  O286  1  0.40372049  0.42578921  0.20271281  1
  O  O287  1  0.52528913  0.72845110  0.23115528  1
  O  O288  1  0.22022901  0.43814957  0.16137055  1
  O  O289  1  0.32545820  0.91136172  0.23231438  1
  O  O290  1  0.02472354  0.61969202  0.16604551  1
  O  O291  1  0.89969564  0.53597622  0.26634649  1
  O  O292  1  0.59880290  0.24028208  0.19656724  1
  O  O293  1  0.48716950  0.90854443  0.23889225  1
  O  O294  1  0.18675545  0.61705928  0.16687350  1
  O  O295  1  0.72898934  0.55217668  0.26685535  1
  O  O296  1  0.43173255  0.25019059  0.19762960  1
  O  O297  1  0.98335837  0.18748623  0.21387833  1
  O  O298  1  0.68239268  0.89915586  0.14928854  1
  O  O299  1  0.64056338  0.67502832  0.14718994  1
  O  O300  1  0.94606959  0.96311757  0.21752848  1
  O  O301  1  0.03844967  0.31162292  0.18017390  1
  O  O302  1  0.35699582  0.59809024  0.24807787  1
  O  O303  1  0.57377973  0.56212885  0.18372882  1
  O  O304  1  0.87507703  0.85527203  0.25556796  1
  O  O305  1  0.83535018  0.79714711  0.20388258  1
  O  O306  1  0.13566898  0.08960400  0.27073129  1
  O  O307  1  0.81376246  0.05876700  0.15977554  1
  O  O308  1  0.10298719  0.35582819  0.22881030  1
  O  O309  1  0.15710661  0.77306873  0.21068981  1
  O  O310  1  0.84592434  0.48491497  0.14071736  1
  O  O311  1  0.47630324  0.09069653  0.15348425  1
  O  O312  1  0.78050603  0.38130732  0.22063643  1
  O  O313  1  0.12449100  0.94495152  0.23421164  1
  O  O314  1  0.82061122  0.65533078  0.16428453  1
  O  O315  1  0.11558955  0.49702003  0.26795961  1
  O  O316  1  0.80131388  0.21251027  0.19876900  1
  O  O317  1  0.66985525  0.91628544  0.24745800  1
  O  O318  1  0.37637346  0.61227629  0.17697553  1
  O  O319  1  0.56679251  0.53020871  0.25357226  1
  O  O320  1  0.24862661  0.24623469  0.18133476  1
  O  O321  1  0.47944780  0.88350014  0.30438146  1
  O  O322  1  0.78717048  0.16347519  0.36750173  1
  O  O323  1  0.36784254  0.14011144  0.33984361  1
  O  O324  1  0.69804830  0.42836820  0.40947617  1
  O  O325  1  0.82051798  0.71693632  0.35702464  1
  O  O326  1  0.51991341  0.41958466  0.28381637  1
  O  O327  1  0.02887750  0.30574058  0.28208610  1
  O  O328  1  0.32440199  0.60669689  0.35697673  1
  O  O329  1  0.77865939  0.59505951  0.31664862  1
  O  O330  1  0.10715601  0.88772013  0.38103007  1
  O  O331  1  0.03284861  0.44810224  0.32237584  1
  O  O332  1  0.36287373  0.76235779  0.39072838  1
  O  O333  1  0.30198260  0.29372951  0.40045749  1
  O  O334  1  0.02249267  0.01044940  0.33270893  1
  O  O335  1  0.12512793  0.30907501  0.36773625  1
  O  O336  1  0.83644622  0.01882901  0.30193732  1
  O  O337  1  0.92195256  0.48755448  0.37155036  1
  O  O338  1  0.63577248  0.19882733  0.30583158  1
  O  O339  1  0.50564218  0.11940494  0.41118398  1
  O  O340  1  0.22019732  0.82535706  0.33153544  1
  O  O341  1  0.07767389  0.49519726  0.37058749  1
  O  O342  1  0.79224367  0.20415746  0.30386017  1
  O  O343  1  0.35080084  0.11054339  0.40744534  1
  O  O344  1  0.05560546  0.83017294  0.33487622  1
  O  O345  1  0.58597801  0.79119445  0.35905534  1
  O  O346  1  0.29285528  0.48001256  0.28564361  1
  O  O347  1  0.24670158  0.26031761  0.28830834  1
  O  O348  1  0.55072443  0.52829345  0.36355568  1
  O  O349  1  0.66536983  0.88806022  0.31870696  1
  O  O350  1  0.96981141  0.17131134  0.38503702  1
  O  O351  1  0.18052216  0.13978638  0.32291388  1
  O  O352  1  0.44949626  0.44714398  0.40111026  1
  O  O353  1  0.44477638  0.38639164  0.34266897  1
  O  O354  1  0.73599304  0.68325942  0.41420131  1
  O  O355  1  0.42151289  0.62802337  0.30114177  1
  O  O356  1  0.71267255  0.92927723  0.37427435  1
  O  O357  1  0.76460617  0.36034765  0.34887456  1
  O  O358  1  0.45529571  0.07139121  0.28078687  1
  O  O359  1  0.08230327  0.67008188  0.29203850  1
  O  O360  1  0.36636280  0.95963683  0.36083169  1
  O  O361  1  0.70845413  0.54995929  0.37070713  1
  O  O362  1  0.42131482  0.24313084  0.30815550  1
  O  O363  1  0.71953151  0.08110686  0.40423522  1
  O  O364  1  0.44597331  0.76414179  0.33476819  1
  O  O365  1  0.26160293  0.49962462  0.38050396  1
  O  O366  1  0.97312810  0.21142814  0.31585601  1
  O  O367  1  0.16508899  0.12388049  0.39661590  1
  O  O368  1  0.86823539  0.82893192  0.32723408  1
  O  O369  1  0.04850132  0.46832000  0.43375766  1
  O  O370  1  0.04086920  0.70287084  0.47634623  1
  O  O371  1  0.25887485  0.42505547  0.44916586  1
  O  O372  1  0.11351840  0.02398814  0.42913519  1
  O  O373  1  0.64189968  0.89189252  0.43302024  1
  O  O374  1  0.75880074  0.39370144  0.47946892  1
  O  O375  1  0.35909912  0.20116896  0.45538462  1
  O  O376  1  0.66508526  0.04491508  0.46825602  1
  O  O377  1  0.59838657  0.62235201  0.48523107  1
  O  O378  1  0.45963343  0.61327655  0.43280899  1
  O  O379  1  0.25236329  0.78180814  0.43730686  1
  O  O380  1  0.39882990  0.80309248  0.44423201  1
  O  O381  1  0.12826233  0.31500720  0.47518586  1
  O  O382  1  0.89636208  0.06203538  0.42185142  1
  O  O383  1  0.86735739  0.84353278  0.43519769  1
  O  O384  1  0.96270669  0.16562592  0.48940655  1
  O  O385  1  0.82266557  0.71049247  0.46277894  1
  O  O386  1  0.03980198  0.94841955  0.47578026  1
  O  O387  1  0.99225809  0.24831950  0.43876299  1
  O  O388  1  0.40267791  0.95695230  0.48499581  1
  O  O389  1  0.05646636  0.64562120  0.41525783  1
  O  O390  1  0.68426862  0.26004536  0.42299683  1
  O  O391  1  0.04019247  0.50932583  0.49397793  1
  O  O392  1  0.06278960  0.80046642  0.42930159  1
  O  O393  1  0.90376339  0.46093574  0.47297739  1
  O  O394  1  0.62046008  0.76765895  0.46945956  1
  O  O395  1  0.55606380  0.42979153  0.46816024  1
  O  O396  1  0.17280868  0.06422789  0.52023633  1
  O  O397  1  0.87755625  0.75350388  0.59601631  1
  O  O398  1  0.31869548  0.74067839  0.55788018  1
  O  O399  1  0.00281636  0.46361876  0.63267857  1
  O  O400  1  0.85146037  0.18443131  0.56840871  1
  O  O401  1  0.02216736  0.66764711  0.53655911  1
  O  O402  1  0.47407318  0.78668312  0.53577662  1
  O  O403  1  0.33103671  0.32531820  0.57897877  1
  O  O404  1  0.90813616  0.32897268  0.53545719  1
  O  O405  1  0.58238472  0.03854389  0.60725739  1
  O  O406  1  0.62316017  0.45008381  0.54185122  1
  O  O407  1  0.31472037  0.16966855  0.61612010  1
  O  O408  1  0.35379134  0.61379798  0.63263815  1
  O  O409  1  0.63624139  0.89064230  0.56697642  1
  O  O410  1  0.54588498  0.59971687  0.58438370  1
  O  O411  1  0.83552518  0.87509820  0.51172092  1
  O  O412  1  0.73041387  0.40622747  0.59270954  1
  O  O413  1  0.15275234  0.79624783  0.62917247  1
  O  O414  1  0.45633108  0.08468374  0.56074635  1
  O  O415  1  0.54905833  0.44028265  0.59293992  1
  O  O416  1  0.31529917  0.79236369  0.62117745  1
  O  O417  1  0.63700909  0.04436456  0.55235772  1
  O  O418  1  0.07886437  0.13816464  0.57770298  1
  O  O419  1  0.25577956  0.45110910  0.50927089  1
  O  O420  1  0.41691864  0.62492430  0.50458467  1
  O  O421  1  0.11503079  0.35819900  0.57822229  1
  O  O422  1  0.03701540  0.99258551  0.54291826  1
  O  O423  1  0.70586285  0.72096198  0.61040689  1
  O  O424  1  0.16772208  0.49591504  0.61399363  1
  O  O425  1  0.24538029  0.53979108  0.56603059  1
  O  O426  1  0.91900850  0.23426603  0.62923709  1
  O  O427  1  0.28951330  0.26168537  0.52220553  1
  O  O428  1  0.94463139  0.97755172  0.59012417  1
  O  O429  1  0.90844108  0.55049863  0.57624294  1
  O  O430  1  0.25366546  0.84681312  0.50321045  1
  O  O431  1  0.60067300  0.21529234  0.51156399  1
  O  O432  1  0.28396837  0.94920723  0.57549959  1
  O  O433  1  0.94115621  0.37364579  0.59913341  1
  O  O434  1  0.21342393  0.70278836  0.51693540  1
  O  O435  1  0.94886361  0.82928347  0.63060526  1
  O  O436  1  0.25658565  0.12298221  0.55746285  1
  O  O437  1  0.38149971  0.42297552  0.61316208  1
  O  O438  1  0.81058357  0.70731019  0.52876320  1
  O  O439  1  0.49222418  0.80410245  0.60959367  1
  O  O440  1  0.83551261  0.04787318  0.53464921  1
  O  O441  1  0.58737173  0.45311718  0.66122698  1
  O  O442  1  0.27602082  0.16037135  0.73292747  1
  O  O443  1  0.69044520  0.18212635  0.69981640  1
  O  O444  1  0.38266552  0.89908800  0.76923894  1
  O  O445  1  0.24425158  0.61186858  0.71418519  1
  O  O446  1  0.54355016  0.90253589  0.64591013  1
  O  O447  1  0.03542377  0.01905671  0.64618666  1
  O  O448  1  0.72715531  0.73399533  0.71352443  1
  O  O449  1  0.27432589  0.75784176  0.67551430  1
  O  O450  1  0.96317438  0.46649145  0.74728282  1
  O  O451  1  0.00011432  0.88437763  0.68578239  1
  O  O452  1  0.70310559  0.59631808  0.75525599  1
  O  O453  1  0.74401120  0.02536329  0.76987098  1
  O  O454  1  0.04626884  0.32400344  0.70245759  1
  O  O455  1  0.92467807  0.02159729  0.73095516  1
  O  O456  1  0.22975704  0.31196173  0.66102411  1
  O  O457  1  0.12435650  0.83869968  0.73206143  1
  O  O458  1  0.42505025  0.13014844  0.66601293  1
  O  O459  1  0.55043228  0.21443341  0.76635460  1
  O  O460  1  0.85132823  0.50959545  0.69651485  1
  O  O461  1  0.96259345  0.84167125  0.73880073  1
  O  O462  1  0.26268359  0.13332818  0.66663769  1
  O  O463  1  0.72172734  0.19720775  0.76674924  1
  O  O464  1  0.01864136  0.49937130  0.69748098  1
  O  O465  1  0.46644768  0.56240475  0.71376131  1
  O  O466  1  0.76744807  0.85114849  0.64917869  1
  O  O467  1  0.80898146  0.07459904  0.64698406  1
  O  O468  1  0.50418042  0.78666849  0.71747251  1
  O  O469  1  0.41140570  0.43855827  0.67996298  1
  O  O470  1  0.09277482  0.15204271  0.74801436  1
  O  O471  1  0.87646985  0.18749267  0.68353546  1
  O  O472  1  0.57497368  0.89442383  0.75536677  1
  O  O473  1  0.61494253  0.95246780  0.70378643  1
  O  O474  1  0.31431023  0.66047799  0.77059105  1
  O  O475  1  0.63637010  0.69088265  0.65980694  1
  O  O476  1  0.34692995  0.39459739  0.72866176  1
  O  O477  1  0.29321295  0.97690344  0.71060540  1
  O  O478  1  0.60382028  0.26501609  0.64061711  1
  O  O479  1  0.97324590  0.65943588  0.65340662  1
  O  O480  1  0.66946899  0.36863490  0.72047402  1
  O  O481  1  0.32556647  0.80509388  0.73409037  1
  O  O482  1  0.62884507  0.09480254  0.66431122  1
  O  O483  1  0.33384865  0.25344015  0.76773375  1
  O  O484  1  0.64833723  0.53765885  0.69881877  1
  O  O485  1  0.78014557  0.83365199  0.74742779  1
  O  O486  1  0.07420438  0.13677113  0.67689192  1
  O  O487  1  0.88313337  0.21988724  0.75343994  1
  O  O488  1  0.20145640  0.50360605  0.68110935  1
  O  O489  1  0.97078382  0.86610231  0.80438388  1
  O  O490  1  0.66251238  0.58676738  0.86749778  1
  O  O491  1  0.08218685  0.60998561  0.83967926  1
  O  O492  1  0.75126621  0.32250713  0.90950985  1
  O  O493  1  0.62999699  0.03276017  0.85701701  1
  O  O494  1  0.92981333  0.33066748  0.78377147  1
  O  O495  1  0.42111011  0.44434838  0.78209074  1
  O  O496  1  0.12546365  0.14329197  0.85699403  1
  O  O497  1  0.67184506  0.15486544  0.81662564  1
  O  O498  1  0.34333120  0.86305224  0.88110489  1
  O  O499  1  0.41679174  0.30136791  0.82221743  1
  O  O500  1  0.08659583  0.98782567  0.89076876  1
  O  O501  1  0.14780483  0.45605258  0.90050102  1
  O  O502  1  0.42741445  0.73989941  0.83283363  1
  O  O503  1  0.32473903  0.44050016  0.86756416  1
  O  O504  1  0.61388799  0.73116969  0.80183900  1
  O  O505  1  0.52817122  0.26242924  0.87122788  1
  O  O506  1  0.81457700  0.55112541  0.80587080  1
  O  O507  1  0.94399393  0.63075780  0.91093915  1
  O  O508  1  0.22981299  0.92495328  0.83166318  1
  O  O509  1  0.37299306  0.25395812  0.87057792  1
  O  O510  1  0.65794552  0.54597443  0.80389301  1
  O  O511  1  0.09909369  0.63918272  0.90740210  1
  O  O512  1  0.39446645  0.92013205  0.83474745  1
  O  O513  1  0.86416995  0.95888882  0.85907547  1
  O  O514  1  0.15721988  0.26940615  0.78550197  1
  O  O515  1  0.20370760  0.48999204  0.78814312  1
  O  O516  1  0.89901633  0.22204579  0.86373340  1
  O  O517  1  0.78482552  0.86158071  0.81865533  1
  O  O518  1  0.48038955  0.57845589  0.88507733  1
  O  O519  1  0.26925629  0.61060446  0.82283974  1
  O  O520  1  0.00056730  0.30300439  0.90104725  1
  O  O521  1  0.00603554  0.36318370  0.84258727  1
  O  O522  1  0.71382049  0.06714901  0.91430767  1
  O  O523  1  0.02788662  0.12245070  0.80115551  1
  O  O524  1  0.73720913  0.82056813  0.87419083  1
  O  O525  1  0.68517588  0.38986640  0.84881370  1
  O  O526  1  0.99481472  0.67841717  0.78061378  1
  O  O527  1  0.36791756  0.07989247  0.79176976  1
  O  O528  1  0.08374451  0.79011804  0.86088835  1
  O  O529  1  0.74125558  0.20043216  0.87081331  1
  O  O530  1  0.02959333  0.50625472  0.80796772  1
  O  O531  1  0.72979236  0.66935906  0.90424513  1
  O  O532  1  0.00437647  0.98548074  0.83470405  1
  O  O533  1  0.18902678  0.24966741  0.88059737  1
  O  O534  1  0.47645118  0.53914224  0.81582316  1
  O  O535  1  0.28518642  0.62563377  0.89656102  1
  O  O536  1  0.58156648  0.92163216  0.82707618  1
  O  O537  1  0.40252403  0.28132125  0.93357137  1
  O  O538  1  0.40967396  0.04695124  0.97656817  1
  O  O539  1  0.19196138  0.32451345  0.94927703  1
  O  O540  1  0.33617769  0.72625178  0.92898965  1
  O  O541  1  0.80760534  0.85854361  0.93304869  1
  O  O542  1  0.69181203  0.35625015  0.97972193  1
  O  O543  1  0.08978010  0.54909228  0.95535336  1
  O  O544  1  0.78488500  0.70497276  0.96823497  1
  O  O545  1  0.85242766  0.12747694  0.98516105  1
  O  O546  1  0.99015685  0.13673809  0.93290845  1
  O  O547  1  0.19742995  0.96807007  0.93729679  1
  O  O548  1  0.05102332  0.94681629  0.94432230  1
  O  O549  1  0.32068927  0.43561760  0.97486912  1
  O  O550  1  0.55357330  0.68767504  0.92195193  1
  O  O551  1  0.58272541  0.90608343  0.93526451  1
  O  O552  1  0.48809523  0.58440765  0.98956258  1
  O  O553  1  0.62700063  0.03969317  0.96289234  1
  O  O554  1  0.41023275  0.80138397  0.97591161  1
  O  O555  1  0.45766420  0.50203240  0.93890745  1
  O  O556  1  0.04742489  0.79275879  0.98471275  1
  O  O557  1  0.39359542  0.10423197  0.91550420  1
  O  O558  1  0.76595398  0.48993071  0.92290954  1
  O  O559  1  0.40909294  0.24165041  0.99394382  1
  O  O560  1  0.38683901  0.94972251  0.92971457  1
  O  O561  1  0.54552595  0.29003773  0.97317647  1
  O  O562  1  0.82879493  0.98283195  0.96966656  1
  O  O563  1  0.89422611  0.32030464  0.96803984  1
