# generated using pymatgen
data_Na20Zr14Si12P6O77
_symmetry_space_group_name_H-M   'P 1'
_cell_length_a   15.80284400
_cell_length_b   16.04975156
_cell_length_c   38.78463525
_cell_angle_alpha   90.00000000
_cell_angle_beta   90.00000000
_cell_angle_gamma   48.30066901
_symmetry_Int_Tables_number   1
_chemical_formula_structural   Na20Zr14Si12P6O77
_chemical_formula_sum   'Na80 Zr56 Si48 P24 O308'
_cell_volume   7344.76647806
_cell_formula_units_Z   4
loop_
 _symmetry_equiv_pos_site_id
 _symmetry_equiv_pos_as_xyz
  1  'x, y, z'
loop_
 _atom_site_type_symbol
 _atom_site_label
 _atom_site_symmetry_multiplicity
 _atom_site_fract_x
 _atom_site_fract_y
 _atom_site_fract_z
 _atom_site_occupancy
  Na  Na0  1  0.35846070  0.53732663  0.99621982  1
  Na  Na1  1  0.75777979  0.67592369  0.09688359  1
  Na  Na2  1  0.17113418  0.11405599  0.09769751  1
  Na  Na3  1  0.12894223  0.63658468  0.03104789  1
  Na  Na4  1  0.91717525  0.42161896  0.04166098  1
  Na  Na5  1  0.47687934  0.20206037  0.04208979  1
  Na  Na6  1  0.69774912  0.16670432  0.03735868  1
  Na  Na7  1  0.07192508  0.43860211  0.14274272  1
  Na  Na8  1  0.19444263  0.81642029  0.03709572  1
  Na  Na9  1  0.47923569  0.95716544  0.11320146  1
  Na  Na10  1  0.39780708  0.76931868  0.09765881  1
  Na  Na11  1  0.75428438  0.22300241  0.17784939  1
  Na  Na12  1  0.31595968  0.32773170  0.25035001  1
  Na  Na13  1  0.92168171  0.58639283  0.25853696  1
  Na  Na14  1  0.45413537  0.44649697  0.15450385  1
  Na  Na15  1  0.50424216  0.95536970  0.22435678  1
  Na  Na16  1  0.14789760  0.67590607  0.12257337  1
  Na  Na17  1  0.33406692  0.74031989  0.20254004  1
  Na  Na18  1  0.67944336  0.02219344  0.29511663  1
  Na  Na19  1  0.79755410  0.41278410  0.14827016  1
  Na  Na20  1  0.10780430  0.70562518  0.22120229  1
  Na  Na21  1  0.02580697  0.30184844  0.26841228  1
  Na  Na22  1  0.72497758  0.99605580  0.20088196  1
  Na  Na23  1  0.61759981  0.61285076  0.32606069  1
  Na  Na24  1  0.85144092  0.96191042  0.39534904  1
  Na  Na25  1  0.41361700  0.24267794  0.40273484  1
  Na  Na26  1  0.25107867  0.84994453  0.33063756  1
  Na  Na27  1  0.10670376  0.53593141  0.37020222  1
  Na  Na28  1  0.80666587  0.25051117  0.29840773  1
  Na  Na29  1  0.99001559  0.30893997  0.37675941  1
  Na  Na30  1  0.33199225  0.63272538  0.45098361  1
  Na  Na31  1  0.41777489  0.96335998  0.30786521  1
  Na  Na32  1  0.72183352  0.27848230  0.38160917  1
  Na  Na33  1  0.63600968  0.88625474  0.40055926  1
  Na  Na34  1  0.34021893  0.57871668  0.35473841  1
  Na  Na35  1  0.27134516  0.16436282  0.47610952  1
  Na  Na36  1  0.98075295  0.37684330  0.47681220  1
  Na  Na37  1  0.41510608  0.82878775  0.44391824  1
  Na  Na38  1  0.69770951  0.68334708  0.49937643  1
  Na  Na39  1  0.93226231  0.17760961  0.47226867  1
  Na  Na40  1  0.04277648  0.73550283  0.49657360  1
  Na  Na41  1  0.64199650  0.59885396  0.59706220  1
  Na  Na42  1  0.22839491  0.16114230  0.59782630  1
  Na  Na43  1  0.27222566  0.63780264  0.53137828  1
  Na  Na44  1  0.48238086  0.85356815  0.54153063  1
  Na  Na45  1  0.92341287  0.07283881  0.54201090  1
  Na  Na46  1  0.70168375  0.10891081  0.53742248  1
  Na  Na47  1  0.32800221  0.83649374  0.64250401  1
  Na  Na48  1  0.20552401  0.45883613  0.53717913  1
  Na  Na49  1  0.92046911  0.31746730  0.61329088  1
  Na  Na50  1  0.00193809  0.50561545  0.59759299  1
  Na  Na51  1  0.64514278  0.05241263  0.67782256  1
  Na  Na52  1  0.08418886  0.94710232  0.75032804  1
  Na  Na53  1  0.47890803  0.68784935  0.75867930  1
  Na  Na54  1  0.94525052  0.82898614  0.65458049  1
  Na  Na55  1  0.89588342  0.31991259  0.72426964  1
  Na  Na56  1  0.25150320  0.59921269  0.62263303  1
  Na  Na57  1  0.06530882  0.53547884  0.70217576  1
  Na  Na58  1  0.72040751  0.25279479  0.79528599  1
  Na  Na59  1  0.60206778  0.86235153  0.64831429  1
  Na  Na60  1  0.29180416  0.56942251  0.72110244  1
  Na  Na61  1  0.37411955  0.97305122  0.76847101  1
  Na  Na62  1  0.67496388  0.27907388  0.70096894  1
  Na  Na63  1  0.78261172  0.66203607  0.82609254  1
  Na  Na64  1  0.54856213  0.31312137  0.89528494  1
  Na  Na65  1  0.98662431  0.03197182  0.90264063  1
  Na  Na66  1  0.14878239  0.42517040  0.83065908  1
  Na  Na67  1  0.29349953  0.73884155  0.87025867  1
  Na  Na68  1  0.59286720  0.02452886  0.79857101  1
  Na  Na69  1  0.40999682  0.96606849  0.87700607  1
  Na  Na70  1  0.06843188  0.64178829  0.95088890  1
  Na  Na71  1  0.98237393  0.31153288  0.80793664  1
  Na  Na72  1  0.67822925  0.99664151  0.88174944  1
  Na  Na73  1  0.76420353  0.38869892  0.90045034  1
  Na  Na74  1  0.05990506  0.69589336  0.85460117  1
  Na  Na75  1  0.12976188  0.10963671  0.97608279  1
  Na  Na76  1  0.41969926  0.89766412  0.97692655  1
  Na  Na77  1  0.98538410  0.44598286  0.94394552  1
  Na  Na78  1  0.70288267  0.59110808  0.99914231  1
  Na  Na79  1  0.46858438  0.09672248  0.97225121  1
  Zr  Zr80  1  0.64937370  0.37869706  0.10253251  1
  Zr  Zr81  1  0.34065606  0.09587450  0.03179088  1
  Zr  Zr82  1  0.89107427  0.17790330  0.03416369  1
  Zr  Zr83  1  0.27659396  0.43511550  0.08667716  1
  Zr  Zr84  1  0.43262682  0.68982984  0.00639250  1
  Zr  Zr85  1  0.76551260  0.94496938  0.08961220  1
  Zr  Zr86  1  0.13116268  0.89514626  0.11117907  1
  Zr  Zr87  1  0.91076157  0.62429168  0.00213704  1
  Zr  Zr88  1  0.25154737  0.96887595  0.25667036  1
  Zr  Zr89  1  0.94531512  0.67779603  0.18248021  1
  Zr  Zr90  1  0.58171007  0.71985224  0.16172133  1
  Zr  Zr91  1  0.89195445  0.01367422  0.23926786  1
  Zr  Zr92  1  0.07815219  0.23447565  0.16918083  1
  Zr  Zr93  1  0.38671191  0.51511964  0.24310876  1
  Zr  Zr94  1  0.75294696  0.46248810  0.25697042  1
  Zr  Zr95  1  0.45446380  0.16824434  0.18090522  1
  Zr  Zr96  1  0.86677286  0.55382859  0.41778072  1
  Zr  Zr97  1  0.56343609  0.25901911  0.33648146  1
  Zr  Zr98  1  0.19046942  0.30492686  0.31679241  1
  Zr  Zr99  1  0.50917887  0.58613724  0.39862696  1
  Zr  Zr100  1  0.69497125  0.80160084  0.31408623  1
  Zr  Zr101  1  0.99925594  0.09051116  0.39255693  1
  Zr  Zr102  1  0.36783286  0.04500719  0.40236761  1
  Zr  Zr103  1  0.06944684  0.75423686  0.33534146  1
  Zr  Zr104  1  0.16253209  0.88865560  0.49164899  1
  Zr  Zr105  1  0.77506881  0.88726212  0.46424244  1
  Zr  Zr106  1  0.25107567  0.48113145  0.46254196  1
  Zr  Zr107  1  0.66951155  0.32385565  0.49019216  1
  Zr  Zr108  1  0.75011605  0.89676591  0.60256475  1
  Zr  Zr109  1  0.05989502  0.17888509  0.53181229  1
  Zr  Zr110  1  0.50844142  0.09754819  0.53412298  1
  Zr  Zr111  1  0.12311921  0.83994506  0.58665462  1
  Zr  Zr112  1  0.96728525  0.58482567  0.50645851  1
  Zr  Zr113  1  0.63428339  0.33026362  0.58961455  1
  Zr  Zr114  1  0.26863687  0.37997886  0.61124800  1
  Zr  Zr115  1  0.48993908  0.65011166  0.50213889  1
  Zr  Zr116  1  0.14844411  0.30634959  0.75674342  1
  Zr  Zr117  1  0.45409785  0.59756015  0.68244430  1
  Zr  Zr118  1  0.81803276  0.55531829  0.66174890  1
  Zr  Zr119  1  0.50788310  0.26148683  0.73930464  1
  Zr  Zr120  1  0.32177344  0.04040878  0.66925655  1
  Zr  Zr121  1  0.01302272  0.76003445  0.74308691  1
  Zr  Zr122  1  0.64664713  0.81282315  0.75706179  1
  Zr  Zr123  1  0.94530376  0.10708029  0.68094138  1
  Zr  Zr124  1  0.53347407  0.72102444  0.91780553  1
  Zr  Zr125  1  0.83644768  0.01597155  0.83649130  1
  Zr  Zr126  1  0.20941220  0.97006895  0.81684072  1
  Zr  Zr127  1  0.89107326  0.68856781  0.89858847  1
  Zr  Zr128  1  0.70513209  0.47340647  0.81403112  1
  Zr  Zr129  1  0.40106657  0.18433287  0.89262076  1
  Zr  Zr130  1  0.03255546  0.22976786  0.90244681  1
  Zr  Zr131  1  0.33064446  0.52088268  0.83534278  1
  Zr  Zr132  1  0.23826802  0.38571135  0.99161330  1
  Zr  Zr133  1  0.62563854  0.38747458  0.96416671  1
  Zr  Zr134  1  0.14911419  0.79366611  0.96252757  1
  Zr  Zr135  1  0.73129677  0.95071881  0.99024194  1
  Si  Si136  1  0.35246494  0.60472096  0.07889462  1
  Si  Si137  1  0.56559793  0.22048555  0.11245505  1
  Si  Si138  1  0.20953537  0.97879620  0.03846211  1
  Si  Si139  1  0.64271853  0.59392738  0.07655839  1
  Si  Si140  1  0.27408873  0.22292179  0.11471482  1
  Si  Si141  1  0.95440784  0.93204577  0.03568177  1
  Si  Si142  1  0.66478035  0.88883596  0.15699886  1
  Si  Si143  1  0.96139323  0.18430675  0.23043760  1
  Si  Si144  1  0.17766244  0.79917508  0.26789528  1
  Si  Si145  1  0.86665686  0.51389390  0.19305918  1
  Si  Si146  1  0.95004325  0.88464873  0.15689876  1
  Si  Si147  1  0.26613403  0.17258207  0.23676522  1
  Si  Si148  1  0.89184238  0.80388644  0.26552743  1
  Si  Si149  1  0.57095354  0.51861188  0.18786186  1
  Si  Si150  1  0.27846987  0.46699609  0.31146003  1
  Si  Si151  1  0.58497915  0.75355507  0.38398057  1
  Si  Si152  1  0.78835413  0.37885289  0.42373738  1
  Si  Si153  1  0.48313877  0.09091166  0.34056937  1
  Si  Si154  1  0.56487567  0.46522932  0.31252406  1
  Si  Si155  1  0.87259619  0.75098760  0.38387892  1
  Si  Si156  1  0.49320794  0.38020140  0.41880121  1
  Si  Si157  1  0.18052872  0.09952422  0.33803902  1
  Si  Si158  1  0.87561468  0.03966674  0.46281573  1
  Si  Si159  1  0.17761909  0.05501668  0.45820251  1
  Si  Si160  1  0.04700776  0.67038848  0.57912649  1
  Si  Si161  1  0.83432511  0.05466836  0.61247941  1
  Si  Si162  1  0.19059078  0.29614040  0.53841560  1
  Si  Si163  1  0.75661370  0.68129858  0.57655503  1
  Si  Si164  1  0.12558525  0.05221204  0.61470618  1
  Si  Si165  1  0.44538411  0.34338396  0.53575767  1
  Si  Si166  1  0.73473300  0.38653316  0.65703507  1
  Si  Si167  1  0.43851542  0.09076255  0.73045335  1
  Si  Si168  1  0.22204887  0.47622806  0.76789843  1
  Si  Si169  1  0.53313214  0.76093394  0.69311373  1
  Si  Si170  1  0.44981213  0.39062171  0.65694749  1
  Si  Si171  1  0.13393890  0.10252599  0.73685683  1
  Si  Si172  1  0.50821204  0.47106598  0.76545921  1
  Si  Si173  1  0.82811659  0.75711409  0.68789142  1
  Si  Si174  1  0.12137131  0.80792235  0.81146718  1
  Si  Si175  1  0.81541906  0.52107927  0.88393380  1
  Si  Si176  1  0.61208381  0.89589243  0.92375301  1
  Si  Si177  1  0.91700722  0.18406358  0.84067867  1
  Si  Si178  1  0.83490908  0.80997386  0.81258041  1
  Si  Si179  1  0.52773639  0.52380681  0.88388388  1
  Si  Si180  1  0.90714086  0.89451621  0.91874065  1
  Si  Si181  1  0.21978049  0.17521455  0.83812041  1
  Si  Si182  1  0.52528569  0.23492655  0.96283680  1
  Si  Si183  1  0.22287147  0.21982716  0.95824240  1
  P  P184  1  0.94603633  0.17692535  0.11747315  1
  P  P185  1  0.62991487  0.88734785  0.03726887  1
  P  P186  1  0.96571826  0.64640131  0.08932023  1
  P  P187  1  0.55321983  0.76284245  0.25451070  1
  P  P188  1  0.25109892  0.47037877  0.17814113  1
  P  P189  1  0.28611114  0.93230842  0.16451351  1
  P  P190  1  0.58729067  0.22171669  0.24188996  1
  P  P191  1  0.16529731  0.34705951  0.40879078  1
  P  P192  1  0.86247759  0.05412491  0.33137509  1
  P  P193  1  0.88879665  0.50468329  0.32209682  1
  P  P194  1  0.19487678  0.80595150  0.39926903  1
  P  P195  1  0.55073735  0.96521920  0.47589680  1
  P  P196  1  0.45352876  0.09804552  0.61738531  1
  P  P197  1  0.77051683  0.38728823  0.53739273  1
  P  P198  1  0.43401835  0.62890435  0.58932472  1
  P  P199  1  0.84658090  0.51256505  0.75455976  1
  P  P200  1  0.14850525  0.80493064  0.67804290  1
  P  P201  1  0.11366540  0.34283529  0.66462445  1
  P  P202  1  0.81249791  0.05341996  0.74192114  1
  P  P203  1  0.23480269  0.92763677  0.90881290  1
  P  P204  1  0.53743444  0.22084110  0.83133806  1
  P  P205  1  0.51093292  0.77062906  0.82218925  1
  P  P206  1  0.20556863  0.46869304  0.89920182  1
  P  P207  1  0.84983297  0.30965499  0.97593708  1
  O  O208  1  0.36489209  0.63972426  0.04116967  1
  O  O209  1  0.67112521  0.93396360  0.11985841  1
  O  O210  1  0.20234438  0.93731495  0.07679809  1
  O  O211  1  0.07681150  0.54646097  0.99886904  1
  O  O212  1  0.68264052  0.47704408  0.09288269  1
  O  O213  1  0.33657009  0.21410115  0.01758846  1
  O  O214  1  0.88525007  0.06106690  0.02317943  1
  O  O215  1  0.23644207  0.34177839  0.10323904  1
  O  O216  1  0.73871986  0.27748043  0.05735233  1
  O  O217  1  0.94057815  0.62724580  0.12606621  1
  O  O218  1  0.96496573  0.16091237  0.07778836  1
  O  O219  1  0.64202716  0.97724625  0.04259479  1
  O  O220  1  0.89161113  0.77293997  0.08270055  1
  O  O221  1  0.01532909  0.05962966  0.13261638  1
  O  O222  1  0.73721886  0.80216049  0.01333221  1
  O  O223  1  0.82037042  0.25182788  0.12730789  1
  O  O224  1  0.51045874  0.95525015  0.01786452  1
  O  O225  1  0.09181201  0.59095803  0.08732076  1
  O  O226  1  0.98972546  0.23673738  0.12589244  1
  O  O227  1  0.62489956  0.83892780  0.06924035  1
  O  O228  1  0.93386234  0.60272691  0.06110768  1
  O  O229  1  0.47628238  0.50669567  0.09687633  1
  O  O230  1  0.08786752  0.04319937  0.01844862  1
  O  O231  1  0.44599033  0.30574448  0.09026385  1
  O  O232  1  0.53834530  0.65040322  0.04820644  1
  O  O233  1  0.85509605  0.94064212  0.12607218  1
  O  O234  1  0.02716537  0.90794922  0.07112017  1
  O  O235  1  0.32786693  0.12960709  0.08305477  1
  O  O236  1  0.05137560  0.84069999  0.00751075  1
  O  O237  1  0.26456024  0.42512901  0.03694223  1
  O  O238  1  0.59244337  0.68132966  0.11046702  1
  O  O239  1  0.65156543  0.11667623  0.08479659  1
  O  O240  1  0.32496902  0.86480772  0.02009036  1
  O  O241  1  0.88878155  0.52529687  0.99513004  1
  O  O242  1  0.26796991  0.72488268  0.10107570  1
  O  O243  1  0.61364191  0.28159650  0.12147900  1
  O  O244  1  0.23272123  0.06538836  0.04272658  1
  O  O245  1  0.28208763  0.56238104  0.07571832  1
  O  O246  1  0.16101251  0.24989462  0.12947676  1
  O  O247  1  0.84695960  0.93228289  0.03734202  1
  O  O248  1  0.74867584  0.57097775  0.05919423  1
  O  O249  1  0.96611510  0.23205723  0.19422132  1
  O  O250  1  0.29984744  0.48216356  0.27178369  1
  O  O251  1  0.85909130  0.47800656  0.23172662  1
  O  O252  1  0.54629757  0.18200602  0.14842539  1
  O  O253  1  0.31361170  0.05363901  0.25304458  1
  O  O254  1  0.99965790  0.75911819  0.16688330  1
  O  O255  1  0.52355641  0.64122434  0.17502278  1
  O  O256  1  0.83065419  0.93126901  0.25343026  1
  O  O257  1  0.29277783  0.91445901  0.20398022  1
  O  O258  1  0.58502360  0.21454860  0.28182460  1
  O  O259  1  0.55339671  0.77713877  0.21510261  1
  O  O260  1  0.27867424  0.48058389  0.14075143  1
  O  O261  1  0.20463914  0.05710646  0.15544797  1
  O  O262  1  0.51210112  0.34349539  0.22952124  1
  O  O263  1  0.62980791  0.63974458  0.26563738  1
  O  O264  1  0.32436323  0.34680605  0.18897311  1
  O  O265  1  0.43212024  0.82725751  0.26837712  1
  O  O266  1  0.12456716  0.52702804  0.18065729  1
  O  O267  1  0.40546416  0.87533168  0.14941821  1
  O  O268  1  0.71027638  0.15594966  0.22912114  1
  O  O269  1  0.59686171  0.81761392  0.27105409  1
  O  O270  1  0.27665455  0.52974125  0.20129219  1
  O  O271  1  0.24867322  0.87219436  0.14834331  1
  O  O272  1  0.54368152  0.16695548  0.22618700  1
  O  O273  1  0.08953814  0.09936212  0.24696383  1
  O  O274  1  0.78638643  0.81791328  0.17647574  1
  O  O275  1  0.74614902  0.58463657  0.17198773  1
  O  O276  1  0.05245840  0.87784167  0.24915948  1
  O  O277  1  0.16503083  0.21752633  0.20930315  1
  O  O278  1  0.46716107  0.50622440  0.28399344  1
  O  O279  1  0.67172703  0.46848266  0.21664909  1
  O  O280  1  0.37506399  0.15839651  0.14332531  1
  O  O281  1  0.95312464  0.71236321  0.23336032  1
  O  O282  1  0.62596514  0.42682244  0.15663722  1
  O  O283  1  0.89127542  0.96915493  0.18980837  1
  O  O284  1  0.20531566  0.27397808  0.26523431  1
  O  O285  1  0.25705066  0.68622773  0.24387681  1
  O  O286  1  0.95988112  0.40555474  0.16846105  1
  O  O287  1  0.57787981  0.99601345  0.18292978  1
  O  O288  1  0.88165001  0.28973461  0.25789323  1
  O  O289  1  0.23154137  0.85730738  0.26672535  1
  O  O290  1  0.90942685  0.58245434  0.19760593  1
  O  O291  1  0.62308184  0.82034065  0.15095622  1
  O  O292  1  0.90845718  0.12540099  0.22574334  1
  O  O293  1  0.79205042  0.80981872  0.28177234  1
  O  O294  1  0.46124725  0.53963362  0.20383980  1
  O  O295  1  0.06525974  0.85622411  0.14428305  1
  O  O296  1  0.37156597  0.15503328  0.21993396  1
  O  O297  1  0.60078608  0.77671933  0.34434514  1
  O  O298  1  0.89145380  0.07169006  0.42456134  1
  O  O299  1  0.47761353  0.06179889  0.38082940  1
  O  O300  1  0.17120460  0.77210382  0.30814609  1
  O  O301  1  0.92261787  0.63142924  0.39957871  1
  O  O302  1  0.62473837  0.33905062  0.32666489  1
  O  O303  1  0.12819715  0.22073483  0.32302548  1
  O  O304  1  0.44944052  0.50005894  0.40553055  1
  O  O305  1  0.89139502  0.49288030  0.36166680  1
  O  O306  1  0.17885557  0.82240560  0.43865003  1
  O  O307  1  0.15388907  0.35588590  0.36887923  1
  O  O308  1  0.86643263  0.06977189  0.29245828  1
  O  O309  1  0.81693307  0.62794827  0.31029922  1
  O  O310  1  0.12886853  0.92082738  0.38077643  1
  O  O311  1  0.26038962  0.22168302  0.41858027  1
  O  O312  1  0.94642904  0.93172948  0.34323620  1
  O  O313  1  0.05004107  0.39212696  0.42347567  1
  O  O314  1  0.74296424  0.10190617  0.34230380  1
  O  O315  1  0.00885511  0.44387808  0.30669103  1
  O  O316  1  0.32342798  0.73302523  0.39054299  1
  O  O317  1  0.20233727  0.41108235  0.41980715  1
  O  O318  1  0.88884699  0.12078525  0.35049730  1
  O  O319  1  0.83883885  0.45802796  0.30533463  1
  O  O320  1  0.15503106  0.74868274  0.38316957  1
  O  O321  1  0.70414307  0.68312433  0.40595720  1
  O  O322  1  0.39903189  0.39389677  0.33297220  1
  O  O323  1  0.35548997  0.16904196  0.32449995  1
  O  O324  1  0.67636008  0.44816325  0.39918765  1
  O  O325  1  0.77026463  0.80092277  0.35656590  1
  O  O326  1  0.08117387  0.06522156  0.43717763  1
  O  O327  1  0.29382475  0.05172606  0.36052404  1
  O  O328  1  0.99040513  0.76108230  0.29386864  1
  O  O329  1  0.57146351  0.28271935  0.38923266  1
  O  O330  1  0.23019819  0.00205829  0.30939988  1
  O  O331  1  0.50770917  0.55606990  0.34403143  1
  O  O332  1  0.80480372  0.85097944  0.41439165  1
  O  O333  1  0.88475717  0.25919451  0.40309383  1
  O  O334  1  0.56767456  0.97621969  0.31750764  1
  O  O335  1  0.19321376  0.58332214  0.33396225  1
  O  O336  1  0.49281843  0.87502048  0.40342749  1
  O  O337  1  0.83991044  0.43823298  0.43051830  1
  O  O338  1  0.53143320  0.15449342  0.34231471  1
  O  O339  1  0.22639391  0.40662134  0.31074166  1
  O  O340  1  0.53686782  0.69013675  0.38436723  1
  O  O341  1  0.39046354  0.38483167  0.42881406  1
  O  O342  1  0.08400401  0.11872401  0.36265712  1
  O  O343  1  0.66724211  0.45230292  0.29474272  1
  O  O344  1  0.97447626  0.74193533  0.36913201  1
  O  O345  1  0.11148658  0.52429702  0.48272586  1
  O  O346  1  0.75899262  0.33927819  0.45835816  1
  O  O347  1  0.25136150  0.93856318  0.48022181  1
  O  O348  1  0.88447543  0.75548887  0.48861660  1
  O  O349  1  0.50831897  0.96903008  0.51237277  1
  O  O350  1  0.50096782  0.60792200  0.45074957  1
  O  O351  1  0.59719201  0.02791514  0.48096648  1
  O  O352  1  0.65817016  0.84953535  0.46323290  1
  O  O353  1  0.45305936  0.02986842  0.45055921  1
  O  O354  1  0.99312794  0.96031660  0.48428036  1
  O  O355  1  0.56753646  0.35072040  0.45479521  1
  O  O356  1  0.87758819  0.57541948  0.46847267  1
  O  O357  1  0.11363470  0.17022846  0.48106322  1
  O  O358  1  0.20294879  0.62315801  0.46432979  1
  O  O359  1  0.78654879  0.15530891  0.48808842  1
  O  O360  1  0.82123626  0.97978545  0.46151749  1
  O  O361  1  0.26919872  0.04187861  0.43400101  1
  O  O362  1  0.03420695  0.63465321  0.54160365  1
  O  O363  1  0.72862659  0.34132101  0.61988195  1
  O  O364  1  0.19736088  0.33828366  0.57667861  1
  O  O365  1  0.32380234  0.72804220  0.49892499  1
  O  O366  1  0.71757498  0.79802242  0.59263578  1
  O  O367  1  0.06432225  0.06046948  0.51764094  1
  O  O368  1  0.51407530  0.21455108  0.52314724  1
  O  O369  1  0.16322415  0.93339878  0.60319139  1
  O  O370  1  0.66062330  0.99828541  0.55745391  1
  O  O371  1  0.45962874  0.64780650  0.62603036  1
  O  O372  1  0.43453252  0.11384025  0.57769984  1
  O  O373  1  0.75819893  0.29752685  0.54267160  1
  O  O374  1  0.50788885  0.50242645  0.58262981  1
  O  O375  1  0.38413316  0.21542586  0.63248513  1
  O  O376  1  0.66335091  0.47260680  0.51341704  1
  O  O377  1  0.57916546  0.02349169  0.62722230  1
  O  O378  1  0.88996699  0.31925656  0.51797819  1
  O  O379  1  0.30785992  0.68442622  0.58750634  1
  O  O380  1  0.41003042  0.03810827  0.62590520  1
  O  O381  1  0.77541173  0.43575817  0.56937013  1
  O  O382  1  0.46563820  0.67266739  0.56107259  1
  O  O383  1  0.92334965  0.76868851  0.59710481  1
  O  O384  1  0.31227775  0.23183354  0.51840703  1
  O  O385  1  0.95379847  0.96949629  0.59021043  1
  O  O386  1  0.86035509  0.62450111  0.54790202  1
  O  O387  1  0.54478591  0.33476685  0.62614608  1
  O  O388  1  0.37263138  0.36736130  0.57118663  1
  O  O389  1  0.07217233  0.14554571  0.58307735  1
  O  O390  1  0.34845963  0.43522851  0.50764498  1
  O  O391  1  0.13596923  0.84932560  0.53695536  1
  O  O392  1  0.80741953  0.59404840  0.61051819  1
  O  O393  1  0.74821742  0.15855717  0.58484384  1
  O  O394  1  0.07503868  0.40973236  0.51992344  1
  O  O395  1  0.51190551  0.74912488  0.49505134  1
  O  O396  1  0.13176460  0.55056924  0.60146831  1
  O  O397  1  0.78641069  0.99347861  0.62159049  1
  O  O398  1  0.16804907  0.20907848  0.54278505  1
  O  O399  1  0.11744682  0.71264035  0.57552426  1
  O  O400  1  0.23853550  0.02530388  0.62957414  1
  O  O401  1  0.55323180  0.34252810  0.53747371  1
  O  O402  1  0.65020519  0.70443195  0.55951250  1
  O  O403  1  0.43398966  0.04274664  0.69425648  1
  O  O404  1  0.10051493  0.79221713  0.77178271  1
  O  O405  1  0.54101866  0.79681818  0.73172704  1
  O  O406  1  0.85379886  0.09313267  0.64842477  1
  O  O407  1  0.08639563  0.22149120  0.75313265  1
  O  O408  1  0.39945662  0.51650900  0.66677718  1
  O  O409  1  0.87566265  0.63437954  0.67513538  1
  O  O410  1  0.56960333  0.34350232  0.75351598  1
  O  O411  1  0.10678125  0.36120840  0.70406298  1
  O  O412  1  0.81444837  0.06068223  0.78186415  1
  O  O413  1  0.84631857  0.49842194  0.71514500  1
  O  O414  1  0.12062871  0.79476276  0.64068842  1
  O  O415  1  0.19523462  0.21797212  0.65563429  1
  O  O416  1  0.88779922  0.93158598  0.72959633  1
  O  O417  1  0.76970088  0.63558789  0.76577958  1
  O  O418  1  0.07518973  0.92845343  0.68893648  1
  O  O419  1  0.96766316  0.44831629  0.76841834  1
  O  O420  1  0.27500848  0.74845841  0.68044071  1
  O  O421  1  0.99432943  0.39974652  0.64951722  1
  O  O422  1  0.68959084  0.11916989  0.72907195  1
  O  O423  1  0.80325889  0.45739259  0.77102916  1
  O  O424  1  0.12325423  0.74535768  0.70122812  1
  O  O425  1  0.15107439  0.40287652  0.64835907  1
  O  O426  1  0.85635851  0.10798139  0.72624591  1
  O  O427  1  0.31028454  0.17595924  0.74690329  1
  O  O428  1  0.61307980  0.45744138  0.67646785  1
  O  O429  1  0.65342325  0.69022733  0.67194721  1
  O  O430  1  0.34738270  0.39746848  0.74921236  1
  O  O431  1  0.23513565  0.05756559  0.70945158  1
  O  O432  1  0.93241333  0.76938008  0.78399338  1
  O  O433  1  0.72750897  0.80726644  0.71673053  1
  O  O434  1  0.02436887  0.11698722  0.64325039  1
  O  O435  1  0.44647785  0.56241225  0.73324407  1
  O  O436  1  0.77280481  0.84870541  0.65662074  1
  O  O437  1  0.50867299  0.30632777  0.68990563  1
  O  O438  1  0.19480442  0.00100497  0.76528641  1
  O  O439  1  0.14241745  0.58875991  0.74369792  1
  O  O440  1  0.43981670  0.86935653  0.66853039  1
  O  O441  1  0.82162787  0.27934476  0.68297333  1
  O  O442  1  0.51795284  0.98552994  0.75798598  1
  O  O443  1  0.16867569  0.41760542  0.76699492  1
  O  O444  1  0.49021910  0.69252026  0.69777093  1
  O  O445  1  0.77660410  0.45488125  0.65103031  1
  O  O446  1  0.49151928  0.14962576  0.72576216  1
  O  O447  1  0.60774721  0.46577080  0.78159606  1
  O  O448  1  0.93783983  0.73626466  0.70379221  1
  O  O449  1  0.33495206  0.41826558  0.64438031  1
  O  O450  1  0.02859321  0.12004293  0.71992348  1
  O  O451  1  0.79984132  0.49746345  0.84433172  1
  O  O452  1  0.50949547  0.20303416  0.92453705  1
  O  O453  1  0.92247765  0.21328495  0.88093471  1
  O  O454  1  0.22830890  0.50400504  0.80807490  1
  O  O455  1  0.47779160  0.64318927  0.89970114  1
  O  O456  1  0.77492439  0.93613993  0.82677109  1
  O  O457  1  0.27212012  0.05389908  0.82317558  1
  O  O458  1  0.95059573  0.77474765  0.90548694  1
  O  O459  1  0.50853065  0.78242345  0.86175859  1
  O  O460  1  0.22157207  0.45228157  0.93858064  1
  O  O461  1  0.24610494  0.91873854  0.86889555  1
  O  O462  1  0.53330046  0.20519440  0.79242839  1
  O  O463  1  0.58345377  0.64722145  0.81044485  1
  O  O464  1  0.27171986  0.35384994  0.88067174  1
  O  O465  1  0.13961827  0.05304314  0.91856457  1
  O  O466  1  0.45335209  0.34324294  0.84317849  1
  O  O467  1  0.34995737  0.88288605  0.92350594  1
  O  O468  1  0.65694023  0.17329476  0.84219465  1
  O  O469  1  0.39098486  0.83070069  0.80681441  1
  O  O470  1  0.07704468  0.54155823  0.89043645  1
  O  O471  1  0.19785772  0.86357986  0.91984167  1
  O  O472  1  0.51139230  0.15396146  0.85051162  1
  O  O473  1  0.56009615  0.81798774  0.80536985  1
  O  O474  1  0.24530735  0.52609289  0.88313826  1
  O  O475  1  0.69612404  0.59174116  0.90588440  1
  O  O476  1  0.00058097  0.88082251  0.83285895  1
  O  O477  1  0.04456305  0.10652945  0.82456395  1
  O  O478  1  0.72386549  0.82657796  0.89911521  1
  O  O479  1  0.62975606  0.47427753  0.85650411  1
  O  O480  1  0.31919064  0.21035166  0.93737695  1
  O  O481  1  0.10639865  0.22317441  0.86059022  1
  O  O482  1  0.40998050  0.51387280  0.79394333  1
  O  O483  1  0.82850723  0.99227067  0.88928030  1
  O  O484  1  0.17001199  0.27266652  0.80946206  1
  O  O485  1  0.89251417  0.71880032  0.84399718  1
  O  O486  1  0.59577752  0.42339910  0.91428094  1
  O  O487  1  0.51547598  0.01583417  0.90323143  1
  O  O488  1  0.83199358  0.29876615  0.81761842  1
  O  O489  1  0.20684109  0.69186893  0.83407920  1
  O  O490  1  0.90753456  0.39980168  0.90351437  1
  O  O491  1  0.56012185  0.83685490  0.93052813  1
  O  O492  1  0.86935219  0.11985839  0.84242586  1
  O  O493  1  0.17263854  0.86908029  0.81077085  1
  O  O494  1  0.86335211  0.58466237  0.88420717  1
  O  O495  1  0.01032243  0.88939234  0.92856148  1
  O  O496  1  0.31632766  0.15603974  0.86275210  1
  O  O497  1  0.73256636  0.82284963  0.79480377  1
  O  O498  1  0.42572343  0.53302792  0.86914983  1
  O  O499  1  0.28867062  0.75108067  0.98245155  1
  O  O500  1  0.64191536  0.93517367  0.95832538  1
  O  O501  1  0.14898227  0.33608229  0.98036886  1
  O  O502  1  0.51593987  0.51939546  0.98844301  1
  O  O503  1  0.89125322  0.30643452  0.01252142  1
  O  O504  1  0.89965331  0.66604924  0.95065364  1
  O  O505  1  0.80341310  0.24691201  0.98090896  1
  O  O506  1  0.74252593  0.42513011  0.96309046  1
  O  O507  1  0.94804003  0.24487376  0.95080281  1
  O  O508  1  0.40752541  0.31479883  0.98420457  1
  O  O509  1  0.83335905  0.92387056  0.95486941  1
  O  O510  1  0.52274087  0.69931395  0.96851631  1
  O  O511  1  0.28721391  0.10439906  0.98100927  1
  O  O512  1  0.19698493  0.65166677  0.96470674  1
  O  O513  1  0.61403410  0.11932929  0.98810432  1
  O  O514  1  0.57965093  0.29487750  0.96167495  1
  O  O515  1  0.13178013  0.23258248  0.93390079  1
