# generated using pymatgen
data_Na11Zr8Si7P3O43
_symmetry_space_group_name_H-M   'P 1'
_cell_length_a   15.80284400
_cell_length_b   16.04975156
_cell_length_c   44.69019146
_cell_angle_alpha   90.00000000
_cell_angle_beta   90.00000000
_cell_angle_gamma   48.30066901
_symmetry_Int_Tables_number   1
_chemical_formula_structural   Na11Zr8Si7P3O43
_chemical_formula_sum   'Na88 Zr64 Si56 P24 O344'
_cell_volume   8463.11994597
_cell_formula_units_Z   8
loop_
 _symmetry_equiv_pos_site_id
 _symmetry_equiv_pos_as_xyz
  1  'x, y, z'
loop_
 _atom_site_type_symbol
 _atom_site_label
 _atom_site_symmetry_multiplicity
 _atom_site_fract_x
 _atom_site_fract_y
 _atom_site_fract_z
 _atom_site_occupancy
  Na  Na0  1  0.37971488  0.46726202  0.02920665  1
  Na  Na1  1  0.59467175  0.84811760  0.08262978  1
  Na  Na2  1  0.00652630  0.31584128  0.06190685  1
  Na  Na3  1  0.11592378  0.69538218  0.03054391  1
  Na  Na4  1  0.63588692  0.42463557  0.97974054  1
  Na  Na5  1  0.07249479  0.74092646  0.10455566  1
  Na  Na6  1  0.62925001  0.15758934  0.02542425  1
  Na  Na7  1  0.98328626  0.51257324  0.11751593  1
  Na  Na8  1  0.11667736  0.87857973  0.98784607  1
  Na  Na9  1  0.44765708  0.13328645  0.08166596  1
  Na  Na10  1  0.34967051  0.82641179  0.09163930  1
  Na  Na11  1  0.81983655  0.20335887  0.14689083  1
  Na  Na12  1  0.18764241  0.43777598  0.21251099  1
  Na  Na13  1  0.84899426  0.65582813  0.22288282  1
  Na  Na14  1  0.42836845  0.45336335  0.14703546  1
  Na  Na15  1  0.42970397  0.01950801  0.18676603  1
  Na  Na16  1  0.74492958  0.30669732  0.25369043  1
  Na  Na17  1  0.26653242  0.79141685  0.16731831  1
  Na  Na18  1  0.57671154  0.09591632  0.24606295  1
  Na  Na19  1  0.74398269  0.47407274  0.12780743  1
  Na  Na20  1  0.05250331  0.74286196  0.20353081  1
  Na  Na21  1  0.96931642  0.36689335  0.23295834  1
  Na  Na22  1  0.66514719  0.07156813  0.16962862  1
  Na  Na23  1  0.47301924  0.74691700  0.27715224  1
  Na  Na24  1  0.89461360  0.94859296  0.35311429  1
  Na  Na25  1  0.50291387  0.19919445  0.35304456  1
  Na  Na26  1  0.13351186  0.96553302  0.28733257  1
  Na  Na27  1  0.05577873  0.61110185  0.33251598  1
  Na  Na28  1  0.33944592  0.88986124  0.38240201  1
  Na  Na29  1  0.89242904  0.38279638  0.31328595  1
  Na  Na30  1  0.24976958  0.66198824  0.39539091  1
  Na  Na31  1  0.35289935  0.03551194  0.26714468  1
  Na  Na32  1  0.65705401  0.33160508  0.33023572  1
  Na  Na33  1  0.57866293  0.92811094  0.37230001  1
  Na  Na34  1  0.26969557  0.65987379  0.29645048  1
  Na  Na35  1  0.31751723  0.08515766  0.43812740  1
  Na  Na36  1  0.20761688  0.70658993  0.46940728  1
  Na  Na37  1  0.94365378  0.93463588  0.47105940  1
  Na  Na38  1  0.72963046  0.55338141  0.41753169  1
  Na  Na39  1  0.69406793  0.24422341  0.47445266  1
  Na  Na40  1  0.68996655  0.97497131  0.52043801  1
  Na  Na41  1  0.97327838  0.57617382  0.40825499  1
  Na  Na42  1  0.20793598  0.52172459  0.51234374  1
  Na  Na43  1  0.87538875  0.26877816  0.41843735  1
  Na  Na44  1  0.44511978  0.93306639  0.52929540  1
  Na  Na45  1  0.22983429  0.55238315  0.58262850  1
  Na  Na46  1  0.81851830  0.08423024  0.56195628  1
  Na  Na47  1  0.70887583  0.70526525  0.53053167  1
  Na  Na48  1  0.18915546  0.97566335  0.47980751  1
  Na  Na49  1  0.75255227  0.65916303  0.60448380  1
  Na  Na50  1  0.19546955  0.24277053  0.52541501  1
  Na  Na51  1  0.84129911  0.88761775  0.61761634  1
  Na  Na52  1  0.70826684  0.52191130  0.48790544  1
  Na  Na53  1  0.37741108  0.26665971  0.58165375  1
  Na  Na54  1  0.47553770  0.57349136  0.59159744  1
  Na  Na55  1  0.00571607  0.19636788  0.64683371  1
  Na  Na56  1  0.63683526  0.96244062  0.71247965  1
  Na  Na57  1  0.97539047  0.74449444  0.72275805  1
  Na  Na58  1  0.39664660  0.94677429  0.64709353  1
  Na  Na59  1  0.39476342  0.38027956  0.68716177  1
  Na  Na60  1  0.07971404  0.09298793  0.75382398  1
  Na  Na61  1  0.55867762  0.60831825  0.66721674  1
  Na  Na62  1  0.24808265  0.30372940  0.74622117  1
  Na  Na63  1  0.08119361  0.92574393  0.62772288  1
  Na  Na64  1  0.77262408  0.65693611  0.70355289  1
  Na  Na65  1  0.85602822  0.03258698  0.73289855  1
  Na  Na66  1  0.16010905  0.32819497  0.66962991  1
  Na  Na67  1  0.35170529  0.65296899  0.77717973  1
  Na  Na68  1  0.93036489  0.45129380  0.85295711  1
  Na  Na69  1  0.32244743  0.20069051  0.85295294  1
  Na  Na70  1  0.69073410  0.43467926  0.78734252  1
  Na  Na71  1  0.76869223  0.78875431  0.83265230  1
  Na  Na72  1  0.48533778  0.51024551  0.88236699  1
  Na  Na73  1  0.93232261  0.01658827  0.81339027  1
  Na  Na74  1  0.57503394  0.73809384  0.89538184  1
  Na  Na75  1  0.47224134  0.36429186  0.76713180  1
  Na  Na76  1  0.16800643  0.06828527  0.83022418  1
  Na  Na77  1  0.24629713  0.47171702  0.87230948  1
  Na  Na78  1  0.55514697  0.73988770  0.79635468  1
  Na  Na79  1  0.50752425  0.31497300  0.93812147  1
  Na  Na80  1  0.61738106  0.69355955  0.96941270  1
  Na  Na81  1  0.88136161  0.46548464  0.97102506  1
  Na  Na82  1  0.09490450  0.84694883  0.91746563  1
  Na  Na83  1  0.13077602  0.15604843  0.97433640  1
  Na  Na84  1  0.13525730  0.42536955  0.02030476  1
  Na  Na85  1  0.85099332  0.82512772  0.90842692  1
  Na  Na86  1  0.61674865  0.87854805  0.01228595  1
  Na  Na87  1  0.94975434  0.13107731  0.91839227  1
  Zr  Zr88  1  0.56336750  0.46892176  0.09632111  1
  Zr  Zr89  1  0.33523900  0.09129597  0.03247402  1
  Zr  Zr90  1  0.92998805  0.13491564  0.02605270  1
  Zr  Zr91  1  0.21323558  0.49581980  0.07369421  1
  Zr  Zr92  1  0.37688966  0.69880071  0.02209249  1
  Zr  Zr93  1  0.72537300  0.99001131  0.08331450  1
  Zr  Zr94  1  0.07167876  0.95227722  0.08969781  1
  Zr  Zr95  1  0.84085090  0.59299718  0.03168681  1
  Zr  Zr96  1  0.19229279  0.03100072  0.22291120  1
  Zr  Zr97  1  0.88594951  0.74558172  0.16150012  1
  Zr  Zr98  1  0.52290948  0.78215332  0.14222148  1
  Zr  Zr99  1  0.82863722  0.07967173  0.21050309  1
  Zr  Zr100  1  0.01961563  0.29069746  0.14400792  1
  Zr  Zr101  1  0.32349922  0.58293085  0.20993112  1
  Zr  Zr102  1  0.69705747  0.52899591  0.22489144  1
  Zr  Zr103  1  0.38514576  0.24252273  0.15582278  1
  Zr  Zr104  1  0.79972794  0.62013094  0.35774262  1
  Zr  Zr105  1  0.49351301  0.32303225  0.28951202  1
  Zr  Zr106  1  0.12985660  0.37174030  0.27707584  1
  Zr  Zr107  1  0.43642589  0.65719244  0.33855154  1
  Zr  Zr108  1  0.62516428  0.87359233  0.27505858  1
  Zr  Zr109  1  0.93733842  0.16002456  0.34430540  1
  Zr  Zr110  1  0.30291901  0.11195346  0.35592883  1
  Zr  Zr111  1  0.99854462  0.81997335  0.29007788  1
  Zr  Zr112  1  0.39436143  0.26634716  0.47396407  1
  Zr  Zr113  1  0.10932706  0.90690703  0.42640090  1
  Zr  Zr114  1  0.75940677  0.93318913  0.40376638  1
  Zr  Zr115  1  0.98901833  0.30988692  0.46755895  1
  Zr  Zr116  1  0.25136669  0.45005977  0.41038945  1
  Zr  Zr117  1  0.48337901  0.80775355  0.46845936  1
  Zr  Zr118  1  0.94775141  0.70198901  0.47790109  1
  Zr  Zr119  1  0.59719645  0.41239246  0.41670656  1
  Zr  Zr120  1  0.26181520  0.93105659  0.59628178  1
  Zr  Zr121  1  0.48959575  0.30920013  0.53256675  1
  Zr  Zr122  1  0.89503786  0.26538587  0.52606794  1
  Zr  Zr123  1  0.61173912  0.90457176  0.57372496  1
  Zr  Zr124  1  0.44817579  0.70144757  0.52218720  1
  Zr  Zr125  1  0.09961901  0.41024648  0.58329778  1
  Zr  Zr126  1  0.75339816  0.44795123  0.58973693  1
  Zr  Zr127  1  0.98437291  0.80702016  0.53168820  1
  Zr  Zr128  1  0.63297179  0.36857245  0.72283879  1
  Zr  Zr129  1  0.93923190  0.65429999  0.66148544  1
  Zr  Zr130  1  0.30235443  0.61750952  0.64219977  1
  Zr  Zr131  1  0.99658809  0.31988029  0.71041145  1
  Zr  Zr132  1  0.80576110  0.10912248  0.64395680  1
  Zr  Zr133  1  0.50160701  0.81665025  0.70989877  1
  Zr  Zr134  1  0.12809070  0.87067980  0.72482801  1
  Zr  Zr135  1  0.43994161  0.15746261  0.65581400  1
  Zr  Zr136  1  0.02502712  0.77970455  0.85771911  1
  Zr  Zr137  1  0.33150986  0.07678269  0.78947848  1
  Zr  Zr138  1  0.69515596  0.02789479  0.77697913  1
  Zr  Zr139  1  0.38853257  0.74264150  0.83850133  1
  Zr  Zr140  1  0.19974727  0.52622372  0.77502961  1
  Zr  Zr141  1  0.88768959  0.23986962  0.84419175  1
  Zr  Zr142  1  0.52219946  0.28803050  0.85585677  1
  Zr  Zr143  1  0.82619000  0.58004492  0.78996604  1
  Zr  Zr144  1  0.43060951  0.13378900  0.97387618  1
  Zr  Zr145  1  0.71558922  0.49343680  0.92634932  1
  Zr  Zr146  1  0.06556164  0.46678670  0.90367983  1
  Zr  Zr147  1  0.83591906  0.09042420  0.96757275  1
  Zr  Zr148  1  0.57352768  0.95006227  0.91039212  1
  Zr  Zr149  1  0.34123667  0.59256715  0.96838900  1
  Zr  Zr150  1  0.87702778  0.69837669  0.97789579  1
  Zr  Zr151  1  0.22752663  0.98773527  0.91658345  1
  Si  Si152  1  0.31404899  0.64535771  0.08166879  1
  Si  Si153  1  0.50388056  0.28342826  0.09457603  1
  Si  Si154  1  0.18026201  0.99543385  0.02385104  1
  Si  Si155  1  0.58788608  0.65906556  0.06780353  1
  Si  Si156  1  0.20351608  0.29284261  0.09498031  1
  Si  Si157  1  0.91523796  0.97330201  0.04493166  1
  Si  Si158  1  0.60293777  0.95240030  0.13727165  1
  Si  Si159  1  0.90583763  0.24773482  0.20021139  1
  Si  Si160  1  0.11501610  0.86494770  0.23282428  1
  Si  Si161  1  0.80907825  0.57499796  0.16764208  1
  Si  Si162  1  0.90694029  0.94285951  0.14123591  1
  Si  Si163  1  0.20027619  0.23677502  0.20357112  1
  Si  Si164  1  0.81383121  0.87978805  0.23094511  1
  Si  Si165  1  0.51875701  0.57898731  0.16497910  1
  Si  Si166  1  0.20683645  0.53789661  0.26707208  1
  Si  Si167  1  0.51347366  0.82757170  0.33234247  1
  Si  Si168  1  0.71941312  0.45025530  0.36298110  1
  Si  Si169  1  0.41659180  0.15494237  0.29978335  1
  Si  Si170  1  0.50828892  0.52294425  0.26900437  1
  Si  Si171  1  0.80372193  0.82322999  0.33496516  1
  Si  Si172  1  0.41559313  0.45992545  0.35878947  1
  Si  Si173  1  0.12193761  0.16585540  0.29646171  1
  Si  Si174  1  0.81904651  0.11865600  0.40556243  1
  Si  Si175  1  0.14396585  0.40569086  0.47616803  1
  Si  Si176  1  0.00880556  0.75706395  0.41854413  1
  Si  Si177  1  0.11980568  0.10923044  0.40499250  1
  Si  Si178  1  0.40809398  0.42860368  0.45521797  1
  Si  Si179  1  0.73586113  0.74248549  0.43228792  1
  Si  Si180  1  0.51094143  0.75504584  0.58172711  1
  Si  Si181  1  0.32106515  0.11684035  0.59463420  1
  Si  Si182  1  0.64467197  0.40501716  0.52390728  1
  Si  Si183  1  0.23749090  0.74067451  0.56781860  1
  Si  Si184  1  0.62157260  0.10736336  0.59500458  1
  Si  Si185  1  0.90965273  0.42712582  0.54494537  1
  Si  Si186  1  0.22224990  0.44755177  0.63723546  1
  Si  Si187  1  0.91960494  0.15177730  0.70009801  1
  Si  Si188  1  0.70998649  0.53471483  0.73275174  1
  Si  Si189  1  0.01615043  0.82481589  0.66756414  1
  Si  Si190  1  0.91824592  0.45717163  0.64125090  1
  Si  Si191  1  0.62519103  0.16273620  0.70349010  1
  Si  Si192  1  0.01132122  0.51982590  0.73093990  1
  Si  Si193  1  0.30650343  0.82051038  0.66489518  1
  Si  Si194  1  0.61791983  0.86190112  0.76704657  1
  Si  Si195  1  0.31128426  0.57243800  0.83235614  1
  Si  Si196  1  0.10530175  0.94964418  0.86279871  1
  Si  Si197  1  0.40875558  0.24482515  0.79965736  1
  Si  Si198  1  0.31670587  0.87690763  0.76898375  1
  Si  Si199  1  0.02097589  0.57674521  0.83492866  1
  Si  Si200  1  0.40967459  0.93984119  0.85876867  1
  Si  Si201  1  0.70322240  0.23365852  0.79639748  1
  Si  Si202  1  0.00595742  0.28149088  0.90544322  1
  Si  Si203  1  0.68087811  0.99473403  0.97619086  1
  Si  Si204  1  0.81614238  0.64316899  0.91851498  1
  Si  Si205  1  0.70547711  0.29078791  0.90492355  1
  Si  Si206  1  0.41661754  0.97157457  0.95512367  1
  Si  Si207  1  0.08872642  0.65786302  0.93225532  1
  P  P208  1  0.88177002  0.25075681  0.09185756  1
  P  P209  1  0.91046093  0.70347668  0.08096315  1
  P  P210  1  0.49255141  0.82879227  0.22198704  1
  P  P211  1  0.18405784  0.54125041  0.15640541  1
  P  P212  1  0.22006627  0.99241219  0.14277309  1
  P  P213  1  0.52516069  0.28373268  0.20929121  1
  P  P214  1  0.10255738  0.41022798  0.35722186  1
  P  P215  1  0.79720990  0.11888783  0.29080886  1
  P  P216  1  0.82943460  0.57357828  0.27801389  1
  P  P217  1  0.13831201  0.86157478  0.34356287  1
  P  P218  1  0.41168551  0.69935839  0.41904095  1
  P  P219  1  0.44114858  0.15170181  0.40803747  1
  P  P220  1  0.94341761  0.14941967  0.59186772  1
  P  P221  1  0.91437808  0.69689639  0.58096395  1
  P  P222  1  0.33246009  0.57102131  0.72198358  1
  P  P223  1  0.64129331  0.85858108  0.65642391  1
  P  P224  1  0.60513623  0.40743222  0.64268281  1
  P  P225  1  0.29999562  0.11598198  0.70926650  1
  P  P226  1  0.72212031  0.98985590  0.85714714  1
  P  P227  1  0.02795406  0.28093388  0.79068201  1
  P  P228  1  0.99557827  0.82580633  0.77792412  1
  P  P229  1  0.68652516  0.53841662  0.84350494  1
  P  P230  1  0.41285239  0.70098605  0.91900842  1
  P  P231  1  0.38426841  0.24825874  0.90797451  1
  O  O232  1  0.41994563  0.58111290  0.05597520  1
  O  O233  1  0.61402041  0.98088042  0.10270714  1
  O  O234  1  0.11222781  0.00629459  0.05387187  1
  O  O235  1  0.95746418  0.60776654  0.01219111  1
  O  O236  1  0.62077308  0.54456189  0.08159991  1
  O  O237  1  0.48030010  0.99364624  0.04995700  1
  O  O238  1  0.93900855  0.99492145  0.01067246  1
  O  O239  1  0.15634511  0.41130690  0.08055840  1
  O  O240  1  0.80699897  0.21078583  0.99626838  1
  O  O241  1  0.91217681  0.70212466  0.11577108  1
  O  O242  1  0.89566657  0.24924308  0.05656355  1
  O  O243  1  0.17422626  0.55418397  0.12245296  1
  O  O244  1  0.81198338  0.82392513  0.06961115  1
  O  O245  1  0.95921137  0.13177762  0.10520139  1
  O  O246  1  0.75573736  0.68972461  0.99489997  1
  O  O247  1  0.75644483  0.31602425  0.09977127  1
  O  O248  1  0.02535502  0.66066528  0.07002111  1
  O  O249  1  0.91871180  0.31350340  0.10373835  1
  O  O250  1  0.88495949  0.62824859  0.07205490  1
  O  O251  1  0.39561835  0.58374553  0.11131862  1
  O  O252  1  0.06808842  0.08234146  0.00107365  1
  O  O253  1  0.38593464  0.36026072  0.07527597  1
  O  O254  1  0.47976454  0.71586816  0.04493905  1
  O  O255  1  0.80933811  0.98280114  0.11543329  1
  O  O256  1  0.90260299  0.07257934  0.06257999  1
  O  O257  1  0.30747917  0.24526580  0.11862740  1
  O  O258  1  0.25345649  0.20276170  0.06703037  1
  O  O259  1  0.02799679  0.86448406  0.06130959  1
  O  O260  1  0.21392661  0.50068257  0.03170009  1
  O  O261  1  0.53984161  0.74804239  0.09629720  1
  O  O262  1  0.58994475  0.15983382  0.07678938  1
  O  O263  1  0.26150498  0.86860478  0.01135843  1
  O  O264  1  0.94103275  0.43846793  0.02228956  1
  O  O265  1  0.23817468  0.78182070  0.08124749  1
  O  O266  1  0.55466846  0.34599803  0.09401198  1
  O  O267  1  0.23850793  0.04905678  0.02751941  1
  O  O268  1  0.23729063  0.61418591  0.07505570  1
  O  O269  1  0.09556303  0.31647927  0.11048721  1
  O  O270  1  0.79824164  0.99659293  0.04574337  1
  O  O271  1  0.01140817  0.91982005  0.12342023  1
  O  O272  1  0.69385554  0.64106260  0.05271089  1
  O  O273  1  0.90881429  0.28057436  0.16572862  1
  O  O274  1  0.21419326  0.57182508  0.23300252  1
  O  O275  1  0.80348566  0.54537858  0.20229377  1
  O  O276  1  0.48104419  0.26534213  0.12895536  1
  O  O277  1  0.25662741  0.11083578  0.21433183  1
  O  O278  1  0.95137726  0.82560076  0.15483063  1
  O  O279  1  0.46684732  0.69785395  0.14966667  1
  O  O280  1  0.76368552  0.99913496  0.21645723  1
  O  O281  1  0.21688109  0.96943843  0.17645995  1
  O  O282  1  0.51913780  0.27341306  0.24373056  1
  O  O283  1  0.48727128  0.83959083  0.18760795  1
  O  O284  1  0.80349789  0.12874264  0.25634019  1
  O  O285  1  0.14507335  0.11798528  0.13702146  1
  O  O286  1  0.44554532  0.40699004  0.19965932  1
  O  O287  1  0.57222549  0.70591920  0.23243814  1
  O  O288  1  0.26393707  0.41514702  0.16500250  1
  O  O289  1  0.37276909  0.88797835  0.23494692  1
  O  O290  1  0.06739344  0.59925507  0.17133001  1
  O  O291  1  0.34416594  0.92906452  0.13308034  1
  O  O292  1  0.64852027  0.22274435  0.20027019  1
  O  O293  1  0.53224391  0.88825270  0.23445042  1
  O  O294  1  0.23467098  0.58938380  0.16966870  1
  O  O295  1  0.18095485  0.94152239  0.12327044  1
  O  O296  1  0.48830141  0.22490041  0.19392621  1
  O  O297  1  0.03382904  0.16760080  0.21439428  1
  O  O298  1  0.72440472  0.88741434  0.15407604  1
  O  O299  1  0.68506704  0.64737452  0.15125161  1
  O  O300  1  0.98928689  0.94142069  0.21718504  1
  O  O301  1  0.09506878  0.28773658  0.18034306  1
  O  O302  1  0.40527723  0.56763397  0.24584879  1
  O  O303  1  0.61548716  0.54055569  0.18941621  1
  O  O304  1  0.91617491  0.83592873  0.25425198  1
  O  O305  1  0.87495016  0.77817203  0.20624397  1
  O  O306  1  0.58818690  0.47603880  0.13980363  1
  O  O307  1  0.84029694  0.04727564  0.16434892  1
  O  O308  1  0.14722167  0.32562915  0.23170704  1
  O  O309  1  0.19904339  0.75513522  0.21088254  1
  O  O310  1  0.89558204  0.46436961  0.14630269  1
  O  O311  1  0.51101026  0.07041306  0.15537219  1
  O  O312  1  0.82736822  0.35708509  0.22247511  1
  O  O313  1  0.15903401  0.93233210  0.23544963  1
  O  O314  1  0.85388917  0.64276995  0.16864939  1
  O  O315  1  0.56136419  0.88343657  0.13543900  1
  O  O316  1  0.85372466  0.18719684  0.20079804  1
  O  O317  1  0.70903956  0.89801041  0.24620305  1
  O  O318  1  0.41371110  0.59452805  0.17925029  1
  O  O319  1  0.61301938  0.50443899  0.25360445  1
  O  O320  1  0.29940790  0.22672971  0.18678026  1
  O  O321  1  0.51885414  0.85711961  0.29766193  1
  O  O322  1  0.84242822  0.13623893  0.37117890  1
  O  O323  1  0.41364754  0.12209554  0.33425618  1
  O  O324  1  0.10770855  0.83121856  0.26693507  1
  O  O325  1  0.85605633  0.70401668  0.35011008  1
  O  O326  1  0.55839589  0.40353542  0.28341994  1
  O  O327  1  0.06577369  0.29174690  0.28568225  1
  O  O328  1  0.37100812  0.57726496  0.34523964  1
  O  O329  1  0.83478237  0.56247127  0.31239026  1
  O  O330  1  0.14768867  0.84888880  0.37752546  1
  O  O331  1  0.10540857  0.43337639  0.32351875  1
  O  O332  1  0.40951563  0.70142140  0.38423813  1
  O  O333  1  0.74988551  0.69651926  0.26760684  1
  O  O334  1  0.05878942  0.98757916  0.33490644  1
  O  O335  1  0.17763964  0.28461544  0.36293411  1
  O  O336  1  0.87652609  0.99573471  0.30052234  1
  O  O337  1  0.97853522  0.47343872  0.36694274  1
  O  O338  1  0.67369608  0.18033774  0.29979381  1
  O  O339  1  0.94918605  0.51441711  0.26503856  1
  O  O340  1  0.25512617  0.80326205  0.32869388  1
  O  O341  1  0.14184702  0.46101464  0.37670953  1
  O  O342  1  0.83421318  0.17765334  0.30612930  1
  O  O343  1  0.78963352  0.51422885  0.26553849  1
  O  O344  1  0.08763678  0.81352614  0.33025242  1
  O  O345  1  0.63750510  0.75511029  0.34874814  1
  O  O346  1  0.33266029  0.46082593  0.28270963  1
  O  O347  1  0.28858410  0.23553756  0.28559214  1
  O  O348  1  0.59785729  0.51530468  0.34624279  1
  O  O349  1  0.70683090  0.86202675  0.31052941  1
  O  O350  1  0.01565396  0.15690699  0.38138864  1
  O  O351  1  0.22734578  0.11480844  0.31962499  1
  O  O352  1  0.51350656  0.41934170  0.38453956  1
  O  O353  1  0.48178572  0.35582752  0.33559615  1
  O  O354  1  0.17486536  0.07698430  0.26831694  1
  O  O355  1  0.44798790  0.62403185  0.29384132  1
  O  O356  1  0.73466426  0.92554007  0.36032003  1
  O  O357  1  0.81117596  0.33209517  0.34490365  1
  O  O358  1  0.49482589  0.04552209  0.27751427  1
  O  O359  1  0.12303946  0.64767945  0.28904385  1
  O  O360  1  0.42705230  0.93827647  0.35364283  1
  O  O361  1  0.76131282  0.51893166  0.36471558  1
  O  O362  1  0.46910050  0.21507646  0.29926217  1
  O  O363  1  0.16225724  0.47103581  0.26437725  1
  O  O364  1  0.46868428  0.75978428  0.33139740  1
  O  O365  1  0.31111728  0.48306681  0.37664569  1
  O  O366  1  0.02264606  0.17618880  0.31325137  1
  O  O367  1  0.22766898  0.08555198  0.38944439  1
  O  O368  1  0.90864769  0.80801930  0.32076186  1
  O  O369  1  0.21124476  0.39562467  0.44610261  1
  O  O370  1  0.36711088  0.79260055  0.48801042  1
  O  O371  1  0.90320254  0.82118993  0.44429000  1
  O  O372  1  0.70874922  0.42180665  0.39760995  1
  O  O373  1  0.38531332  0.40593622  0.48946105  1
  O  O374  1  0.16675435  0.99087361  0.41939897  1
  O  O375  1  0.70208941  0.85757789  0.41863896  1
  O  O376  1  0.84381338  0.40792449  0.45013164  1
  O  O377  1  0.42761354  0.15283772  0.44332836  1
  O  O378  1  0.51773222  0.18975041  0.50365883  1
  O  O379  1  0.36407023  0.27072653  0.39474462  1
  O  O380  1  0.56889570  0.71086949  0.50522958  1
  O  O381  1  0.50977143  0.57866872  0.43023966  1
  O  O382  1  0.29677522  0.74231255  0.43001619  1
  O  O383  1  0.56656006  0.08605543  0.40009649  1
  O  O384  1  0.43779843  0.77398644  0.42809267  1
  O  O385  1  0.40369315  0.08941965  0.39617088  1
  O  O386  1  0.25635159  0.31873444  0.49888408  1
  O  O387  1  0.93658542  0.04250699  0.42502632  1
  O  O388  1  0.92720892  0.81831200  0.38887050  1
  O  O389  1  0.42092616  0.32940369  0.43745284  1
  O  O390  1  0.84453862  0.68530143  0.45497507  1
  O  O391  1  0.10909754  0.90183556  0.46839538  1
  O  O392  1  0.78327720  0.65425851  0.40365148  1
  O  O393  1  0.07035418  0.19919827  0.43290164  1
  O  O394  1  0.29515141  0.53745238  0.43889365  1
  O  O395  1  0.38316914  0.96220102  0.47793617  1
  O  O396  1  0.08468689  0.62054355  0.41903471  1
  O  O397  1  0.73256168  0.24250345  0.42315388  1
  O  O398  1  0.06253183  0.53237031  0.48875703  1
  O  O399  1  0.08555576  0.78830683  0.42503721  1
  O  O400  1  0.76846531  0.05589367  0.40609371  1
  O  O401  1  0.08604010  0.35171154  0.47253641  1
  O  O402  1  0.63031543  0.75984975  0.44746328  1
  O  O403  1  0.52489142  0.40577806  0.45440046  1
  O  O404  1  0.40472607  0.81933525  0.55609877  1
  O  O405  1  0.21114758  0.41916802  0.60265588  1
  O  O406  1  0.71259944  0.39432773  0.55391405  1
  O  O407  1  0.86759737  0.79239231  0.51224093  1
  O  O408  1  0.20439190  0.85532321  0.58157500  1
  O  O409  1  0.34454324  0.40681167  0.55003251  1
  O  O410  1  0.88604766  0.40528175  0.51069598  1
  O  O411  1  0.66890265  0.98887882  0.58057000  1
  O  O412  1  0.01795348  0.18946160  0.49626265  1
  O  O413  1  0.91268756  0.69806553  0.61576683  1
  O  O414  1  0.92946708  0.15105563  0.55658285  1
  O  O415  1  0.65140015  0.84532711  0.62247487  1
  O  O416  1  0.01278922  0.57641679  0.56962037  1
  O  O417  1  0.86615393  0.26834746  0.60523579  1
  O  O418  1  0.06913220  0.71063811  0.49483712  1
  O  O419  1  0.06885939  0.08389585  0.59973581  1
  O  O420  1  0.79939432  0.74001201  0.56998531  1
  O  O421  1  0.90634622  0.08676886  0.60370868  1
  O  O422  1  0.94003292  0.77201287  0.57207461  1
  O  O423  1  0.42953758  0.81680642  0.61139203  1
  O  O424  1  0.75689428  0.31785219  0.50116035  1
  O  O425  1  0.43915015  0.04027219  0.57540474  1
  O  O426  1  0.34587002  0.68376656  0.54503698  1
  O  O427  1  0.01552374  0.41759891  0.61540213  1
  O  O428  1  0.92221024  0.32793339  0.56261515  1
  O  O429  1  0.51761540  0.15473568  0.61863460  1
  O  O430  1  0.57167326  0.19757818  0.56709400  1
  O  O431  1  0.79693995  0.53598043  0.56131775  1
  O  O432  1  0.61073303  0.90013986  0.53172564  1
  O  O433  1  0.28533177  0.65181307  0.59629632  1
  O  O434  1  0.23496255  0.24037049  0.57682906  1
  O  O435  1  0.56356643  0.53176345  0.51135565  1
  O  O436  1  0.88409269  0.96157578  0.52234075  1
  O  O437  1  0.58674312  0.61862780  0.58130263  1
  O  O438  1  0.27040120  0.05417821  0.59403283  1
  O  O439  1  0.58622729  0.35156712  0.52760402  1
  O  O440  1  0.58753017  0.78631967  0.57498448  1
  O  O441  1  0.72946634  0.08374946  0.61051949  1
  O  O442  1  0.02676174  0.40369221  0.54572452  1
  O  O443  1  0.81361370  0.48039239  0.62347785  1
  O  O444  1  0.13158005  0.75867710  0.55266501  1
  O  O445  1  0.91691723  0.11874685  0.66562239  1
  O  O446  1  0.61093316  0.82756110  0.73301118  1
  O  O447  1  0.02151710  0.85448211  0.70223569  1
  O  O448  1  0.34366808  0.13504345  0.62903831  1
  O  O449  1  0.56871259  0.28869593  0.71428892  1
  O  O450  1  0.87380298  0.57429903  0.65493933  1
  O  O451  1  0.35868101  0.70156377  0.64960912  1
  O  O452  1  0.06140797  0.40040613  0.71652426  1
  O  O453  1  0.60806131  0.43054156  0.67638042  1
  O  O454  1  0.30564975  0.12647080  0.74371078  1
  O  O455  1  0.33754575  0.56027687  0.68760522  1
  O  O456  1  0.02189473  0.27047663  0.75624823  1
  O  O457  1  0.68051319  0.28183136  0.63694549  1
  O  O458  1  0.37995324  0.99263139  0.69968859  1
  O  O459  1  0.25289994  0.69386674  0.73245817  1
  O  O460  1  0.56126287  0.98480932  0.66491043  1
  O  O461  1  0.45231310  0.51161038  0.73492259  1
  O  O462  1  0.75780289  0.80080037  0.67141655  1
  O  O463  1  0.48113838  0.47058277  0.63295145  1
  O  O464  1  0.17674398  0.17678983  0.70015526  1
  O  O465  1  0.29267757  0.51157676  0.73443167  1
  O  O466  1  0.59060422  0.81055535  0.66972031  1
  O  O467  1  0.64413209  0.45851226  0.62319725  1
  O  O468  1  0.33684189  0.17488070  0.69393847  1
  O  O469  1  0.79144846  0.23225754  0.71422593  1
  O  O470  1  0.10071893  0.51253420  0.65399613  1
  O  O471  1  0.14018524  0.75241602  0.65120238  1
  O  O472  1  0.83581903  0.45797708  0.71713263  1
  O  O473  1  0.73038592  0.11188773  0.68028267  1
  O  O474  1  0.41969967  0.83239145  0.74584959  1
  O  O475  1  0.20977313  0.85888018  0.68935001  1
  O  O476  1  0.90846236  0.56439476  0.75413369  1
  O  O477  1  0.95079174  0.62117858  0.70618614  1
  O  O478  1  0.23693273  0.92346322  0.63973316  1
  O  O479  1  0.98511963  0.35249456  0.66428242  1
  O  O480  1  0.67846208  0.07371263  0.73160338  1
  O  O481  1  0.62599838  0.64439846  0.71076529  1
  O  O482  1  0.92972576  0.93539516  0.64619921  1
  O  O483  1  0.31416916  0.32964384  0.65538947  1
  O  O484  1  0.99783428  0.04261976  0.72242026  1
  O  O485  1  0.66590030  0.46742773  0.73547148  1
  O  O486  1  0.97114946  0.75720903  0.66857267  1
  O  O487  1  0.26361531  0.51667298  0.63535029  1
  O  O488  1  0.97164144  0.21236357  0.70065086  1
  O  O489  1  0.11617714  0.50127604  0.74627726  1
  O  O490  1  0.41138795  0.80518539  0.67920428  1
  O  O491  1  0.21199109  0.89537144  0.75357124  1
  O  O492  1  0.52596312  0.17277456  0.68677813  1
  O  O493  1  0.30562518  0.54320754  0.79766768  1
  O  O494  1  0.98251346  0.26393001  0.87108180  1
  O  O495  1  0.41179215  0.27746190  0.83415490  1
  O  O496  1  0.71700774  0.56889631  0.76682348  1
  O  O497  1  0.96868378  0.69584695  0.85013489  1
  O  O498  1  0.26657886  0.99629908  0.78343561  1
  O  O499  1  0.75942152  0.10771720  0.78569398  1
  O  O500  1  0.45390186  0.82263701  0.84521909  1
  O  O501  1  0.99086360  0.83636957  0.81230397  1
  O  O502  1  0.67699122  0.55136119  0.87745891  1
  O  O503  1  0.71898999  0.96672596  0.82346824  1
  O  O504  1  0.41493282  0.69903189  0.88421024  1
  O  O505  1  0.07496078  0.70304260  0.76738682  1
  O  O506  1  0.76617771  0.41237331  0.83487359  1
  O  O507  1  0.64736760  0.11539683  0.86289913  1
  O  O508  1  0.94833022  0.40425138  0.80026118  1
  O  O509  1  0.84625344  0.92652769  0.86679217  1
  O  O510  1  0.15135445  0.21977713  0.79973464  1
  O  O511  1  0.87565429  0.88502003  0.76507402  1
  O  O512  1  0.56982639  0.59649612  0.82859064  1
  O  O513  1  0.68287833  0.93917736  0.87669856  1
  O  O514  1  0.99097469  0.22228803  0.80611442  1
  O  O515  1  0.03516322  0.88530509  0.76542067  1
  O  O516  1  0.73716259  0.58646279  0.83016981  1
  O  O517  1  0.18746790  0.64478370  0.84886873  1
  O  O518  1  0.49212396  0.93873627  0.78267081  1
  O  O519  1  0.53661910  0.16456838  0.78539404  1
  O  O520  1  0.22691639  0.88414151  0.84603867  1
  O  O521  1  0.11781895  0.53811765  0.81048450  1
  O  O522  1  0.80982873  0.24284882  0.88137935  1
  O  O523  1  0.59743874  0.28522951  0.81948224  1
  O  O524  1  0.31163661  0.98048208  0.88449122  1
  O  O525  1  0.34352969  0.04401177  0.83558093  1
  O  O526  1  0.65058890  0.32230788  0.76821401  1
  O  O527  1  0.37702597  0.77570474  0.79378094  1
  O  O528  1  0.09032331  0.47423428  0.86023312  1
  O  O529  1  0.01380281  0.06778535  0.84470213  1
  O  O530  1  0.33027898  0.35438715  0.77747198  1
  O  O531  1  0.70174654  0.75228833  0.78906815  1
  O  O532  1  0.39779954  0.46161745  0.85360587  1
  O  O533  1  0.06300032  0.88133752  0.86457069  1
  O  O534  1  0.35648065  0.18444474  0.79910476  1
  O  O535  1  0.66200564  0.92921085  0.76431301  1
  O  O536  1  0.35651592  0.63984964  0.83140988  1
  O  O537  1  0.51413024  0.91659481  0.87665374  1
  O  O538  1  0.80229193  0.22351633  0.81326041  1
  O  O539  1  0.59776523  0.31441419  0.88929163  1
  O  O540  1  0.91611724  0.59183886  0.82072509  1
  O  O541  1  0.61355476  0.00469792  0.94612980  1
  O  O542  1  0.45788640  0.60729003  0.98794960  1
  O  O543  1  0.92151402  0.57907502  0.94429689  1
  O  O544  1  0.11623467  0.97810230  0.89738960  1
  O  O545  1  0.43925736  0.99441780  0.98937882  1
  O  O546  1  0.65852360  0.40916006  0.91933568  1
  O  O547  1  0.12238540  0.54275187  0.91864064  1
  O  O548  1  0.98107727  0.99240432  0.95010925  1
  O  O549  1  0.39747016  0.24728260  0.94326919  1
  O  O550  1  0.30709860  0.21063186  0.00354761  1
  O  O551  1  0.46133268  0.12918804  0.89472350  1
  O  O552  1  0.25580517  0.68983766  0.00511347  1
  O  O553  1  0.31478287  0.82164252  0.93026224  1
  O  O554  1  0.52785738  0.65788503  0.92996224  1
  O  O555  1  0.25885503  0.31418053  0.89995434  1
  O  O556  1  0.38673733  0.62633317  0.92802224  1
  O  O557  1  0.42193567  0.31038282  0.89614340  1
  O  O558  1  0.56838893  0.08174969  0.99887584  1
  O  O559  1  0.88845082  0.35814223  0.92493975  1
  O  O560  1  0.89779045  0.58160086  0.88885764  1
  O  O561  1  0.40405188  0.07064130  0.93733752  1
  O  O562  1  0.98018057  0.71518666  0.95500586  1
  O  O563  1  0.71581765  0.49847526  0.96834777  1
  O  O564  1  0.04105278  0.74622150  0.90364326  1
  O  O565  1  0.75463268  0.20109309  0.93290409  1
  O  O566  1  0.52973562  0.86258302  0.93889871  1
  O  O567  1  0.44099678  0.43811266  0.97785901  1
  O  O568  1  0.74028763  0.77967993  0.91901381  1
  O  O569  1  0.09208860  0.15757123  0.92303890  1
  O  O570  1  0.76221278  0.86804602  0.98877842  1
  O  O571  1  0.73911174  0.61219193  0.92497895  1
  O  O572  1  0.05715487  0.34368834  0.90599718  1
  O  O573  1  0.73872899  0.04873651  0.97252562  1
  O  O574  1  0.19426336  0.64063525  0.94736552  1
  O  O575  1  0.29976801  0.99455558  0.95424912  1
