# generated using pymatgen
data_Na3Zr2Si2PO12
_symmetry_space_group_name_H-M   'P 1'
_cell_length_a   9.13268800
_cell_length_b   15.82410455
_cell_length_c   46.86427203
_cell_angle_alpha   90.00000000
_cell_angle_beta   90.00000000
_cell_angle_gamma   55.44796707
_symmetry_Int_Tables_number   1
_chemical_formula_structural   Na3Zr2Si2PO12
_chemical_formula_sum   'Na60 Zr40 Si40 P20 O240'
_cell_volume   5578.04515818
_cell_formula_units_Z   20
loop_
 _symmetry_equiv_pos_site_id
 _symmetry_equiv_pos_as_xyz
  1  'x, y, z'
loop_
 _atom_site_type_symbol
 _atom_site_label
 _atom_site_symmetry_multiplicity
 _atom_site_fract_x
 _atom_site_fract_y
 _atom_site_fract_z
 _atom_site_occupancy
  Na  Na0  1  0.75796838  0.70346416  0.07352717  1
  Na  Na1  1  0.16994700  0.66712490  0.03832611  1
  Na  Na2  1  0.44784061  0.37425957  0.06060847  1
  Na  Na3  1  0.58120760  0.05396334  0.03565600  1
  Na  Na4  1  0.92070325  0.14612359  0.08748789  1
  Na  Na5  1  0.09714391  0.30753475  0.01645687  1
  Na  Na6  1  0.82858852  0.20314861  0.16511185  1
  Na  Na7  1  0.20046435  0.23765317  0.13720646  1
  Na  Na8  1  0.48484820  0.84280699  0.16051507  1
  Na  Na9  1  0.59755391  0.55538581  0.13985804  1
  Na  Na10  1  0.92833714  0.64579914  0.18815771  1
  Na  Na11  1  0.12459518  0.79824524  0.11388288  1
  Na  Na12  1  0.83813563  0.69154934  0.26668348  1
  Na  Na13  1  0.22687700  0.72682789  0.23766558  1
  Na  Na14  1  0.49273089  0.34434072  0.26086068  1
  Na  Na15  1  0.59807200  0.06739665  0.23852867  1
  Na  Na16  1  0.94028250  0.13372796  0.28836992  1
  Na  Na17  1  0.14592920  0.28437948  0.21426546  1
  Na  Na18  1  0.80968221  0.15954742  0.37590526  1
  Na  Na19  1  0.20698138  0.21349280  0.34288643  1
  Na  Na20  1  0.52487806  0.78853826  0.35866887  1
  Na  Na21  1  0.65145610  0.48793864  0.34308722  1
  Na  Na22  1  0.96442842  0.62242575  0.38565034  1
  Na  Na23  1  0.16359015  0.77281699  0.31456996  1
  Na  Na24  1  0.85247279  0.67273485  0.46456870  1
  Na  Na25  1  0.26020058  0.70838828  0.43946703  1
  Na  Na26  1  0.48386668  0.41126397  0.45741474  1
  Na  Na27  1  0.67633463  0.95442120  0.44743860  1
  Na  Na28  1  0.87413950  0.15324291  0.46691913  1
  Na  Na29  1  0.32287739  0.21523512  0.44004497  1
  Na  Na30  1  0.56692835  0.97142912  0.57358901  1
  Na  Na31  1  0.15431332  0.00864215  0.53836970  1
  Na  Na32  1  0.87687667  0.30146319  0.56063118  1
  Na  Na33  1  0.74334777  0.62079696  0.53568600  1
  Na  Na34  1  0.40378684  0.52900110  0.58756907  1
  Na  Na35  1  0.22791050  0.36732036  0.51652019  1
  Na  Na36  1  0.49761739  0.47255322  0.66530045  1
  Na  Na37  1  0.12566860  0.43743435  0.63741528  1
  Na  Na38  1  0.83964082  0.83277330  0.66051813  1
  Na  Na39  1  0.72696302  0.12025530  0.63997252  1
  Na  Na40  1  0.39628596  0.02949651  0.68822496  1
  Na  Na41  1  0.19998138  0.87693269  0.61387958  1
  Na  Na42  1  0.48599615  0.98324793  0.76653106  1
  Na  Na43  1  0.09805205  0.94812921  0.73760805  1
  Na  Na44  1  0.83222815  0.33055928  0.76076692  1
  Na  Na45  1  0.72672143  0.60834408  0.73850871  1
  Na  Na46  1  0.38490718  0.54129062  0.78835391  1
  Na  Na47  1  0.17882970  0.39095263  0.71431772  1
  Na  Na48  1  0.51508510  0.51496551  0.87574644  1
  Na  Na49  1  0.11882510  0.46141032  0.84288197  1
  Na  Na50  1  0.80040733  0.88627110  0.85863568  1
  Na  Na51  1  0.67433174  0.18660164  0.84303326  1
  Na  Na52  1  0.36058730  0.05262021  0.88562467  1
  Na  Na53  1  0.16174346  0.90211289  0.81450247  1
  Na  Na54  1  0.47145805  0.00176488  0.96440276  1
  Na  Na55  1  0.06460666  0.96636046  0.93943853  1
  Na  Na56  1  0.84098185  0.26357990  0.95729119  1
  Na  Na57  1  0.64905830  0.72028513  0.94734295  1
  Na  Na58  1  0.45113727  0.52140533  0.96689205  1
  Na  Na59  1  0.00251822  0.45950983  0.93998747  1
  Zr  Zr60  1  0.86908108  0.37742875  0.09033381  1
  Zr  Zr61  1  0.10253798  0.10456024  0.00962425  1
  Zr  Zr62  1  0.66620122  0.60682681  0.00794765  1
  Zr  Zr63  1  0.35699464  0.88493560  0.09101781  1
  Zr  Zr64  1  0.88877309  0.86115977  0.19006753  1
  Zr  Zr65  1  0.17247096  0.57921950  0.10920383  1
  Zr  Zr66  1  0.66973656  0.07330948  0.10656856  1
  Zr  Zr67  1  0.38084746  0.36431296  0.19051582  1
  Zr  Zr68  1  0.90636756  0.35093748  0.28971073  1
  Zr  Zr69  1  0.17694476  0.07038593  0.20911135  1
  Zr  Zr70  1  0.68881236  0.56753462  0.20882964  1
  Zr  Zr71  1  0.39327525  0.85671073  0.29140574  1
  Zr  Zr72  1  0.91523411  0.84202833  0.39097617  1
  Zr  Zr73  1  0.19775833  0.56190812  0.30901123  1
  Zr  Zr74  1  0.69464077  0.05796426  0.30909038  1
  Zr  Zr75  1  0.40049988  0.34878007  0.39198391  1
  Zr  Zr76  1  0.94926190  0.31293921  0.49005004  1
  Zr  Zr77  1  0.20720971  0.04345173  0.40850984  1
  Zr  Zr78  1  0.73285660  0.53961729  0.40686338  1
  Zr  Zr79  1  0.41813121  0.82214433  0.49215279  1
  Zr  Zr80  1  0.45585536  0.29750819  0.59043970  1
  Zr  Zr81  1  0.22209863  0.57025510  0.50969902  1
  Zr  Zr82  1  0.65913143  0.06793827  0.50802056  1
  Zr  Zr83  1  0.96758600  0.79006282  0.59107593  1
  Zr  Zr84  1  0.43592083  0.81413689  0.69004494  1
  Zr  Zr85  1  0.15249267  0.09584946  0.60923862  1
  Zr  Zr86  1  0.65495329  0.60179636  0.60659737  1
  Zr  Zr87  1  0.94418096  0.31093726  0.69047025  1
  Zr  Zr88  1  0.41907946  0.32393519  0.78963157  1
  Zr  Zr89  1  0.14782983  0.60494289  0.70913519  1
  Zr  Zr90  1  0.63605204  0.10766949  0.70886753  1
  Zr  Zr91  1  0.93159245  0.81836008  0.79138031  1
  Zr  Zr92  1  0.40978915  0.83288207  0.89097987  1
  Zr  Zr93  1  0.12729007  0.11312460  0.80901384  1
  Zr  Zr94  1  0.63057571  0.61706333  0.80907137  1
  Zr  Zr95  1  0.92502636  0.32607656  0.89188622  1
  Zr  Zr96  1  0.37590876  0.36179515  0.98995454  1
  Zr  Zr97  1  0.11797567  0.63147180  0.90844249  1
  Zr  Zr98  1  0.59189596  0.13547713  0.90685067  1
  Zr  Zr99  1  0.90658680  0.85273615  0.99209860  1
  Si  Si100  1  0.05155948  0.48560975  0.04953505  1
  Si  Si101  1  0.99109397  0.95608109  0.05143296  1
  Si  Si102  1  0.72414073  0.36696109  0.02219124  1
  Si  Si103  1  0.25719679  0.12963395  0.07527140  1
  Si  Si104  1  0.05433023  0.97801521  0.14834750  1
  Si  Si105  1  0.99477994  0.46557121  0.15077609  1
  Si  Si106  1  0.77235338  0.82486227  0.12320717  1
  Si  Si107  1  0.28380526  0.61342183  0.17669594  1
  Si  Si108  1  0.07441731  0.46852828  0.24860796  1
  Si  Si109  1  0.00944467  0.95459572  0.25118383  1
  Si  Si110  1  0.78530464  0.31921798  0.22282478  1
  Si  Si111  1  0.29544450  0.10490004  0.27638167  1
  Si  Si112  1  0.08291456  0.95689779  0.34863187  1
  Si  Si113  1  0.02983357  0.44468805  0.34971684  1
  Si  Si114  1  0.79872477  0.80743264  0.32417875  1
  Si  Si115  1  0.31208311  0.59635226  0.37781738  1
  Si  Si116  1  0.10904613  0.44939262  0.45199897  1
  Si  Si117  1  0.02272709  0.93876294  0.45299230  1
  Si  Si118  1  0.81776407  0.30212333  0.41981395  1
  Si  Si119  1  0.32095140  0.06325467  0.47583487  1
  Si  Si120  1  0.27371543  0.18898687  0.54966402  1
  Si  Si121  1  0.33329863  0.71867820  0.55149243  1
  Si  Si122  1  0.60084138  0.30791439  0.52226183  1
  Si  Si123  1  0.06735256  0.54528067  0.57538049  1
  Si  Si124  1  0.27040490  0.69733729  0.64837366  1
  Si  Si125  1  0.33009456  0.20969554  0.65085402  1
  Si  Si126  1  0.55229379  0.85033895  0.62326652  1
  Si  Si127  1  0.04108461  0.06183355  0.67672146  1
  Si  Si128  1  0.25049581  0.20645370  0.74858771  1
  Si  Si129  1  0.31549497  0.72054069  0.75118487  1
  Si  Si130  1  0.53948544  0.35599043  0.72271703  1
  Si  Si131  1  0.02990458  0.57008971  0.77637932  1
  Si  Si132  1  0.24222209  0.71803713  0.84857653  1
  Si  Si133  1  0.29605114  0.23014941  0.84964401  1
  Si  Si134  1  0.52600656  0.86765521  0.82419146  1
  Si  Si135  1  0.01317946  0.07877914  0.87787255  1
  Si  Si136  1  0.21574515  0.22532955  0.95192032  1
  Si  Si137  1  0.30250827  0.73592446  0.95297362  1
  Si  Si138  1  0.50744003  0.37266066  0.91967468  1
  Si  Si139  1  0.00433999  0.61158718  0.97576205  1
  P  P140  1  0.51717007  0.86863393  0.01811025  1
  P  P141  1  0.47697033  0.63066809  0.07632043  1
  P  P142  1  0.56937224  0.32455673  0.11991594  1
  P  P143  1  0.48774049  0.11323801  0.17763081  1
  P  P144  1  0.57652058  0.82024663  0.22070365  1
  P  P145  1  0.50982714  0.60459996  0.27979342  1
  P  P146  1  0.59468559  0.30975980  0.32147650  1
  P  P147  1  0.51740415  0.09436215  0.38059974  1
  P  P148  1  0.59481641  0.79925147  0.41956695  1
  P  P149  1  0.57610080  0.56652886  0.47869162  1
  P  P150  1  0.80743440  0.80620212  0.51820914  1
  P  P151  1  0.84799137  0.04433781  0.57642274  1
  P  P152  1  0.75574650  0.35038237  0.61988211  1
  P  P153  1  0.83721319  0.56208750  0.67755147  1
  P  P154  1  0.74817323  0.85509304  0.72069202  1
  P  P155  1  0.81565553  0.07028582  0.77975432  1
  P  P156  1  0.73059013  0.36527455  0.82136774  1
  P  P157  1  0.80779550  0.58041263  0.88053787  1
  P  P158  1  0.73028423  0.87594727  0.91952286  1
  P  P159  1  0.74888883  0.10836350  0.97870355  1
  O  O160  1  0.85749927  0.58050228  0.03766217  1
  O  O161  1  0.14681229  0.88789427  0.07480292  1
  O  O162  1  0.74748725  0.35522880  0.05689192  1
  O  O163  1  0.22894303  0.14038067  0.04018602  1
  O  O164  1  0.63262518  0.53076853  0.09038730  1
  O  O165  1  0.34449410  0.95672258  0.00292573  1
  O  O166  1  0.49207199  0.63228234  0.04334259  1
  O  O167  1  0.49468280  0.86327608  0.05064024  1
  O  O168  1  0.65599024  0.89441121  0.01255815  1
  O  O169  1  0.29950964  0.64233428  0.08293856  1
  O  O170  1  0.57699678  0.76547190  0.00448541  1
  O  O171  1  0.48210281  0.71788687  0.09008183  1
  O  O172  1  0.01281132  0.41180139  0.06771185  1
  O  O173  1  0.02660366  0.03710325  0.03622649  1
  O  O174  1  0.73581615  0.45842723  0.00769152  1
  O  O175  1  0.25112175  0.03401939  0.08682699  1
  O  O176  1  0.08795726  0.22789850  0.09200273  1
  O  O177  1  0.89170148  0.25875488  0.00878386  1
  O  O178  1  0.79887110  0.03405203  0.06777578  1
  O  O179  1  0.20841944  0.40497013  0.02660039  1
  O  O180  1  0.98614001  0.87368560  0.03039745  1
  O  O181  1  0.12938700  0.53959436  0.06866350  1
  O  O182  1  0.44422104  0.11455819  0.08335102  1
  O  O183  1  0.52811982  0.39249110  0.01475512  1
  O  O184  1  0.88840212  0.06201221  0.12760891  1
  O  O185  1  0.16397842  0.37604627  0.16965403  1
  O  O186  1  0.79198775  0.80918557  0.15796181  1
  O  O187  1  0.26803440  0.62700415  0.14177076  1
  O  O188  1  0.64293855  0.01012468  0.19015651  1
  O  O189  1  0.41790820  0.42996291  0.10792886  1
  O  O190  1  0.51529174  0.12372563  0.14554933  1
  O  O191  1  0.53369878  0.31433459  0.15156567  1
  O  O192  1  0.74852908  0.31458120  0.11839011  1
  O  O193  1  0.30815598  0.12398696  0.18036106  1
  O  O194  1  0.58448677  0.23870131  0.10113565  1
  O  O195  1  0.47542534  0.19997418  0.19556852  1
  O  O196  1  0.00517034  0.90271467  0.16304574  1
  O  O197  1  0.05233177  0.53195772  0.13285173  1
  O  O198  1  0.76536388  0.92722963  0.11440986  1
  O  O199  1  0.28367192  0.51249121  0.18491214  1
  O  O200  1  0.11294739  0.71074241  0.19362807  1
  O  O201  1  0.94343515  0.72660969  0.10609255  1
  O  O202  1  0.82162084  0.54737623  0.17051636  1
  O  O203  1  0.24055201  0.90036208  0.13059807  1
  O  O204  1  0.93170478  0.41019423  0.12940380  1
  O  O205  1  0.08864269  0.04017437  0.17232004  1
  O  O206  1  0.46726553  0.60086886  0.18634696  1
  O  O207  1  0.59234016  0.83489189  0.11274057  1
  O  O208  1  0.90469803  0.55733307  0.22964533  1
  O  O209  1  0.17824118  0.86550990  0.27034435  1
  O  O210  1  0.79892743  0.30689132  0.25772147  1
  O  O211  1  0.27848108  0.11754637  0.24148568  1
  O  O212  1  0.66257820  0.50199933  0.29265985  1
  O  O213  1  0.42238112  0.92151390  0.20717321  1
  O  O214  1  0.54147092  0.61164290  0.24756764  1
  O  O215  1  0.54280205  0.81235677  0.25255392  1
  O  O216  1  0.75510484  0.81061439  0.21869013  1
  O  O217  1  0.32949114  0.61564070  0.28182912  1
  O  O218  1  0.59312077  0.73148105  0.20329477  1
  O  O219  1  0.49337751  0.69400225  0.29630833  1
  O  O220  1  0.02299026  0.39484718  0.26369675  1
  O  O221  1  0.06231300  0.02774341  0.23613105  1
  O  O222  1  0.78512119  0.41938037  0.21355504  1
  O  O223  1  0.29997398  0.00372761  0.28610525  1
  O  O224  1  0.12243097  0.20105763  0.29331940  1
  O  O225  1  0.95842280  0.22134059  0.20643300  1
  O  O226  1  0.83080946  0.03120125  0.27056310  1
  O  O227  1  0.25177507  0.38947253  0.22911595  1
  O  O228  1  0.96242653  0.89785726  0.22714145  1
  O  O229  1  0.12167273  0.52701480  0.27168772  1
  O  O230  1  0.47572107  0.09623846  0.28565120  1
  O  O231  1  0.60621289  0.32785134  0.21226301  1
  O  O232  1  0.91293281  0.04308019  0.32945162  1
  O  O233  1  0.19546923  0.35986708  0.36991809  1
  O  O234  1  0.82256241  0.78979098  0.35901550  1
  O  O235  1  0.29353117  0.60669797  0.34295093  1
  O  O236  1  0.67707362  0.99231865  0.39275959  1
  O  O237  1  0.43945895  0.41167075  0.30811669  1
  O  O238  1  0.54221138  0.10579499  0.34837200  1
  O  O239  1  0.55838797  0.30125256  0.35312391  1
  O  O240  1  0.76672161  0.30763408  0.31962329  1
  O  O241  1  0.34207499  0.10151431  0.38408384  1
  O  O242  1  0.61749861  0.22056918  0.30348520  1
  O  O243  1  0.50480302  0.18315939  0.39757141  1
  O  O244  1  0.03489956  0.88339051  0.36503577  1
  O  O245  1  0.08214767  0.51634506  0.33414882  1
  O  O246  1  0.78667813  0.91161383  0.31556162  1
  O  O247  1  0.31151895  0.49645536  0.38766749  1
  O  O248  1  0.14123719  0.69342583  0.39518015  1
  O  O249  1  0.97347275  0.71260273  0.30692576  1
  O  O250  1  0.85106211  0.52630323  0.36838336  1
  O  O251  1  0.26207060  0.87837093  0.32977837  1
  O  O252  1  0.98005280  0.38442120  0.32767881  1
  O  O253  1  0.11588801  0.02089171  0.37174951  1
  O  O254  1  0.49586139  0.58406727  0.38685250  1
  O  O255  1  0.62191132  0.81319785  0.31386873  1
  O  O256  1  0.94208691  0.52645014  0.43098203  1
  O  O257  1  0.20162226  0.85117483  0.47098927  1
  O  O258  1  0.80515048  0.31539397  0.45473971  1
  O  O259  1  0.36281639  0.03178622  0.44214890  1
  O  O260  1  0.72306930  0.47121489  0.49493515  1
  O  O261  1  0.43868299  0.88649997  0.40220100  1
  O  O262  1  0.60621871  0.56334910  0.44622955  1
  O  O263  1  0.54952551  0.79718503  0.45134877  1
  O  O264  1  0.76185955  0.80293386  0.41996880  1
  O  O265  1  0.39065519  0.58256929  0.47980495  1
  O  O266  1  0.64650131  0.69934541  0.40403172  1
  O  O267  1  0.57219236  0.65750696  0.49155259  1
  O  O268  1  0.08364333  0.36942757  0.47071406  1
  O  O269  1  0.06795839  0.00999976  0.43507850  1
  O  O270  1  0.82401504  0.39236879  0.40486715  1
  O  O271  1  0.33916054  0.97211866  0.49597419  1
  O  O272  1  0.11746487  0.16343290  0.47870687  1
  O  O273  1  0.99437701  0.19150752  0.41022728  1
  O  O274  1  0.85214525  0.01700758  0.47428259  1
  O  O275  1  0.29309874  0.37428210  0.43323898  1
  O  O276  1  0.97564572  0.87553394  0.43126631  1
  O  O277  1  0.13305675  0.52163604  0.47448697  1
  O  O278  1  0.46343116  0.09543675  0.48045880  1
  O  O279  1  0.64070885  0.30584210  0.41068878  1
  O  O280  1  0.46787883  0.09431992  0.53774475  1
  O  O281  1  0.17776553  0.78711513  0.57485957  1
  O  O282  1  0.57720232  0.31966122  0.55695373  1
  O  O283  1  0.09624043  0.53428199  0.54030541  1
  O  O284  1  0.69270123  0.14423224  0.59052994  1
  O  O285  1  0.97979663  0.71795099  0.50298525  1
  O  O286  1  0.83284213  0.04301954  0.54343007  1
  O  O287  1  0.83034172  0.81151828  0.55072776  1
  O  O288  1  0.66817917  0.78071720  0.51274131  1
  O  O289  1  0.02571471  0.03237101  0.58304770  1
  O  O290  1  0.74804586  0.90930899  0.50458015  1
  O  O291  1  0.84253408  0.95709456  0.59008060  1
  O  O292  1  0.31234456  0.26247270  0.56803196  1
  O  O293  1  0.29770856  0.63754697  0.53641166  1
  O  O294  1  0.58938686  0.21641391  0.50772587  1
  O  O295  1  0.07284507  0.64100274  0.58700395  1
  O  O296  1  0.23671064  0.44702319  0.59209615  1
  O  O297  1  0.43317420  0.41612561  0.50885977  1
  O  O298  1  0.52557960  0.64085781  0.56783759  1
  O  O299  1  0.11691630  0.26987092  0.52674362  1
  O  O300  1  0.33850981  0.80069129  0.53034008  1
  O  O301  1  0.19582488  0.13467717  0.56862252  1
  O  O302  1  0.88023321  0.56030442  0.58331731  1
  O  O303  1  0.79681637  0.28253423  0.51486757  1
  O  O304  1  0.43640645  0.61306307  0.62768844  1
  O  O305  1  0.16105217  0.29937900  0.66973272  1
  O  O306  1  0.53254624  0.86623413  0.65801086  1
  O  O307  1  0.05674588  0.04823550  0.64180372  1
  O  O308  1  0.68174034  0.66523595  0.69003072  1
  O  O309  1  0.90733482  0.24515074  0.60783212  1
  O  O310  1  0.81023003  0.55140412  0.64545952  1
  O  O311  1  0.79199477  0.36064321  0.65149837  1
  O  O312  1  0.57689236  0.35997991  0.61846979  1
  O  O313  1  0.01666193  0.55144987  0.68034647  1
  O  O314  1  0.73976906  0.43646650  0.60110108  1
  O  O315  1  0.84921067  0.47543078  0.69547380  1
  O  O316  1  0.31923970  0.77297234  0.66294863  1
  O  O317  1  0.27197785  0.14373160  0.63283990  1
  O  O318  1  0.55960005  0.74785266  0.61448241  1
  O  O319  1  0.04111907  0.16281101  0.68489229  1
  O  O320  1  0.21194134  0.96457823  0.69365354  1
  O  O321  1  0.38131013  0.94850504  0.60614286  1
  O  O322  1  0.50300539  0.12765736  0.67059941  1
  O  O323  1  0.08408305  0.77470112  0.63063020  1
  O  O324  1  0.39365314  0.26508026  0.62959240  1
  O  O325  1  0.23668951  0.63535549  0.67248921  1
  O  O326  1  0.85763813  0.07439025  0.68640108  1
  O  O327  1  0.73215522  0.84050728  0.61280832  1
  O  O328  1  0.42049157  0.11757054  0.72968509  1
  O  O329  1  0.14663043  0.80969019  0.77030774  1
  O  O330  1  0.52633877  0.36797223  0.75761757  1
  O  O331  1  0.04651343  0.55752674  0.74147422  1
  O  O332  1  0.66299693  0.17294212  0.79261329  1
  O  O333  1  0.90214776  0.75379228  0.70715418  1
  O  O334  1  0.78413228  0.06342811  0.74751563  1
  O  O335  1  0.78195215  0.86282981  0.75255353  1
  O  O336  1  0.56943639  0.86485886  0.71871084  1
  O  O337  1  0.99610275  0.05905209  0.78184908  1
  O  O338  1  0.73188616  0.94375555  0.70329591  1
  O  O339  1  0.83150101  0.98101266  0.79624018  1
  O  O340  1  0.30227741  0.27996154  0.76369539  1
  O  O341  1  0.26276108  0.64726078  0.73619058  1
  O  O342  1  0.53936410  0.25592506  0.71347166  1
  O  O343  1  0.02559520  0.67120552  0.78607471  1
  O  O344  1  0.20291577  0.47381570  0.79327803  1
  O  O345  1  0.36628426  0.45401570  0.70638689  1
  O  O346  1  0.49414621  0.64410510  0.77057623  1
  O  O347  1  0.07322920  0.28571263  0.72909902  1
  O  O348  1  0.36267575  0.77708769  0.72709656  1
  O  O349  1  0.20301757  0.14794698  0.77162866  1
  O  O350  1  0.84950857  0.57889207  0.78565877  1
  O  O351  1  0.71847313  0.34745360  0.71211855  1
  O  O352  1  0.41246886  0.63180383  0.82946102  1
  O  O353  1  0.13034923  0.31489787  0.86986357  1
  O  O354  1  0.50204641  0.88539320  0.85902499  1
  O  O355  1  0.03154708  0.06834780  0.84300450  1
  O  O356  1  0.64822196  0.68251716  0.89268574  1
  O  O357  1  0.88555741  0.26327337  0.80801639  1
  O  O358  1  0.78341826  0.56907561  0.84828861  1
  O  O359  1  0.76690165  0.37352297  0.85303740  1
  O  O360  1  0.55831586  0.36767330  0.81947368  1
  O  O361  1  0.98324297  0.57308240  0.88411005  1
  O  O362  1  0.70813135  0.45445055  0.80341375  1
  O  O363  1  0.81989806  0.49166260  0.89745437  1
  O  O364  1  0.29021939  0.79138395  0.86509447  1
  O  O365  1  0.24317455  0.15877305  0.83403821  1
  O  O366  1  0.53794092  0.76348630  0.81561775  1
  O  O367  1  0.01511499  0.17822778  0.88764995  1
  O  O368  1  0.18364793  0.98139381  0.89522829  1
  O  O369  1  0.35155986  0.96244037  0.80690114  1
  O  O370  1  0.47487505  0.14833928  0.86826231  1
  O  O371  1  0.06329156  0.79673914  0.82969778  1
  O  O372  1  0.34575564  0.29046725  0.82762154  1
  O  O373  1  0.20856949  0.65409418  0.87162118  1
  O  O374  1  0.82906920  0.09159815  0.88698204  1
  O  O375  1  0.70322753  0.86152473  0.81388509  1
  O  O376  1  0.38243019  0.14836508  0.93084063  1
  O  O377  1  0.12348718  0.82335282  0.97097456  1
  O  O378  1  0.51976771  0.35944338  0.95460264  1
  O  O379  1  0.96224730  0.64325700  0.94208633  1
  O  O380  1  0.60213426  0.20372803  0.99495524  1
  O  O381  1  0.88673456  0.78863770  0.90222982  1
  O  O382  1  0.71792180  0.11133505  0.94627722  1
  O  O383  1  0.77523233  0.87828083  0.95131709  1
  O  O384  1  0.56338726  0.87207787  0.91995758  1
  O  O385  1  0.93414330  0.09259178  0.97963294  1
  O  O386  1  0.67848444  0.97573971  0.90392290  1
  O  O387  1  0.75372647  0.01730519  0.99172235  1
  O  O388  1  0.24174764  0.30505205  0.97065012  1
  O  O389  1  0.25730571  0.66473521  0.93501482  1
  O  O390  1  0.49972425  0.28283364  0.90478815  1
  O  O391  1  0.98588335  0.70267088  0.99594692  1
  O  O392  1  0.20771847  0.51125998  0.97853443  1
  O  O393  1  0.33154248  0.48349000  0.91002865  1
  O  O394  1  0.47302755  0.65763516  0.97425424  1
  O  O395  1  0.03170298  0.30077784  0.93318688  1
  O  O396  1  0.34964830  0.79919974  0.93126894  1
  O  O397  1  0.19154363  0.15314293  0.97438474  1
  O  O398  1  0.86197189  0.57927089  0.98039209  1
  O  O399  1  0.68520542  0.36815328  0.91056547  1
