# generated using pymatgen
data_Na3Zr2Si2PO12
_symmetry_space_group_name_H-M   'P 1'
_cell_length_a   9.13268800
_cell_length_b   9.27295607
_cell_length_c   30.38489183
_cell_angle_alpha   90.00000000
_cell_angle_beta   90.00000000
_cell_angle_gamma   61.42673606
_symmetry_Int_Tables_number   1
_chemical_formula_structural   Na3Zr2Si2PO12
_chemical_formula_sum   'Na24 Zr16 Si16 P8 O96'
_cell_volume   2259.80540414
_cell_formula_units_Z   8
loop_
 _symmetry_equiv_pos_site_id
 _symmetry_equiv_pos_as_xyz
  1  'x, y, z'
loop_
 _atom_site_type_symbol
 _atom_site_label
 _atom_site_symmetry_multiplicity
 _atom_site_fract_x
 _atom_site_fract_y
 _atom_site_fract_z
 _atom_site_occupancy
  Na  Na0  1  0.26090101  0.57934411  0.99586491  1
  Na  Na1  1  0.84019543  0.26061838  0.15271560  1
  Na  Na2  1  0.85158774  0.96313310  0.05917136  1
  Na  Na3  1  0.26290712  0.96789823  0.15446752  1
  Na  Na4  1  0.36473039  0.42423903  0.11221110  1
  Na  Na5  1  0.30068436  0.80537650  0.26975491  1
  Na  Na6  1  0.67943584  0.92022271  0.22605936  1
  Na  Na7  1  0.16624956  0.81745375  0.46669229  1
  Na  Na8  1  0.15214315  0.43803405  0.34329667  1
  Na  Na9  1  0.61727678  0.26966404  0.38782240  1
  Na  Na10  1  0.72868720  0.73845920  0.34571236  1
  Na  Na11  1  0.66064279  0.13781702  0.49387686  1
  Na  Na12  1  0.11433661  0.22059154  0.49605161  1
  Na  Na13  1  0.53434792  0.53900734  0.65285909  1
  Na  Na14  1  0.52340640  0.83653210  0.55929846  1
  Na  Na15  1  0.11180549  0.83227521  0.65447931  1
  Na  Na16  1  0.00941084  0.37701327  0.61247747  1
  Na  Na17  1  0.07393164  0.99474962  0.76991946  1
  Na  Na18  1  0.69580676  0.88139632  0.72601733  1
  Na  Na19  1  0.20962402  0.98164415  0.96660652  1
  Na  Na20  1  0.22268713  0.36241023  0.84310540  1
  Na  Na21  1  0.75873497  0.52902459  0.88756858  1
  Na  Na22  1  0.64608651  0.06176051  0.84582108  1
  Na  Na23  1  0.71495578  0.66160513  0.99387265  1
  Zr  Zr24  1  0.35819149  0.14511345  0.03770588  1
  Zr  Zr25  1  0.02678338  0.79980910  0.16039112  1
  Zr  Zr26  1  0.60837875  0.58276575  0.10236964  1
  Zr  Zr27  1  0.28681840  0.25228612  0.21056251  1
  Zr  Zr28  1  0.70191313  0.45101754  0.29028828  1
  Zr  Zr29  1  0.37717986  0.12760836  0.40331972  1
  Zr  Zr30  1  0.96519289  0.89937690  0.33819367  1
  Zr  Zr31  1  0.61779670  0.55853028  0.44955957  1
  Zr  Zr32  1  0.01687930  0.65468880  0.53777391  1
  Zr  Zr33  1  0.34814060  0.00006821  0.66049463  1
  Zr  Zr34  1  0.76663913  0.21744524  0.60237063  1
  Zr  Zr35  1  0.08814966  0.54786293  0.71064157  1
  Zr  Zr36  1  0.67277733  0.34911562  0.79029780  1
  Zr  Zr37  1  0.99796373  0.67219067  0.90322826  1
  Zr  Zr38  1  0.40967674  0.90066422  0.83829911  1
  Zr  Zr39  1  0.75744515  0.24142071  0.94968375  1
  Si  Si40  1  0.20832098  0.85608460  0.06533792  1
  Si  Si41  1  0.05450976  0.42710974  0.11578076  1
  Si  Si42  1  0.59057968  0.96723075  0.12912164  1
  Si  Si43  1  0.43079138  0.54859024  0.19807169  1
  Si  Si44  1  0.55879040  0.15370643  0.30477391  1
  Si  Si45  1  0.39272218  0.75541987  0.36713546  1
  Si  Si46  1  0.94082070  0.26465374  0.38294866  1
  Si  Si47  1  0.78691681  0.83619978  0.43564241  1
  Si  Si48  1  0.16661460  0.94385463  0.56538537  1
  Si  Si49  1  0.32065906  0.37267166  0.61594628  1
  Si  Si50  1  0.78423390  0.83306497  0.62913558  1
  Si  Si51  1  0.94423616  0.25118985  0.69811406  1
  Si  Si52  1  0.81595184  0.64674134  0.80464030  1
  Si  Si53  1  0.98207652  0.04471921  0.86727925  1
  Si  Si54  1  0.43433384  0.53520813  0.88297071  1
  Si  Si55  1  0.58879271  0.96329006  0.93571825  1
  P  P56  1  0.61661318  0.33903140  0.04094346  1
  P  P57  1  0.00871736  0.09975100  0.23863092  1
  P  P58  1  0.96972450  0.60930511  0.25990152  1
  P  P59  1  0.33083885  0.40479696  0.45880829  1
  P  P60  1  0.75807938  0.46125726  0.54090173  1
  P  P61  1  0.36576533  0.70053310  0.73869274  1
  P  P62  1  0.40494391  0.19067221  0.75999707  1
  P  P63  1  0.04484039  0.39474948  0.95869719  1
  O  O64  1  0.36216275  0.68316514  0.08427137  1
  O  O65  1  0.11262287  0.30799203  0.15961466  1
  O  O66  1  0.55170413  0.06213270  0.08148703  1
  O  O67  1  0.76652663  0.19464669  0.01645933  1
  O  O68  1  0.61279382  0.50426289  0.02957987  1
  O  O69  1  0.45661132  0.33533940  0.02542387  1
  O  O70  1  0.64281591  0.31981783  0.09108789  1
  O  O71  1  0.27774582  0.99144643  0.05757467  1
  O  O72  1  0.06901761  0.59543094  0.12712276  1
  O  O73  1  0.58029372  0.79856268  0.12006347  1
  O  O74  1  0.45687378  0.06399300  0.16877535  1
  O  O75  1  0.19319261  0.33138372  0.07658950  1
  O  O76  1  0.07315139  0.91884195  0.10740258  1
  O  O77  1  0.57846823  0.50901336  0.16161856  1
  O  O78  1  0.12535760  0.84150306  0.01985680  1
  O  O79  1  0.77711415  0.92516501  0.14524127  1
  O  O80  1  0.86519410  0.47042259  0.10194085  1
  O  O81  1  0.26566469  0.72635911  0.18759812  1
  O  O82  1  0.72216143  0.97484317  0.31369194  1
  O  O83  1  0.40403725  0.68201165  0.41740191  1
  O  O84  1  0.89594014  0.38269890  0.33956538  1
  O  O85  1  0.11086170  0.43170094  0.25350676  1
  O  O86  1  0.86975767  0.27896763  0.24418326  1
  O  O87  1  0.95619474  0.71957680  0.22020866  1
  O  O88  1  0.01548082  0.99290283  0.27823481  1
  O  O89  1  0.18468056  0.08763192  0.23324548  1
  O  O90  1  0.79659747  0.61777884  0.26675050  1
  O  O91  1  0.97069023  0.03114719  0.19591959  1
  O  O92  1  0.01169592  0.67415451  0.30278410  1
  O  O93  1  0.37352697  0.40648634  0.19201086  1
  O  O94  1  0.62151754  0.29271714  0.30903885  1
  O  O95  1  0.41070387  0.92057699  0.37477877  1
  O  O96  1  0.92156266  0.10110534  0.37240107  1
  O  O97  1  0.79320575  0.36024421  0.42085445  1
  O  O98  1  0.54935027  0.63036997  0.33616956  1
  O  O99  1  0.42240613  0.19776722  0.34491430  1
  O  O100  1  0.91426953  0.79918265  0.39358316  1
  O  O101  1  0.47094263  0.15130338  0.25852593  1
  O  O102  1  0.50634081  0.55655731  0.24609744  1
  O  O103  1  0.12182627  0.21703767  0.40503211  1
  O  O104  1  0.21923067  0.78970354  0.34442668  1
  O  O105  1  0.62379604  0.02127167  0.42736869  1
  O  O106  1  0.18774201  0.55137411  0.48242653  1
  O  O107  1  0.34754028  0.23591717  0.47389599  1
  O  O108  1  0.49943932  0.40414053  0.46664267  1
  O  O109  1  0.30708198  0.40114740  0.40833376  1
  O  O110  1  0.71560039  0.70256230  0.43343240  1
  O  O111  1  0.86978684  0.83001116  0.48422892  1
  O  O112  1  0.01270105  0.11682648  0.58423057  1
  O  O113  1  0.26298997  0.49150182  0.65983101  1
  O  O114  1  0.82258234  0.73887266  0.58139126  1
  O  O115  1  0.60836232  0.60555472  0.51633663  1
  O  O116  1  0.76198203  0.29591932  0.52962711  1
  O  O117  1  0.91822315  0.46484293  0.52544270  1
  O  O118  1  0.73170834  0.48080609  0.59104106  1
  O  O119  1  0.09724801  0.80842248  0.55764253  1
  O  O120  1  0.30598569  0.20440519  0.62718395  1
  O  O121  1  0.79439207  0.00194336  0.62033112  1
  O  O122  1  0.91865305  0.73546431  0.66859391  1
  O  O123  1  0.18153041  0.46887444  0.57684809  1
  O  O124  1  0.30147353  0.88118291  0.60753536  1
  O  O125  1  0.79681263  0.29178242  0.66151376  1
  O  O126  1  0.24989079  0.95829101  0.51994523  1
  O  O127  1  0.59801738  0.87485732  0.64548925  1
  O  O128  1  0.50984581  0.32958809  0.60198368  1
  O  O129  1  0.10926134  0.07338898  0.68772827  1
  O  O130  1  0.65249802  0.82527360  0.81369802  1
  O  O131  1  0.97134104  0.11745107  0.91760106  1
  O  O132  1  0.47873216  0.41744169  0.83953871  1
  O  O133  1  0.26363881  0.36828591  0.75372473  1
  O  O134  1  0.50432228  0.52119860  0.74430819  1
  O  O135  1  0.41831086  0.08049632  0.72030650  1
  O  O136  1  0.35880299  0.80739762  0.77831568  1
  O  O137  1  0.18971863  0.71290295  0.73318452  1
  O  O138  1  0.57811262  0.18217192  0.76676232  1
  O  O139  1  0.40434432  0.76874330  0.69599619  1
  O  O140  1  0.36348567  0.12552745  0.80290536  1
  O  O141  1  0.00188547  0.39313455  0.69230942  1
  O  O142  1  0.75383083  0.50719884  0.80876881  1
  O  O143  1  0.96412690  0.87947529  0.87474841  1
  O  O144  1  0.45349621  0.69873612  0.87240434  1
  O  O145  1  0.58219448  0.43946129  0.92080433  1
  O  O146  1  0.82520094  0.17039775  0.83642597  1
  O  O147  1  0.95244807  0.60238787  0.84478819  1
  O  O148  1  0.46116966  0.00024817  0.89373926  1
  O  O149  1  0.90354136  0.65012121  0.75843928  1
  O  O150  1  0.86791939  0.24305549  0.74601224  1
  O  O151  1  0.25332816  0.58295793  0.90507161  1
  O  O152  1  0.15548179  0.01062495  0.84452736  1
  O  O153  1  0.75185783  0.77833161  0.92738736  1
  O  O154  1  0.18823525  0.24796813  0.98216569  1
  O  O155  1  0.02816534  0.56357551  0.97379043  1
  O  O156  1  0.87629424  0.39537442  0.96666325  1
  O  O157  1  0.06813579  0.39862818  0.90819851  1
  O  O158  1  0.65991109  0.09711313  0.93352527  1
  O  O159  1  0.50615569  0.96936011  0.98435347  1
