# generated using pymatgen
data_Na3Zr2Si2PO12
_symmetry_space_group_name_H-M   'P 1'
_cell_length_a   9.13268800
_cell_length_b   9.27295607
_cell_length_c   30.37771882
_cell_angle_alpha   90.00000000
_cell_angle_beta   90.00000000
_cell_angle_gamma   61.42673606
_symmetry_Int_Tables_number   1
_chemical_formula_structural   Na3Zr2Si2PO12
_chemical_formula_sum   'Na24 Zr16 Si16 P8 O96'
_cell_volume   2259.27192789
_cell_formula_units_Z   8
loop_
 _symmetry_equiv_pos_site_id
 _symmetry_equiv_pos_as_xyz
  1  'x, y, z'
loop_
 _atom_site_type_symbol
 _atom_site_label
 _atom_site_symmetry_multiplicity
 _atom_site_fract_x
 _atom_site_fract_y
 _atom_site_fract_z
 _atom_site_occupancy
  Na  Na0  1  0.29903517  0.60341208  0.99609365  1
  Na  Na1  1  0.88841624  0.98661167  0.05892246  1
  Na  Na2  1  0.29852365  0.99412620  0.15429629  1
  Na  Na3  1  0.40202974  0.44797615  0.11244229  1
  Na  Na4  1  0.33797259  0.83227471  0.26987538  1
  Na  Na5  1  0.71616339  0.94491491  0.22607737  1
  Na  Na6  1  0.87641980  0.28651502  0.15281610  1
  Na  Na7  1  0.18884726  0.46320195  0.34326899  1
  Na  Na8  1  0.65340183  0.29658545  0.38765789  1
  Na  Na9  1  0.76600532  0.76400059  0.34579946  1
  Na  Na10  1  0.69772011  0.16405478  0.49390086  1
  Na  Na11  1  0.20247950  0.84389442  0.46643582  1
  Na  Na12  1  0.15052664  0.24662427  0.49594350  1
  Na  Na13  1  0.56143730  0.86340815  0.55897488  1
  Na  Na14  1  0.15080377  0.85636180  0.65426408  1
  Na  Na15  1  0.04803843  0.40150090  0.61227464  1
  Na  Na16  1  0.11277132  0.01910873  0.76977179  1
  Na  Na17  1  0.73365193  0.90522975  0.72615063  1
  Na  Na18  1  0.57282719  0.56364834  0.65268080  1
  Na  Na19  1  0.26096089  0.38610884  0.84330967  1
  Na  Na20  1  0.79642880  0.55380664  0.88777079  1
  Na  Na21  1  0.68466153  0.08557299  0.84569337  1
  Na  Na22  1  0.75248509  0.68603230  0.99403734  1
  Na  Na23  1  0.24763712  0.00588823  0.96640383  1
  Zr  Zr24  1  0.39514369  0.16963174  0.03775076  1
  Zr  Zr25  1  0.64438344  0.60802218  0.10238471  1
  Zr  Zr26  1  0.32293463  0.27784736  0.21070863  1
  Zr  Zr27  1  0.73840447  0.47694803  0.29017188  1
  Zr  Zr28  1  0.06333474  0.82499812  0.16037557  1
  Zr  Zr29  1  0.00212473  0.92528123  0.33829090  1
  Zr  Zr30  1  0.65480917  0.58421448  0.44975624  1
  Zr  Zr31  1  0.41407568  0.15353885  0.40339008  1
  Zr  Zr32  1  0.05480452  0.68037534  0.53783277  1
  Zr  Zr33  1  0.80519701  0.24231560  0.60231384  1
  Zr  Zr34  1  0.12687692  0.57225638  0.71061849  1
  Zr  Zr35  1  0.71172369  0.37295489  0.79017686  1
  Zr  Zr36  1  0.38643830  0.02500730  0.66036023  1
  Zr  Zr37  1  0.44833579  0.92439632  0.83823577  1
  Zr  Zr38  1  0.79539863  0.26544436  0.94980189  1
  Zr  Zr39  1  0.03634013  0.69610150  0.90334514  1
  Si  Si40  1  0.24480793  0.88075696  0.06520069  1
  Si  Si41  1  0.09075981  0.45236366  0.11584140  1
  Si  Si42  1  0.62678463  0.99227621  0.12922629  1
  Si  Si43  1  0.46672467  0.57472026  0.19814096  1
  Si  Si44  1  0.59543833  0.17929331  0.30475220  1
  Si  Si45  1  0.43015398  0.78134382  0.36721686  1
  Si  Si46  1  0.97735003  0.29100795  0.38281964  1
  Si  Si47  1  0.82378342  0.86200400  0.43582676  1
  Si  Si48  1  0.20506012  0.96931953  0.56523293  1
  Si  Si49  1  0.35909179  0.39735737  0.61582100  1
  Si  Si50  1  0.82284366  0.85816492  0.62922918  1
  Si  Si51  1  0.98298462  0.27583760  0.69800184  1
  Si  Si52  1  0.85469404  0.67036713  0.80471518  1
  Si  Si53  1  0.02055779  0.06865396  0.86719719  1
  Si  Si54  1  0.47296955  0.55869111  0.88283999  1
  Si  Si55  1  0.62667065  0.98737798  0.93575366  1
  P  P56  1  0.65429263  0.36307008  0.04108536  1
  P  P57  1  0.04530545  0.12514616  0.23857123  1
  P  P58  1  0.00651161  0.63497607  0.26008049  1
  P  P59  1  0.36743115  0.43082020  0.45879048  1
  P  P60  1  0.79564018  0.48714873  0.54102189  1
  P  P61  1  0.40466509  0.72460773  0.73850960  1
  P  P62  1  0.44322639  0.21524191  0.76000649  1
  P  P63  1  0.08219067  0.41925875  0.95883711  1
  O  O64  1  0.39858084  0.70771779  0.08408479  1
  O  O65  1  0.58905275  0.08635828  0.08147676  1
  O  O66  1  0.80448034  0.21875492  0.01666291  1
  O  O67  1  0.65008881  0.52846063  0.02968132  1
  O  O68  1  0.49450225  0.35908232  0.02548411  1
  O  O69  1  0.67991951  0.34433072  0.09126689  1
  O  O70  1  0.31469273  0.01581277  0.05747700  1
  O  O71  1  0.10594856  0.62042281  0.12708605  1
  O  O72  1  0.61547887  0.82402309  0.12031671  1
  O  O73  1  0.23003254  0.35552591  0.07679089  1
  O  O74  1  0.10945978  0.94363087  0.10722087  1
  O  O75  1  0.61440538  0.53402163  0.16159193  1
  O  O76  1  0.16212020  0.86604991  0.01966541  1
  O  O77  1  0.81325642  0.94963385  0.14560150  1
  O  O78  1  0.90128261  0.49652713  0.10185458  1
  O  O79  1  0.30196725  0.75241146  0.18749713  1
  O  O80  1  0.75907895  0.00087485  0.31382495  1
  O  O81  1  0.14788139  0.33392597  0.15984155  1
  O  O82  1  0.93238016  0.40901389  0.33943669  1
  O  O83  1  0.14740080  0.45712498  0.25382680  1
  O  O84  1  0.90638420  0.30435391  0.24416389  1
  O  O85  1  0.99369183  0.74483973  0.22034715  1
  O  O86  1  0.05229269  0.01812473  0.27816066  1
  O  O87  1  0.22128896  0.11307013  0.23322600  1
  O  O88  1  0.83303625  0.64399473  0.26673575  1
  O  O89  1  0.00741832  0.05674260  0.19580292  1
  O  O90  1  0.04806005  0.69995400  0.30301715  1
  O  O91  1  0.40923569  0.43264439  0.19240368  1
  O  O92  1  0.65748190  0.31895662  0.30876125  1
  O  O93  1  0.44877397  0.94607368  0.37490089  1
  O  O94  1  0.95791757  0.12763480  0.37226360  1
  O  O95  1  0.49237609  0.09049454  0.16863169  1
  O  O96  1  0.58652305  0.65611221  0.33619124  1
  O  O97  1  0.45937238  0.22370469  0.34497235  1
  O  O98  1  0.95119840  0.82552746  0.39378279  1
  O  O99  1  0.50744816  0.17575047  0.25859786  1
  O  O100  1  0.54258857  0.58337432  0.24607180  1
  O  O101  1  0.15864770  0.24311964  0.40476811  1
  O  O102  1  0.25623702  0.81660005  0.34455759  1
  O  O103  1  0.66040408  0.04686739  0.42755018  1
  O  O104  1  0.44130526  0.70775435  0.41746378  1
  O  O105  1  0.22425685  0.57768007  0.48228610  1
  O  O106  1  0.38366148  0.26217938  0.47389921  1
  O  O107  1  0.53615797  0.42983094  0.46672133  1
  O  O108  1  0.34390404  0.42717145  0.40830417  1
  O  O109  1  0.75292863  0.72801275  0.43365399  1
  O  O110  1  0.83010946  0.38634039  0.42084855  1
  O  O111  1  0.90674610  0.85615444  0.48439800  1
  O  O112  1  0.05111268  0.14242483  0.58403661  1
  O  O113  1  0.86065729  0.76419455  0.58145994  1
  O  O114  1  0.64558577  0.63147259  0.51656748  1
  O  O115  1  0.79977937  0.32182094  0.52956822  1
  O  O116  1  0.95564042  0.49101561  0.52552469  1
  O  O117  1  0.76983036  0.50590362  0.59118693  1
  O  O118  1  0.13552940  0.83393118  0.55760859  1
  O  O119  1  0.34441144  0.22905864  0.62693869  1
  O  O120  1  0.83403710  0.02652680  0.62041157  1
  O  O121  1  0.21969758  0.49430948  0.57684000  1
  O  O122  1  0.34025236  0.90641802  0.60727838  1
  O  O123  1  0.83518839  0.31637201  0.66150991  1
  O  O124  1  0.28747511  0.98411460  0.51967770  1
  O  O125  1  0.63644573  0.90054921  0.64555855  1
  O  O126  1  0.54833463  0.35397116  0.60181505  1
  O  O127  1  0.14768112  0.09786971  0.68748092  1
  O  O128  1  0.69122808  0.84902354  0.81372065  1
  O  O129  1  0.30199492  0.51556179  0.65983602  1
  O  O130  1  0.51789242  0.44100331  0.83939265  1
  O  O131  1  0.30203311  0.39301499  0.75388580  1
  O  O132  1  0.54365873  0.54545455  0.74408752  1
  O  O133  1  0.45600197  0.10555572  0.72023265  1
  O  O134  1  0.39792192  0.83151186  0.77811982  1
  O  O135  1  0.22860612  0.73683546  0.73319826  1
  O  O136  1  0.61666981  0.20629575  0.76666781  1
  O  O137  1  0.44237794  0.79320197  0.69573327  1
  O  O138  1  0.40205776  0.14971860  0.80290591  1
  O  O139  1  0.04104516  0.41736743  0.69205794  1
  O  O140  1  0.79216498  0.53113963  0.80899647  1
  O  O141  1  0.00275285  0.90356409  0.87511924  1
  O  O142  1  0.49178437  0.72253475  0.87239732  1
  O  O143  1  0.95726519  0.76001758  0.66865589  1
  O  O144  1  0.86454864  0.19308827  0.83595489  1
  O  O145  1  0.99113897  0.62651250  0.84483558  1
  O  O146  1  0.49936378  0.02428839  0.89369380  1
  O  O147  1  0.94210886  0.67351091  0.75844288  1
  O  O148  1  0.90721126  0.26774341  0.74597704  1
  O  O149  1  0.29189394  0.60591544  0.90483920  1
  O  O150  1  0.19432373  0.03404433  0.84456221  1
  O  O151  1  0.78975359  0.80232357  0.92743807  1
  O  O152  1  0.00865540  0.14305312  0.91737382  1
  O  O153  1  0.22578668  0.27229973  0.98220902  1
  O  O154  1  0.06627371  0.58781137  0.97391166  1
  O  O155  1  0.91374143  0.42002787  0.96696483  1
  O  O156  1  0.10504845  0.42312728  0.90830699  1
  O  O157  1  0.69800320  0.12103250  0.93367784  1
  O  O158  1  0.62057557  0.46308883  0.92073627  1
  O  O159  1  0.54349359  0.99361291  0.98434083  1
