# generated using pymatgen
data_Na3Zr2Si2PO12
_symmetry_space_group_name_H-M   'P 1'
_cell_length_a   9.13268800
_cell_length_b   9.27295607
_cell_length_c   30.37001460
_cell_angle_alpha   90.00000000
_cell_angle_beta   90.00000000
_cell_angle_gamma   61.42673606
_symmetry_Int_Tables_number   1
_chemical_formula_structural   Na3Zr2Si2PO12
_chemical_formula_sum   'Na24 Zr16 Si16 P8 O96'
_cell_volume   2258.69894446
_cell_formula_units_Z   8
loop_
 _symmetry_equiv_pos_site_id
 _symmetry_equiv_pos_as_xyz
  1  'x, y, z'
loop_
 _atom_site_type_symbol
 _atom_site_label
 _atom_site_symmetry_multiplicity
 _atom_site_fract_x
 _atom_site_fract_y
 _atom_site_fract_z
 _atom_site_occupancy
  Na  Na0  1  0.17669202  0.59920306  0.00604929  1
  Na  Na1  1  0.68630642  0.29881732  0.15672174  1
  Na  Na2  1  0.67322803  0.91869577  0.03360595  1
  Na  Na3  1  0.10989586  0.99853207  0.15427158  1
  Na  Na4  1  0.22203592  0.46613894  0.11235543  1
  Na  Na5  1  0.15906139  0.81690335  0.27397041  1
  Na  Na6  1  0.53754022  0.93053816  0.23000704  1
  Na  Na7  1  0.98672186  0.77638491  0.44139388  1
  Na  Na8  1  0.99947754  0.47581133  0.34720832  1
  Na  Na9  1  0.47470971  0.31273741  0.38776927  1
  Na  Na10  1  0.57716935  0.76817699  0.34573212  1
  Na  Na11  1  0.57522545  0.15845162  0.50426599  1
  Na  Na12  1  0.12319669  0.07589849  0.50601037  1
  Na  Na13  1  0.61345373  0.37608072  0.65656851  1
  Na  Na14  1  0.62684512  0.75615763  0.53363407  1
  Na  Na15  1  0.18966571  0.67690565  0.65418995  1
  Na  Na16  1  0.07840920  0.20808826  0.61222863  1
  Na  Na17  1  0.14047625  0.85731261  0.77392349  1
  Na  Na18  1  0.76161690  0.74353372  0.73013870  1
  Na  Na19  1  0.31285457  0.89945397  0.94118826  1
  Na  Na20  1  0.30126135  0.19893087  0.84729751  1
  Na  Na21  1  0.82582145  0.36216557  0.88765431  1
  Na  Na22  1  0.72315999  0.90676476  0.84567139  1
  Na  Na23  1  0.72381650  0.51680341  0.00387306  1
  Zr  Zr24  1  0.13737171  0.28544728  0.20986500  1
  Zr  Zr25  1  0.22066217  0.17831799  0.05025550  1
  Zr  Zr26  1  0.87387690  0.83723221  0.16182819  1
  Zr  Zr27  1  0.46149053  0.60900487  0.09664118  1
  Zr  Zr28  1  0.48001365  0.59243470  0.46214614  1
  Zr  Zr29  1  0.55273344  0.48430146  0.28945893  1
  Zr  Zr30  1  0.23116112  0.15426432  0.39764167  1
  Zr  Zr31  1  0.81234804  0.93716130  0.33972417  1
  Zr  Zr32  1  0.16292112  0.38931371  0.70971094  1
  Zr  Zr33  1  0.07899106  0.49648625  0.55010936  1
  Zr  Zr34  1  0.42624730  0.83777891  0.66164768  1
  Zr  Zr35  1  0.83867104  0.06545963  0.59660762  1
  Zr  Zr36  1  0.81964636  0.08303109  0.96218200  1
  Zr  Zr37  1  0.74732432  0.19083052  0.78938026  1
  Zr  Zr38  1  0.06888432  0.52113284  0.89766434  1
  Zr  Zr39  1  0.48758857  0.73823469  0.83953967  1
  Si  Si40  1  0.28036541  0.58290837  0.19536682  1
  Si  Si41  1  0.05163564  0.90050934  0.06420770  1
  Si  Si42  1  0.89827401  0.47148469  0.11733038  1
  Si  Si43  1  0.44604241  0.98132845  0.13265839  1
  Si  Si44  1  0.63060801  0.88125880  0.43486302  1
  Si  Si45  1  0.40893238  0.18760892  0.30197652  1
  Si  Si46  1  0.24863917  0.77002941  0.37078888  1
  Si  Si47  1  0.78519867  0.30983911  0.38421517  1
  Si  Si48  1  0.01960109  0.09193945  0.69532694  1
  Si  Si49  1  0.24824679  0.77405376  0.56416954  1
  Si  Si50  1  0.40191563  0.20310015  0.61690741  1
  Si  Si51  1  0.85398760  0.69316772  0.63268795  1
  Si  Si52  1  0.66888013  0.79454704  0.93476611  1
  Si  Si53  1  0.89166392  0.48700635  0.80191788  1
  Si  Si54  1  0.05132014  0.90538745  0.87071692  1
  Si  Si55  1  0.51492245  0.36578468  0.88422177  1
  P  P56  1  0.50697631  0.33230699  0.04114318  1
  P  P57  1  0.86914650  0.12761796  0.24007425  1
  P  P58  1  0.82997636  0.63734685  0.26147697  1
  P  P59  1  0.22167782  0.39898191  0.45895416  1
  P  P60  1  0.79255395  0.34238137  0.54112987  1
  P  P61  1  0.43112089  0.54763793  0.73988995  1
  P  P62  1  0.46990058  0.03806678  0.76133966  1
  P  P63  1  0.07848174  0.27619552  0.95904452  1
  O  O64  1  0.11679989  0.76158759  0.18640676  1
  O  O65  1  0.21483508  0.71547506  0.07250702  1
  O  O66  1  0.94316363  0.35365790  0.16077069  1
  O  O67  1  0.43464384  0.05506491  0.08240422  1
  O  O68  1  0.65008096  0.18537399  0.01762734  1
  O  O69  1  0.49121219  0.50082342  0.02609565  1
  O  O70  1  0.33825164  0.33340265  0.03316204  1
  O  O71  1  0.82793151  0.06246991  0.19709408  1
  O  O72  1  0.53038749  0.33586303  0.09166918  1
  O  O73  1  0.21804677  0.44353605  0.19113225  1
  O  O74  1  0.12318874  0.03391782  0.06624180  1
  O  O75  1  0.91786604  0.63493145  0.12777891  1
  O  O76  1  0.42770547  0.81644434  0.12492451  1
  O  O77  1  0.28973895  0.10625826  0.16377989  1
  O  O78  1  0.04577798  0.37567476  0.07940365  1
  O  O79  1  0.92464570  0.93741913  0.10636854  1
  O  O80  1  0.41650986  0.53929487  0.15517717  1
  O  O81  1  0.96798441  0.90672282  0.01567418  1
  O  O82  1  0.61984798  0.94641229  0.15535771  1
  O  O83  1  0.71710156  0.51901370  0.09533819  1
  O  O84  1  0.47713828  0.05443193  0.41591475  1
  O  O85  1  0.57357694  0.00991127  0.31268041  1
  O  O86  1  0.28571207  0.67627738  0.41858428  1
  O  O87  1  0.72823197  0.42793096  0.34017544  1
  O  O88  1  0.96921613  0.45825210  0.25586067  1
  O  O89  1  0.72802537  0.30535042  0.24628063  1
  O  O90  1  0.82303496  0.74462561  0.22193748  1
  O  O91  1  0.88181961  0.01766866  0.27975751  1
  O  O92  1  0.04256133  0.11872369  0.23342509  1
  O  O93  1  0.65407736  0.64918705  0.26673685  1
  O  O94  1  0.19649356  0.41740904  0.40875400  1
  O  O95  1  0.86758309  0.70561848  0.30433262  1
  O  O96  1  0.56058202  0.74626104  0.44240758  1
  O  O97  1  0.46670647  0.32940918  0.30789663  1
  O  O98  1  0.25939136  0.93855155  0.37971450  1
  O  O99  1  0.77079410  0.14125509  0.37312399  1
  O  O100  1  0.64534805  0.40683765  0.42311569  1
  O  O101  1  0.38367389  0.67189546  0.33149370  1
  O  O102  1  0.26081678  0.22810125  0.33836749  1
  O  O103  1  0.76638627  0.81854468  0.39290443  1
  O  O104  1  0.33341289  0.17931282  0.25395411  1
  O  O105  1  0.36787060  0.58574117  0.24164867  1
  O  O106  1  0.97433734  0.26643568  0.39833551  1
  O  O107  1  0.06263774  0.81206987  0.35418500  1
  O  O108  1  0.07115622  0.54325779  0.48329335  1
  O  O109  1  0.22604710  0.23358249  0.47045831  1
  O  O110  1  0.38145217  0.40305550  0.47452740  1
  O  O111  1  0.71272931  0.89578625  0.48052005  1
  O  O112  1  0.18339537  0.91350855  0.68625731  1
  O  O113  1  0.08513391  0.95910347  0.57252093  1
  O  O114  1  0.35667451  0.32079850  0.66038993  1
  O  O115  1  0.86547767  0.61924548  0.58246234  1
  O  O116  1  0.64897110  0.48937016  0.51778309  1
  O  O117  1  0.80883399  0.17374836  0.52603065  1
  O  O118  1  0.96099654  0.34179016  0.53302393  1
  O  O119  1  0.47246407  0.61270837  0.69692790  1
  O  O120  1  0.76969168  0.33845134  0.59166871  1
  O  O121  1  0.08175465  0.23142216  0.69106424  1
  O  O122  1  0.17673387  0.64055823  0.56633064  1
  O  O123  1  0.38289664  0.03940213  0.62736922  1
  O  O124  1  0.87186264  0.85828420  0.62490632  1
  O  O125  1  0.01052608  0.56851169  0.66377584  1
  O  O126  1  0.25446646  0.29857704  0.57894043  1
  O  O127  1  0.37564605  0.73721702  0.60623020  1
  O  O128  1  0.88332794  0.13524722  0.65518662  1
  O  O129  1  0.33121132  0.76818863  0.51557577  1
  O  O130  1  0.68040929  0.72779065  0.65543203  1
  O  O131  1  0.58304814  0.15574527  0.59492692  1
  O  O132  1  0.82285848  0.62152422  0.91586890  1
  O  O133  1  0.72663272  0.66477321  0.81243098  1
  O  O134  1  0.01365171  0.99928586  0.91849663  1
  O  O135  1  0.57212432  0.24740460  0.84022080  1
  O  O136  1  0.33099776  0.21731714  0.75582916  1
  O  O137  1  0.57232506  0.36994910  0.74612102  1
  O  O138  1  0.47678352  0.93121229  0.72169346  1
  O  O139  1  0.41813684  0.65772043  0.77957663  1
  O  O140  1  0.25784002  0.55628366  0.73319629  1
  O  O141  1  0.64588982  0.02585624  0.76676493  1
  O  O142  1  0.10388610  0.25776786  0.90884435  1
  O  O143  1  0.43203463  0.96939256  0.80407544  1
  O  O144  1  0.73854111  0.92982919  0.94230951  1
  O  O145  1  0.83414384  0.34505140  0.80783741  1
  O  O146  1  0.04108701  0.73657546  0.87965785  1
  O  O147  1  0.52937422  0.53421417  0.87298257  1
  O  O148  1  0.65460426  0.26931467  0.92321435  1
  O  O149  1  0.91640460  0.00315881  0.83139069  1
  O  O150  1  0.03931675  0.44682878  0.83844331  1
  O  O151  1  0.53347930  0.85702535  0.89271904  1
  O  O152  1  0.96744931  0.49515858  0.75392834  1
  O  O153  1  0.93217677  0.08877163  0.74159640  1
  O  O154  1  0.32575532  0.40918991  0.89830081  1
  O  O155  1  0.23745535  0.86326557  0.85417258  1
  O  O156  1  0.22899598  0.13199378  0.98338096  1
  O  O157  1  0.07379088  0.44172864  0.97053363  1
  O  O158  1  0.91884502  0.27182755  0.97463801  1
  O  O159  1  0.58672426  0.77967540  0.98036708  1
