# generated using pymatgen
data_Na3Zr2Si2PO12
_symmetry_space_group_name_H-M   'P 1'
_cell_length_a   9.13268800
_cell_length_b   9.27295607
_cell_length_c   30.37852870
_cell_angle_alpha   90.00000000
_cell_angle_beta   90.00000000
_cell_angle_gamma   61.42673606
_symmetry_Int_Tables_number   1
_chemical_formula_structural   Na3Zr2Si2PO12
_chemical_formula_sum   'Na24 Zr16 Si16 P8 O96'
_cell_volume   2259.33216114
_cell_formula_units_Z   8
loop_
 _symmetry_equiv_pos_site_id
 _symmetry_equiv_pos_as_xyz
  1  'x, y, z'
loop_
 _atom_site_type_symbol
 _atom_site_label
 _atom_site_symmetry_multiplicity
 _atom_site_fract_x
 _atom_site_fract_y
 _atom_site_fract_z
 _atom_site_occupancy
  Na  Na0  1  0.28553236  0.59187543  0.99698299  1
  Na  Na1  1  0.87554019  0.97527770  0.05926724  1
  Na  Na2  1  0.28655808  0.98168332  0.15452501  1
  Na  Na3  1  0.39042588  0.43514014  0.11245824  1
  Na  Na4  1  0.32432896  0.81987721  0.26996792  1
  Na  Na5  1  0.70375914  0.93543552  0.22610700  1
  Na  Na6  1  0.86500119  0.27531263  0.15280517  1
  Na  Na7  1  0.17498887  0.45192155  0.34341055  1
  Na  Na8  1  0.64034968  0.28403949  0.38781132  1
  Na  Na9  1  0.75142908  0.75285022  0.34578680  1
  Na  Na10  1  0.68448742  0.15166447  0.49397685  1
  Na  Na11  1  0.18893834  0.83171726  0.46645291  1
  Na  Na12  1  0.13840659  0.23316181  0.49622114  1
  Na  Na13  1  0.54906924  0.85052997  0.55894000  1
  Na  Na14  1  0.13896499  0.84273272  0.65425063  1
  Na  Na15  1  0.03579713  0.38811394  0.61237180  1
  Na  Na16  1  0.10075709  0.00493753  0.76982751  1
  Na  Na17  1  0.72137597  0.89038555  0.72593815  1
  Na  Na18  1  0.56066045  0.54875645  0.65311000  1
  Na  Na19  1  0.24964453  0.37337915  0.84318804  1
  Na  Na20  1  0.78475442  0.54095479  0.88764582  1
  Na  Na21  1  0.67304122  0.07256407  0.84574035  1
  Na  Na22  1  0.74122524  0.67328269  0.99394974  1
  Na  Na23  1  0.23550571  0.99331808  0.96650132  1
  Zr  Zr24  1  0.38299530  0.15799853  0.03768065  1
  Zr  Zr25  1  0.05040925  0.81353069  0.16045888  1
  Zr  Zr26  1  0.63170524  0.59647214  0.10231105  1
  Zr  Zr27  1  0.30939244  0.26656545  0.21060655  1
  Zr  Zr28  1  0.72472814  0.46520501  0.29032855  1
  Zr  Zr29  1  0.40071660  0.14114245  0.40342872  1
  Zr  Zr30  1  0.98829922  0.91343105  0.33828923  1
  Zr  Zr31  1  0.64142864  0.57224554  0.44987852  1
  Zr  Zr32  1  0.04207571  0.66727670  0.53775048  1
  Zr  Zr33  1  0.37442637  0.01164257  0.66032903  1
  Zr  Zr34  1  0.79318356  0.22863249  0.60226069  1
  Zr  Zr35  1  0.11510456  0.55863935  0.71052964  1
  Zr  Zr36  1  0.69996431  0.35971784  0.79018911  1
  Zr  Zr37  1  0.02467919  0.68335785  0.90324432  1
  Zr  Zr38  1  0.43678903  0.91143953  0.83823325  1
  Zr  Zr39  1  0.78401672  0.25279661  0.94970768  1
  Si  Si40  1  0.23187252  0.86991912  0.06532156  1
  Si  Si41  1  0.07807676  0.44151294  0.11550106  1
  Si  Si42  1  0.61379476  0.98057735  0.12939921  1
  Si  Si43  1  0.45380482  0.56284252  0.19805758  1
  Si  Si44  1  0.58136016  0.16790775  0.30477397  1
  Si  Si45  1  0.41615754  0.76885461  0.36743250  1
  Si  Si46  1  0.96392314  0.27877266  0.38298629  1
  Si  Si47  1  0.81063896  0.84999502  0.43580007  1
  Si  Si48  1  0.19295973  0.95563603  0.56514776  1
  Si  Si49  1  0.34682003  0.38420281  0.61571656  1
  Si  Si50  1  0.81071588  0.84448362  0.62913841  1
  Si  Si51  1  0.97108772  0.26208477  0.69801470  1
  Si  Si52  1  0.84318906  0.65712400  0.80465704  1
  Si  Si53  1  0.00890628  0.05558297  0.86718384  1
  Si  Si54  1  0.46128642  0.54588337  0.88282744  1
  Si  Si55  1  0.61506319  0.97504742  0.93575328  1
  P  P56  1  0.64281283  0.35088140  0.04101594  1
  P  P57  1  0.03152280  0.11386320  0.23865937  1
  P  P58  1  0.99258507  0.62330028  0.26002490  1
  P  P59  1  0.35454053  0.41843919  0.45877990  1
  P  P60  1  0.78327611  0.47386217  0.54108857  1
  P  P61  1  0.39303465  0.71134789  0.73853908  1
  P  P62  1  0.43163223  0.20187628  0.75996045  1
  P  P63  1  0.07090517  0.40639283  0.95861349  1
  O  O64  1  0.38602937  0.69642852  0.08389619  1
  O  O65  1  0.13530926  0.32253840  0.15941214  1
  O  O66  1  0.57578793  0.07504208  0.08171826  1
  O  O67  1  0.79293495  0.20655645  0.01658765  1
  O  O68  1  0.63813383  0.51645953  0.02960910  1
  O  O69  1  0.48301370  0.34661780  0.02549234  1
  O  O70  1  0.66846936  0.33213766  0.09120502  1
  O  O71  1  0.30163703  0.00503317  0.05754972  1
  O  O72  1  0.09317420  0.60941267  0.12695691  1
  O  O73  1  0.60240206  0.81233956  0.12055720  1
  O  O74  1  0.21707104  0.34528435  0.07635149  1
  O  O75  1  0.09726939  0.93238395  0.10751463  1
  O  O76  1  0.60143289  0.52207923  0.16147616  1
  O  O77  1  0.14847480  0.85540002  0.01989908  1
  O  O78  1  0.80042270  0.93798326  0.14559648  1
  O  O79  1  0.88847081  0.48577575  0.10158977  1
  O  O80  1  0.28897807  0.74074124  0.18758304  1
  O  O81  1  0.74533199  0.98942212  0.31365662  1
  O  O82  1  0.42756956  0.69531531  0.41767682  1
  O  O83  1  0.91897439  0.39660067  0.33956372  1
  O  O84  1  0.13360287  0.44551910  0.25373599  1
  O  O85  1  0.89263898  0.29309154  0.24425381  1
  O  O86  1  0.97979451  0.73316243  0.22029759  1
  O  O87  1  0.03914440  0.00682482  0.27832219  1
  O  O88  1  0.20732537  0.10193547  0.23306314  1
  O  O89  1  0.81918296  0.63226923  0.26681290  1
  O  O90  1  0.99308757  0.04523952  0.19600664  1
  O  O91  1  0.03424946  0.68839250  0.30293049  1
  O  O92  1  0.39573345  0.42121828  0.19224595  1
  O  O93  1  0.64346084  0.30742104  0.30893966  1
  O  O94  1  0.43460464  0.93371003  0.37507841  1
  O  O95  1  0.94429606  0.11537852  0.37246941  1
  O  O96  1  0.47961506  0.07875510  0.16883164  1
  O  O97  1  0.57262759  0.64380313  0.33640317  1
  O  O98  1  0.44531581  0.21101685  0.34491057  1
  O  O99  1  0.93757046  0.81288993  0.39363305  1
  O  O100  1  0.49361074  0.16506896  0.25853157  1
  O  O101  1  0.52949505  0.57110951  0.24603771  1
  O  O102  1  0.14523631  0.23080761  0.40494512  1
  O  O103  1  0.24244423  0.80372467  0.34469866  1
  O  O104  1  0.64744004  0.03506069  0.42748317  1
  O  O105  1  0.21109589  0.56539577  0.48217051  1
  O  O106  1  0.37074802  0.24981756  0.47392162  1
  O  O107  1  0.52303215  0.41767086  0.46684036  1
  O  O108  1  0.33131742  0.41448537  0.40828354  1
  O  O109  1  0.73904527  0.71651878  0.43383041  1
  O  O110  1  0.81663282  0.37429835  0.42099045  1
  O  O111  1  0.89392113  0.84402593  0.48432916  1
  O  O112  1  0.03895567  0.12886887  0.58389337  1
  O  O113  1  0.29020784  0.50262037  0.65969735  1
  O  O114  1  0.84770559  0.75118015  0.58129245  1
  O  O115  1  0.63305321  0.61828699  0.51671731  1
  O  O116  1  0.78744321  0.30856103  0.52957895  1
  O  O117  1  0.94315602  0.47781021  0.52551847  1
  O  O118  1  0.75775085  0.49224133  0.59126810  1
  O  O119  1  0.12324862  0.82039786  0.55760632  1
  O  O120  1  0.33193713  0.21605082  0.62694810  1
  O  O121  1  0.82200465  0.01281843  0.62035450  1
  O  O122  1  0.20700052  0.48119369  0.57679595  1
  O  O123  1  0.32819560  0.89328575  0.60717924  1
  O  O124  1  0.82347693  0.30242253  0.66148493  1
  O  O125  1  0.27547587  0.97015875  0.51957575  1
  O  O126  1  0.62445851  0.88702834  0.64561590  1
  O  O127  1  0.53620977  0.34013897  0.60163797  1
  O  O128  1  0.13591648  0.08432447  0.68745879  1
  O  O129  1  0.67960714  0.83577963  0.81361763  1
  O  O130  1  0.99758734  0.12935411  0.91742139  1
  O  O131  1  0.50610005  0.42795733  0.83942902  1
  O  O132  1  0.29055642  0.37957039  0.75366598  1
  O  O133  1  0.53223934  0.53215266  0.74401803  1
  O  O134  1  0.44468456  0.09183495  0.72025890  1
  O  O135  1  0.38637508  0.81812011  0.77814538  1
  O  O136  1  0.21712932  0.72326901  0.73321093  1
  O  O137  1  0.60488553  0.19323065  0.76671758  1
  O  O138  1  0.43059696  0.77997766  0.69574969  1
  O  O139  1  0.39020392  0.13676111  0.80290038  1
  O  O140  1  0.02905120  0.40373758  0.69217589  1
  O  O141  1  0.78111417  0.51757676  0.80885567  1
  O  O142  1  0.99033009  0.89082765  0.87486867  1
  O  O143  1  0.48076011  0.70929911  0.87229637  1
  O  O144  1  0.94555015  0.74580934  0.66843042  1
  O  O145  1  0.85262667  0.18054282  0.83609726  1
  O  O146  1  0.97961873  0.61344136  0.84474383  1
  O  O147  1  0.48768904  0.01151838  0.89370300  1
  O  O148  1  0.93076626  0.65987527  0.75837060  1
  O  O149  1  0.89526840  0.25367091  0.74595390  1
  O  O150  1  0.27998558  0.59356964  0.90473064  1
  O  O151  1  0.18277604  0.02047025  0.84452475  1
  O  O152  1  0.77827698  0.79003187  0.92749984  1
  O  O153  1  0.21433320  0.25932464  0.98197545  1
  O  O154  1  0.05489199  0.57491991  0.97372336  1
  O  O155  1  0.90235455  0.40733195  0.96673787  1
  O  O156  1  0.09371674  0.41023239  0.90810995  1
  O  O157  1  0.68605140  0.10894654  0.93353411  1
  O  O158  1  0.60887311  0.45047928  0.92075309  1
  O  O159  1  0.53222461  0.98144014  0.98441190  1
