# generated using pymatgen
data_Na3Zr2Si2PO12
_symmetry_space_group_name_H-M   'P 1'
_cell_length_a   9.13268800
_cell_length_b   9.27295607
_cell_length_c   30.37294269
_cell_angle_alpha   90.00000000
_cell_angle_beta   90.00000000
_cell_angle_gamma   61.42673606
_symmetry_Int_Tables_number   1
_chemical_formula_structural   Na3Zr2Si2PO12
_chemical_formula_sum   'Na24 Zr16 Si16 P8 O96'
_cell_volume   2258.91671441
_cell_formula_units_Z   8
loop_
 _symmetry_equiv_pos_site_id
 _symmetry_equiv_pos_as_xyz
  1  'x, y, z'
loop_
 _atom_site_type_symbol
 _atom_site_label
 _atom_site_symmetry_multiplicity
 _atom_site_fract_x
 _atom_site_fract_y
 _atom_site_fract_z
 _atom_site_occupancy
  Na  Na0  1  0.18999183  0.62350454  0.00603346  1
  Na  Na1  1  0.69903548  0.32352816  0.15666498  1
  Na  Na2  1  0.68540319  0.94367631  0.03348830  1
  Na  Na3  1  0.12256723  0.02324102  0.15422537  1
  Na  Na4  1  0.23423205  0.49148595  0.11219468  1
  Na  Na5  1  0.17138128  0.84113336  0.27396458  1
  Na  Na6  1  0.55040442  0.95629973  0.23013467  1
  Na  Na7  1  0.99932660  0.80102688  0.44114206  1
  Na  Na8  1  0.01084294  0.50117865  0.34743753  1
  Na  Na9  1  0.48610376  0.33877694  0.38773346  1
  Na  Na10  1  0.58875911  0.79382040  0.34558967  1
  Na  Na11  1  0.58826280  0.18324793  0.50385806  1
  Na  Na12  1  0.13500585  0.10120537  0.50607234  1
  Na  Na13  1  0.62628115  0.40132403  0.65667617  1
  Na  Na14  1  0.63978071  0.78124512  0.53350040  1
  Na  Na15  1  0.20250483  0.70167693  0.65422494  1
  Na  Na16  1  0.09042749  0.23374879  0.61235467  1
  Na  Na17  1  0.15360334  0.88259755  0.77391028  1
  Na  Na18  1  0.77399956  0.76935014  0.73013804  1
  Na  Na19  1  0.32579004  0.92438105  0.94104025  1
  Na  Na20  1  0.31426271  0.22456211  0.84713051  1
  Na  Na21  1  0.83913054  0.38654802  0.88759439  1
  Na  Na22  1  0.73606756  0.93180819  0.84559772  1
  Na  Na23  1  0.73622310  0.54171746  0.00371256  1
  Zr  Zr24  1  0.23348077  0.20300093  0.05014712  1
  Zr  Zr25  1  0.88639519  0.86189760  0.16170255  1
  Zr  Zr26  1  0.47411730  0.63396001  0.09661383  1
  Zr  Zr27  1  0.14965567  0.31036114  0.20978711  1
  Zr  Zr28  1  0.56482165  0.50941306  0.28947619  1
  Zr  Zr29  1  0.24321885  0.17933994  0.39781869  1
  Zr  Zr30  1  0.82461104  0.96213568  0.33967494  1
  Zr  Zr31  1  0.49237088  0.61725724  0.46235699  1
  Zr  Zr32  1  0.09131856  0.52150712  0.55017865  1
  Zr  Zr33  1  0.43868620  0.86301860  0.66165682  1
  Zr  Zr34  1  0.85086197  0.09084396  0.59667936  1
  Zr  Zr35  1  0.17532602  0.41469845  0.70978027  1
  Zr  Zr36  1  0.76009103  0.21584892  0.78933621  1
  Zr  Zr37  1  0.08171697  0.54591603  0.89759467  1
  Zr  Zr38  1  0.50051417  0.76297319  0.83958791  1
  Zr  Zr39  1  0.83279154  0.10756840  0.96217009  1
  Si  Si40  1  0.29273208  0.60770427  0.19523301  1
  Si  Si41  1  0.06438654  0.92526905  0.06415096  1
  Si  Si42  1  0.91081502  0.49632065  0.11702932  1
  Si  Si43  1  0.45869289  0.00617096  0.13273338  1
  Si  Si44  1  0.64326082  0.90571222  0.43480663  1
  Si  Si45  1  0.42071256  0.21310754  0.30204828  1
  Si  Si46  1  0.26086215  0.79512608  0.37082114  1
  Si  Si47  1  0.79694996  0.33448118  0.38448594  1
  Si  Si48  1  0.03261521  0.11686375  0.69533493  1
  Si  Si49  1  0.26022003  0.79932164  0.56415058  1
  Si  Si50  1  0.41418904  0.22886826  0.61715607  1
  Si  Si51  1  0.86633691  0.71838608  0.63271031  1
  Si  Si52  1  0.68200876  0.81901195  0.93474130  1
  Si  Si53  1  0.90390082  0.51254476  0.80189065  1
  Si  Si54  1  0.06402174  0.93007917  0.87070676  1
  Si  Si55  1  0.52816166  0.39054949  0.88419997  1
  P  P56  1  0.52009989  0.35685336  0.04114119  1
  P  P57  1  0.88156909  0.15240473  0.24004420  1
  P  P58  1  0.84269962  0.66204464  0.26141103  1
  P  P59  1  0.23397678  0.42406476  0.45912142  1
  P  P60  1  0.80459272  0.36784633  0.54120968  1
  P  P61  1  0.44373227  0.57256134  0.73994509  1
  P  P62  1  0.48217497  0.06341702  0.76136819  1
  P  P63  1  0.09165039  0.30095008  0.95888871  1
  O  O64  1  0.12914967  0.78642803  0.18631242  1
  O  O65  1  0.22755623  0.74029199  0.07248937  1
  O  O66  1  0.95579759  0.37843859  0.16045894  1
  O  O67  1  0.44698947  0.07982696  0.08246734  1
  O  O68  1  0.66361413  0.20988313  0.01776943  1
  O  O69  1  0.50387043  0.52545650  0.02601317  1
  O  O70  1  0.35168388  0.35744991  0.03306790  1
  O  O71  1  0.84002444  0.08719588  0.19713619  1
  O  O72  1  0.54309116  0.36082687  0.09166574  1
  O  O73  1  0.23029538  0.46844116  0.19099932  1
  O  O74  1  0.13559007  0.05903283  0.06625747  1
  O  O75  1  0.93005322  0.65993099  0.12755425  1
  O  O76  1  0.44060059  0.84111851  0.12502023  1
  O  O77  1  0.30240371  0.13092200  0.16387774  1
  O  O78  1  0.05847644  0.40081786  0.07911153  1
  O  O79  1  0.93721786  0.96208459  0.10627061  1
  O  O80  1  0.42903995  0.56405174  0.15509133  1
  O  O81  1  0.98124258  0.93125595  0.01558814  1
  O  O82  1  0.63237794  0.97170673  0.15537359  1
  O  O83  1  0.72965732  0.54399426  0.09501236  1
  O  O84  1  0.48911577  0.07888989  0.41608369  1
  O  O85  1  0.58571552  0.03534377  0.31254778  1
  O  O86  1  0.29911891  0.70033081  0.41846447  1
  O  O87  1  0.73910608  0.45315711  0.34052094  1
  O  O88  1  0.98148381  0.48280393  0.25579716  1
  O  O89  1  0.74037280  0.33004206  0.24635636  1
  O  O90  1  0.83549802  0.76902455  0.22177024  1
  O  O91  1  0.89471585  0.04250529  0.27980737  1
  O  O92  1  0.05484212  0.14370490  0.23327786  1
  O  O93  1  0.66683203  0.67402294  0.26692839  1
  O  O94  1  0.20854937  0.44210075  0.40891461  1
  O  O95  1  0.88106294  0.73051996  0.30411470  1
  O  O96  1  0.57362648  0.77051919  0.44259866  1
  O  O97  1  0.47808801  0.35518962  0.30799909  1
  O  O98  1  0.27132511  0.96366352  0.37990970  1
  O  O99  1  0.78230052  0.16620110  0.37314419  1
  O  O100  1  0.65801587  0.43058001  0.42359974  1
  O  O101  1  0.39503022  0.69778409  0.33129096  1
  O  O102  1  0.27304097  0.25315626  0.33855413  1
  O  O103  1  0.77821178  0.84313461  0.39269040  1
  O  O104  1  0.34501535  0.20499120  0.25403908  1
  O  O105  1  0.38058028  0.61046292  0.24148346  1
  O  O106  1  0.98630910  0.29101696  0.39840921  1
  O  O107  1  0.07448122  0.83723938  0.35453233  1
  O  O108  1  0.08342104  0.56863860  0.48336607  1
  O  O109  1  0.23846094  0.25873362  0.47076651  1
  O  O110  1  0.39366916  0.42836354  0.47465213  1
  O  O111  1  0.72618820  0.92041797  0.48029266  1
  O  O112  1  0.19611025  0.93821780  0.68631794  1
  O  O113  1  0.09692625  0.98434848  0.57242539  1
  O  O114  1  0.36936338  0.34665739  0.66058323  1
  O  O115  1  0.87767693  0.64460842  0.58247264  1
  O  O116  1  0.66065169  0.51509316  0.51805557  1
  O  O117  1  0.82046152  0.19942865  0.52610897  1
  O  O118  1  0.97286334  0.36737628  0.53291480  1
  O  O119  1  0.48522337  0.63777337  0.69703170  1
  O  O120  1  0.78266455  0.36350891  0.59177626  1
  O  O121  1  0.09506824  0.25614531  0.69113766  1
  O  O122  1  0.18897554  0.66569000  0.56634786  1
  O  O123  1  0.39515485  0.06513644  0.62763104  1
  O  O124  1  0.88372081  0.88377938  0.62498056  1
  O  O125  1  0.02305018  0.59360490  0.66373528  1
  O  O126  1  0.26638928  0.32415846  0.57925922  1
  O  O127  1  0.38751988  0.76294318  0.60620394  1
  O  O128  1  0.89631876  0.16049168  0.65519036  1
  O  O129  1  0.34320252  0.79347313  0.51555259  1
  O  O130  1  0.69275204  0.75287212  0.65542821  1
  O  O131  1  0.59514691  0.18161123  0.59508737  1
  O  O132  1  0.83591478  0.64567600  0.91605141  1
  O  O133  1  0.73925215  0.69042571  0.81245442  1
  O  O134  1  0.02675187  0.02384997  0.91849606  1
  O  O135  1  0.58526196  0.27211265  0.84023735  1
  O  O136  1  0.34323242  0.24273715  0.75593962  1
  O  O137  1  0.58478388  0.39477109  0.74612202  1
  O  O138  1  0.48891070  0.95678676  0.72169171  1
  O  O139  1  0.43110993  0.68219880  0.77971167  1
  O  O140  1  0.27024127  0.58164800  0.73325851  1
  O  O141  1  0.65819057  0.05122274  0.76674580  1
  O  O142  1  0.11726764  0.28236147  0.90869588  1
  O  O143  1  0.44440610  0.99459961  0.80410259  1
  O  O144  1  0.75193326  0.95412275  0.94240056  1
  O  O145  1  0.84587093  0.37093162  0.80772141  1
  O  O146  1  0.05246184  0.76191653  0.87950474  1
  O  O147  1  0.54317020  0.55875151  0.87305882  1
  O  O148  1  0.66747223  0.29369836  0.92321813  1
  O  O149  1  0.92956216  0.02844417  0.83134569  1
  O  O150  1  0.05171060  0.47166867  0.83840762  1
  O  O151  1  0.54692508  0.88168678  0.89265419  1
  O  O152  1  0.97962569  0.52084320  0.75391164  1
  O  O153  1  0.94495662  0.11403563  0.74158560  1
  O  O154  1  0.33856366  0.43461186  0.89807402  1
  O  O155  1  0.25045589  0.88727521  0.85426989  1
  O  O156  1  0.24180134  0.15657878  0.98329689  1
  O  O157  1  0.08751459  0.46629340  0.97033776  1
  O  O158  1  0.93178754  0.29697194  0.97443867  1
  O  O159  1  0.59898799  0.80468414  0.98026857  1
