# generated using pymatgen
data_Na3Zr2Si2PO12
_symmetry_space_group_name_H-M   'P 1'
_cell_length_a   9.13268800
_cell_length_b   9.27295607
_cell_length_c   30.37242862
_cell_angle_alpha   90.00000000
_cell_angle_beta   90.00000000
_cell_angle_gamma   61.42673606
_symmetry_Int_Tables_number   1
_chemical_formula_structural   Na3Zr2Si2PO12
_chemical_formula_sum   'Na24 Zr16 Si16 P8 O96'
_cell_volume   2258.87848194
_cell_formula_units_Z   8
loop_
 _symmetry_equiv_pos_site_id
 _symmetry_equiv_pos_as_xyz
  1  'x, y, z'
loop_
 _atom_site_type_symbol
 _atom_site_label
 _atom_site_symmetry_multiplicity
 _atom_site_fract_x
 _atom_site_fract_y
 _atom_site_fract_z
 _atom_site_occupancy
  Na  Na0  1  0.27380424  0.57909647  0.99634485  1
  Na  Na1  1  0.85200882  0.26210195  0.15282320  1
  Na  Na2  1  0.86332811  0.96188814  0.05903734  1
  Na  Na3  1  0.27382104  0.96912117  0.15440874  1
  Na  Na4  1  0.37686741  0.42386191  0.11237672  1
  Na  Na5  1  0.31197392  0.80712308  0.26983852  1
  Na  Na6  1  0.69147160  0.92057815  0.22612693  1
  Na  Na7  1  0.17703025  0.81894823  0.46644376  1
  Na  Na8  1  0.16405658  0.43915618  0.34324955  1
  Na  Na9  1  0.62827672  0.27092984  0.38770442  1
  Na  Na10  1  0.74027191  0.73904980  0.34579069  1
  Na  Na11  1  0.67209329  0.13905231  0.49391793  1
  Na  Na12  1  0.12598934  0.22081851  0.49592169  1
  Na  Na13  1  0.54835412  0.53861722  0.65259988  1
  Na  Na14  1  0.53685221  0.83839151  0.55883733  1
  Na  Na15  1  0.12627218  0.83107339  0.65430259  1
  Na  Na16  1  0.02355266  0.37605368  0.61224351  1
  Na  Na17  1  0.08757041  0.99347823  0.76992475  1
  Na  Na18  1  0.70905168  0.87888012  0.72603798  1
  Na  Na19  1  0.22270641  0.98113630  0.96661726  1
  Na  Na20  1  0.23623707  0.36098410  0.84336547  1
  Na  Na21  1  0.77167888  0.52898265  0.88783480  1
  Na  Na22  1  0.65968451  0.06094746  0.84584434  1
  Na  Na23  1  0.72787350  0.66099127  0.99407305  1
  Zr  Zr24  1  0.37032034  0.14505417  0.03786098  1
  Zr  Zr25  1  0.03815804  0.80045886  0.16042498  1
  Zr  Zr26  1  0.61933964  0.58342163  0.10239407  1
  Zr  Zr27  1  0.29769037  0.25335364  0.21065295  1
  Zr  Zr28  1  0.71296956  0.45221408  0.29023321  1
  Zr  Zr29  1  0.38837984  0.12861920  0.40329216  1
  Zr  Zr30  1  0.97618087  0.90072910  0.33826140  1
  Zr  Zr31  1  0.62890776  0.55948746  0.44973274  1
  Zr  Zr32  1  0.02996149  0.65475940  0.53763945  1
  Zr  Zr33  1  0.36201519  0.99950630  0.66029705  1
  Zr  Zr34  1  0.78052727  0.21671631  0.60214592  1
  Zr  Zr35  1  0.10220042  0.54670357  0.71053601  1
  Zr  Zr36  1  0.68714358  0.34777258  0.79026489  1
  Zr  Zr37  1  0.01159071  0.67138995  0.90344378  1
  Zr  Zr38  1  0.42373277  0.89940936  0.83834201  1
  Zr  Zr39  1  0.77084160  0.24054117  0.94987746  1
  Si  Si40  1  0.21969511  0.85641461  0.06530816  1
  Si  Si41  1  0.06573034  0.42817981  0.11581510  1
  Si  Si42  1  0.60164323  0.96758179  0.12932298  1
  Si  Si43  1  0.44152715  0.55005874  0.19811380  1
  Si  Si44  1  0.57001015  0.15451535  0.30466368  1
  Si  Si45  1  0.40375238  0.75624760  0.36726296  1
  Si  Si46  1  0.95171332  0.26636882  0.38286437  1
  Si  Si47  1  0.79793411  0.83731165  0.43575982  1
  Si  Si48  1  0.18069159  0.94336920  0.56511059  1
  Si  Si49  1  0.33438655  0.37185864  0.61551153  1
  Si  Si50  1  0.79828225  0.83236576  0.62917225  1
  Si  Si51  1  0.95804987  0.25026671  0.69795317  1
  Si  Si52  1  0.83024298  0.64522915  0.80478395  1
  Si  Si53  1  0.99607147  0.04372646  0.86736404  1
  Si  Si54  1  0.44829318  0.53368305  0.88297809  1
  Si  Si55  1  0.60177274  0.96273313  0.93591479  1
  P  P56  1  0.62916155  0.33841100  0.04109700  1
  P  P57  1  0.01975558  0.10086201  0.23859589  1
  P  P58  1  0.98129040  0.60992657  0.26001333  1
  P  P59  1  0.34221850  0.40570299  0.45871828  1
  P  P60  1  0.77167292  0.46137137  0.54082563  1
  P  P61  1  0.38001380  0.69940323  0.73864839  1
  P  P62  1  0.41895169  0.18972195  0.75995886  1
  P  P63  1  0.05752470  0.39428370  0.95890937  1
  O  O64  1  0.37353689  0.68308039  0.08400517  1
  O  O65  1  0.12271407  0.30979366  0.15979143  1
  O  O66  1  0.56422864  0.06156524  0.08156325  1
  O  O67  1  0.77929685  0.19396179  0.01670408  1
  O  O68  1  0.62492686  0.50375139  0.02961193  1
  O  O69  1  0.46926185  0.33438177  0.02560723  1
  O  O70  1  0.65490441  0.31985422  0.09128429  1
  O  O71  1  0.28963878  0.99142857  0.05765516  1
  O  O72  1  0.08075023  0.59637352  0.12689867  1
  O  O73  1  0.58999898  0.79948064  0.12042669  1
  O  O74  1  0.20500118  0.33118582  0.07679990  1
  O  O75  1  0.08459928  0.91919150  0.10739506  1
  O  O76  1  0.58925628  0.50933863  0.16158491  1
  O  O77  1  0.13650595  0.84199341  0.01982226  1
  O  O78  1  0.78802800  0.92485918  0.14574311  1
  O  O79  1  0.87617338  0.47216605  0.10189576  1
  O  O80  1  0.27676869  0.72790731  0.18758396  1
  O  O81  1  0.73344517  0.97579841  0.31365075  1
  O  O82  1  0.41506760  0.68253808  0.41750782  1
  O  O83  1  0.90699452  0.38407127  0.33941421  1
  O  O84  1  0.12238995  0.43212377  0.25390369  1
  O  O85  1  0.88093409  0.28020387  0.24408330  1
  O  O86  1  0.96859750  0.71945088  0.22021428  1
  O  O87  1  0.02644565  0.99422525  0.27825973  1
  O  O88  1  0.19583062  0.08851241  0.23321609  1
  O  O89  1  0.80787981  0.61890987  0.26671856  1
  O  O90  1  0.98174977  0.03219747  0.19587728  1
  O  O91  1  0.02268738  0.67543809  0.30288401  1
  O  O92  1  0.38349668  0.40841479  0.19225447  1
  O  O93  1  0.63253469  0.29371102  0.30885483  1
  O  O94  1  0.42140825  0.92149361  0.37500602  1
  O  O95  1  0.93253561  0.10273667  0.37237035  1
  O  O96  1  0.46718382  0.06575204  0.16871563  1
  O  O97  1  0.56046832  0.63134996  0.33624064  1
  O  O98  1  0.43358565  0.19833329  0.34478675  1
  O  O99  1  0.92545136  0.80068097  0.39375087  1
  O  O100  1  0.48233165  0.15152305  0.25842576  1
  O  O101  1  0.51733954  0.55839626  0.24607085  1
  O  O102  1  0.13265719  0.21896348  0.40497133  1
  O  O103  1  0.23022796  0.79075306  0.34450486  1
  O  O104  1  0.63474551  0.02237394  0.42742157  1
  O  O105  1  0.19845517  0.55278398  0.48197801  1
  O  O106  1  0.35839036  0.23714781  0.47384772  1
  O  O107  1  0.51054763  0.40516650  0.46690321  1
  O  O108  1  0.31969160  0.40152058  0.40818182  1
  O  O109  1  0.72656591  0.70368880  0.43349721  1
  O  O110  1  0.80386423  0.36191218  0.42072718  1
  O  O111  1  0.88071809  0.83117530  0.48439857  1
  O  O112  1  0.02644237  0.11631399  0.58389691  1
  O  O113  1  0.27669631  0.49034991  0.65950412  1
  O  O114  1  0.83669570  0.73754322  0.58152723  1
  O  O115  1  0.62141369  0.60615979  0.51655768  1
  O  O116  1  0.77571634  0.29622967  0.52920147  1
  O  O117  1  0.93155671  0.46535375  0.52535273  1
  O  O118  1  0.74606017  0.47944285  0.59104091  1
  O  O119  1  0.11125311  0.80800332  0.55737903  1
  O  O120  1  0.31975038  0.20351762  0.62678590  1
  O  O121  1  0.80847290  0.00105485  0.62006420  1
  O  O122  1  0.19536972  0.46825522  0.57642319  1
  O  O123  1  0.31577417  0.88065900  0.60721857  1
  O  O124  1  0.81026561  0.29034170  0.66146449  1
  O  O125  1  0.26346069  0.95819705  0.51960895  1
  O  O126  1  0.61198715  0.87438183  0.64551738  1
  O  O127  1  0.52365957  0.32849406  0.60149973  1
  O  O128  1  0.12309607  0.07263414  0.68738258  1
  O  O129  1  0.66656258  0.82388700  0.81372666  1
  O  O130  1  0.98448225  0.11743444  0.91762126  1
  O  O131  1  0.49328733  0.41569611  0.83956270  1
  O  O132  1  0.27763449  0.36728183  0.75364450  1
  O  O133  1  0.51895302  0.52022382  0.74428032  1
  O  O134  1  0.43216552  0.07973306  0.72019738  1
  O  O135  1  0.37269902  0.80650065  0.77827549  1
  O  O136  1  0.20422078  0.71116522  0.73315507  1
  O  O137  1  0.59215942  0.18115251  0.76673025  1
  O  O138  1  0.41807453  0.76795956  0.69590435  1
  O  O139  1  0.37744306  0.12457511  0.80288636  1
  O  O140  1  0.01537079  0.39244836  0.69205709  1
  O  O141  1  0.76796171  0.50582210  0.80902180  1
  O  O142  1  0.97803145  0.87867553  0.87512569  1
  O  O143  1  0.46725129  0.69742433  0.87243196  1
  O  O144  1  0.93263830  0.73505102  0.66867931  1
  O  O145  1  0.83971403  0.16849017  0.83623673  1
  O  O146  1  0.96654393  0.60175696  0.84491510  1
  O  O147  1  0.47458704  0.99952769  0.89380139  1
  O  O148  1  0.91787354  0.64814981  0.75850370  1
  O  O149  1  0.88236984  0.24205454  0.74596734  1
  O  O150  1  0.26713177  0.58128871  0.90498728  1
  O  O151  1  0.16970452  0.00922177  0.84467504  1
  O  O152  1  0.76502984  0.77776309  0.92758849  1
  O  O153  1  0.20115534  0.24737673  0.98227362  1
  O  O154  1  0.04143323  0.56287977  0.97401097  1
  O  O155  1  0.88914374  0.39488218  0.96702786  1
  O  O156  1  0.08015814  0.39830088  0.90836851  1
  O  O157  1  0.67288366  0.09657200  0.93377122  1
  O  O158  1  0.59592311  0.43839704  0.92090460  1
  O  O159  1  0.51875859  0.96872458  0.98450226  1
