# generated using pymatgen
data_Na3Zr2Si2PO12
_symmetry_space_group_name_H-M   'P 1'
_cell_length_a   9.13268800
_cell_length_b   9.27295607
_cell_length_c   30.37319471
_cell_angle_alpha   90.00000000
_cell_angle_beta   90.00000000
_cell_angle_gamma   61.42673606
_symmetry_Int_Tables_number   1
_chemical_formula_structural   Na3Zr2Si2PO12
_chemical_formula_sum   'Na24 Zr16 Si16 P8 O96'
_cell_volume   2258.93545817
_cell_formula_units_Z   8
loop_
 _symmetry_equiv_pos_site_id
 _symmetry_equiv_pos_as_xyz
  1  'x, y, z'
loop_
 _atom_site_type_symbol
 _atom_site_label
 _atom_site_symmetry_multiplicity
 _atom_site_fract_x
 _atom_site_fract_y
 _atom_site_fract_z
 _atom_site_occupancy
  Na  Na0  1  0.31122721  0.61693687  0.99637980  1
  Na  Na1  1  0.90116201  0.99982776  0.05907499  1
  Na  Na2  1  0.41439058  0.46165110  0.11237870  1
  Na  Na3  1  0.34976908  0.84427979  0.26986983  1
  Na  Na4  1  0.72960383  0.95921701  0.22605545  1
  Na  Na5  1  0.88977500  0.29966879  0.15289434  1
  Na  Na6  1  0.20146649  0.47624414  0.34317546  1
  Na  Na7  1  0.31198070  0.00632944  0.15437772  1
  Na  Na8  1  0.77762993  0.77670338  0.34574173  1
  Na  Na9  1  0.70916902  0.17618950  0.49402836  1
  Na  Na10  1  0.21456673  0.85613334  0.46637979  1
  Na  Na11  1  0.66622252  0.30752043  0.38784967  1
  Na  Na12  1  0.16329572  0.25792530  0.49594372  1
  Na  Na13  1  0.57432371  0.87514698  0.55892662  1
  Na  Na14  1  0.06097192  0.41344622  0.61223312  1
  Na  Na15  1  0.12497523  0.03088415  0.76997932  1
  Na  Na16  1  0.74661466  0.91609566  0.72601512  1
  Na  Na17  1  0.58568867  0.57579926  0.65259241  1
  Na  Na18  1  0.27395520  0.39830421  0.84348405  1
  Na  Na19  1  0.16356369  0.86850774  0.65430024  1
  Na  Na20  1  0.69714523  0.09861337  0.84580133  1
  Na  Na21  1  0.76509377  0.69909473  0.99408759  1
  Na  Na22  1  0.26067909  0.01886386  0.96649047  1
  Na  Na23  1  0.80892114  0.56694652  0.88783585  1
  Zr  Zr24  1  0.40797408  0.18291811  0.03787924  1
  Zr  Zr25  1  0.65706945  0.62107063  0.10239572  1
  Zr  Zr26  1  0.33515357  0.29095928  0.21063229  1
  Zr  Zr27  1  0.75033496  0.48974085  0.29023299  1
  Zr  Zr28  1  0.07581352  0.83818259  0.16042141  1
  Zr  Zr29  1  0.01374615  0.93783869  0.33828052  1
  Zr  Zr30  1  0.66633345  0.59656287  0.44972978  1
  Zr  Zr31  1  0.42569435  0.16594203  0.40331619  1
  Zr  Zr32  1  0.06732358  0.69193762  0.53762644  1
  Zr  Zr33  1  0.81796048  0.25400389  0.60219141  1
  Zr  Zr34  1  0.13976967  0.58412827  0.71052108  1
  Zr  Zr35  1  0.72473122  0.38539289  0.79026645  1
  Zr  Zr36  1  0.39936892  0.03681226  0.66031677  1
  Zr  Zr37  1  0.46114113  0.93713533  0.83829220  1
  Zr  Zr38  1  0.80836644  0.27839490  0.94990315  1
  Zr  Zr39  1  0.04905643  0.70907432  0.90345169  1
  Si  Si40  1  0.25744965  0.89443189  0.06534710  1
  Si  Si41  1  0.10327399  0.46591724  0.11580132  1
  Si  Si42  1  0.63935893  0.00526028  0.12930577  1
  Si  Si43  1  0.47906369  0.58750131  0.19802946  1
  Si  Si44  1  0.60744793  0.19230684  0.30471356  1
  Si  Si45  1  0.44131733  0.79357471  0.36723541  1
  Si  Si46  1  0.98911880  0.30361955  0.38282124  1
  Si  Si47  1  0.83525628  0.87447625  0.43577497  1
  Si  Si48  1  0.21798845  0.98055106  0.56509499  1
  Si  Si49  1  0.37186133  0.40913515  0.61553447  1
  Si  Si50  1  0.83560228  0.86957669  0.62913493  1
  Si  Si51  1  0.99554546  0.28774988  0.69797759  1
  Si  Si52  1  0.86779105  0.68287628  0.80477680  1
  Si  Si53  1  0.03342006  0.08153994  0.86743699  1
  Si  Si54  1  0.48581536  0.57129574  0.88293718  1
  Si  Si55  1  0.63929503  0.00060671  0.93585986  1
  P  P56  1  0.66685839  0.37608900  0.04111477  1
  P  P57  1  0.05734393  0.13816875  0.23865438  1
  P  P58  1  0.01863656  0.64742340  0.25998427  1
  P  P59  1  0.37948268  0.44298127  0.45869572  1
  P  P60  1  0.80887419  0.49855967  0.54081455  1
  P  P61  1  0.41751306  0.73690441  0.73863358  1
  P  P62  1  0.45673929  0.22718759  0.75991991  1
  P  P63  1  0.09484052  0.43216532  0.95894196  1
  O  O64  1  0.41115898  0.72107573  0.08409433  1
  O  O65  1  0.60201902  0.09919580  0.08153147  1
  O  O66  1  0.81713296  0.23179382  0.01673871  1
  O  O67  1  0.66238840  0.54156156  0.02964880  1
  O  O68  1  0.50703190  0.37205257  0.02555566  1
  O  O69  1  0.69249558  0.35750201  0.09129839  1
  O  O70  1  0.32728130  0.02954608  0.05781900  1
  O  O71  1  0.11818152  0.63409049  0.12693295  1
  O  O72  1  0.62806142  0.83701940  0.12041060  1
  O  O73  1  0.24277815  0.36907426  0.07682127  1
  O  O74  1  0.12215886  0.95715663  0.10740607  1
  O  O75  1  0.62700357  0.54679670  0.16157064  1
  O  O76  1  0.17479021  0.87995188  0.01978759  1
  O  O77  1  0.82567514  0.96263520  0.14576283  1
  O  O78  1  0.91382208  0.50986928  0.10179542  1
  O  O79  1  0.31446614  0.76551042  0.18752044  1
  O  O80  1  0.77097167  0.01351484  0.31361600  1
  O  O81  1  0.16019951  0.34740522  0.15976237  1
  O  O82  1  0.94436824  0.42151040  0.33941336  1
  O  O83  1  0.15981717  0.46960145  0.25389214  1
  O  O84  1  0.91829373  0.31742384  0.24415308  1
  O  O85  1  0.00628444  0.75695924  0.22023138  1
  O  O86  1  0.06429699  0.03136875  0.27830400  1
  O  O87  1  0.23328527  0.12608042  0.23320428  1
  O  O88  1  0.84526988  0.65635826  0.26666170  1
  O  O89  1  0.01918418  0.06953815  0.19595267  1
  O  O90  1  0.05987179  0.71282723  0.30290855  1
  O  O91  1  0.42076651  0.44610379  0.19211611  1
  O  O92  1  0.66966456  0.33165408  0.30906158  1
  O  O93  1  0.45881234  0.95883060  0.37505067  1
  O  O94  1  0.96994187  0.14001125  0.37234061  1
  O  O95  1  0.50473700  0.10347887  0.16866178  1
  O  O96  1  0.59791763  0.66924599  0.33612010  1
  O  O97  1  0.47101794  0.23548918  0.34479826  1
  O  O98  1  0.96281057  0.83787878  0.39376167  1
  O  O99  1  0.51994086  0.18969119  0.25840383  1
  O  O100  1  0.55480996  0.59554221  0.24602526  1
  O  O101  1  0.17009062  0.25609897  0.40492980  1
  O  O102  1  0.26772352  0.82797884  0.34453155  1
  O  O103  1  0.67216258  0.05965746  0.42746874  1
  O  O104  1  0.45273156  0.71951684  0.41743942  1
  O  O105  1  0.23589083  0.59016002  0.48197075  1
  O  O106  1  0.39552076  0.27449827  0.47385955  1
  O  O107  1  0.54796280  0.44218674  0.46686026  1
  O  O108  1  0.35686109  0.43884657  0.40817118  1
  O  O109  1  0.76381446  0.74094381  0.43351735  1
  O  O110  1  0.84134109  0.39911909  0.42070767  1
  O  O111  1  0.91808971  0.86825330  0.48440643  1
  O  O112  1  0.06380867  0.15357282  0.58388230  1
  O  O113  1  0.87405704  0.77466556  0.58151013  1
  O  O114  1  0.65849914  0.64324886  0.51655472  1
  O  O115  1  0.81297219  0.33336390  0.52923805  1
  O  O116  1  0.96864050  0.50268425  0.52528180  1
  O  O117  1  0.78344597  0.51671354  0.59103108  1
  O  O118  1  0.14852450  0.84521695  0.55738346  1
  O  O119  1  0.35708684  0.24088413  0.62683038  1
  O  O120  1  0.84572811  0.03834820  0.62004629  1
  O  O121  1  0.23281747  0.50555686  0.57645729  1
  O  O122  1  0.35301188  0.91797902  0.60722905  1
  O  O123  1  0.84777766  0.32772041  0.66149905  1
  O  O124  1  0.30091027  0.99527265  0.51960965  1
  O  O125  1  0.64930604  0.91151863  0.64544668  1
  O  O126  1  0.56112047  0.36566456  0.60150134  1
  O  O127  1  0.16054839  0.11002106  0.68743647  1
  O  O128  1  0.70408702  0.86148986  0.81370614  1
  O  O129  1  0.31438257  0.52764920  0.65952519  1
  O  O130  1  0.53078080  0.45323758  0.83953857  1
  O  O131  1  0.31548258  0.40471722  0.75352995  1
  O  O132  1  0.55649626  0.55775964  0.74427353  1
  O  O133  1  0.46985164  0.11694807  0.72022595  1
  O  O134  1  0.41026273  0.84409046  0.77823576  1
  O  O135  1  0.24166145  0.74876457  0.73316664  1
  O  O136  1  0.62993037  0.21870360  0.76667107  1
  O  O137  1  0.45558350  0.80526849  0.69586678  1
  O  O138  1  0.41523905  0.16223869  0.80288767  1
  O  O139  1  0.05298716  0.42981957  0.69204487  1
  O  O140  1  0.80567427  0.54333130  0.80903644  1
  O  O141  1  0.01534063  0.91654988  0.87522606  1
  O  O142  1  0.50481590  0.73499435  0.87234255  1
  O  O143  1  0.97008054  0.77229062  0.66862585  1
  O  O144  1  0.87709869  0.20617566  0.83627220  1
  O  O145  1  0.00404250  0.63945376  0.84492571  1
  O  O146  1  0.51206358  0.03733015  0.89374935  1
  O  O147  1  0.95556205  0.68560877  0.75851132  1
  O  O148  1  0.91999044  0.27968138  0.74600800  1
  O  O149  1  0.30462813  0.61888790  0.90496157  1
  O  O150  1  0.20714774  0.04679383  0.84473418  1
  O  O151  1  0.80241231  0.81548824  0.92755509  1
  O  O152  1  0.02202832  0.15538930  0.91766145  1
  O  O153  1  0.23852358  0.28525720  0.98228563  1
  O  O154  1  0.07877092  0.60075140  0.97403296  1
  O  O155  1  0.92645313  0.43279506  0.96707988  1
  O  O156  1  0.11740418  0.43616446  0.90839405  1
  O  O157  1  0.71059062  0.13425749  0.93376665  1
  O  O158  1  0.63337443  0.47607059  0.92089129  1
  O  O159  1  0.55617865  0.00668182  0.98443985  1
