# generated using pymatgen
data_Na3Zr2Si2PO12
_symmetry_space_group_name_H-M   'P 1'
_cell_length_a   9.13268800
_cell_length_b   9.27295607
_cell_length_c   30.38323063
_cell_angle_alpha   90.00000000
_cell_angle_beta   90.00000000
_cell_angle_gamma   61.42673606
_symmetry_Int_Tables_number   1
_chemical_formula_structural   Na3Zr2Si2PO12
_chemical_formula_sum   'Na24 Zr16 Si16 P8 O96'
_cell_volume   2259.68185632
_cell_formula_units_Z   8
loop_
 _symmetry_equiv_pos_site_id
 _symmetry_equiv_pos_as_xyz
  1  'x, y, z'
loop_
 _atom_site_type_symbol
 _atom_site_label
 _atom_site_symmetry_multiplicity
 _atom_site_fract_x
 _atom_site_fract_y
 _atom_site_fract_z
 _atom_site_occupancy
  Na  Na0  1  0.32262919  0.62921650  0.99709332  1
  Na  Na1  1  0.91306434  0.01320310  0.05944607  1
  Na  Na2  1  0.42830595  0.47229090  0.11245886  1
  Na  Na3  1  0.36177225  0.85678578  0.26990406  1
  Na  Na4  1  0.74104048  0.97195295  0.22623485  1
  Na  Na5  1  0.90294145  0.31266371  0.15284727  1
  Na  Na6  1  0.21277489  0.48881606  0.34338259  1
  Na  Na7  1  0.32448340  0.01869116  0.15458740  1
  Na  Na8  1  0.78949660  0.78975251  0.34584685  1
  Na  Na9  1  0.72213442  0.18906530  0.49393929  1
  Na  Na10  1  0.22676255  0.86895879  0.46646829  1
  Na  Na11  1  0.67760916  0.32191256  0.38780177  1
  Na  Na12  1  0.17561173  0.27107037  0.49608950  1
  Na  Na13  1  0.58665221  0.88800240  0.55905119  1
  Na  Na14  1  0.07305833  0.42578050  0.61224410  1
  Na  Na15  1  0.13793096  0.04297080  0.76978087  1
  Na  Na16  1  0.75860845  0.92816122  0.72604800  1
  Na  Na17  1  0.59790670  0.58678440  0.65306694  1
  Na  Na18  1  0.28701364  0.41074624  0.84325372  1
  Na  Na19  1  0.17651933  0.88032793  0.65422776  1
  Na  Na20  1  0.71039593  0.11009059  0.84561469  1
  Na  Na21  1  0.77883634  0.71076230  0.99390899  1
  Na  Na22  1  0.27260394  0.03093441  0.96657722  1
  Na  Na23  1  0.82205628  0.57864262  0.88769001  1
  Zr  Zr24  1  0.42061771  0.19526462  0.03771644  1
  Zr  Zr25  1  0.66953089  0.63373185  0.10230583  1
  Zr  Zr26  1  0.34717369  0.30381230  0.21065506  1
  Zr  Zr27  1  0.76231237  0.50245246  0.29031676  1
  Zr  Zr28  1  0.08801584  0.85089269  0.16051055  1
  Zr  Zr29  1  0.02592145  0.95087627  0.33834484  1
  Zr  Zr30  1  0.67901915  0.60977479  0.44983432  1
  Zr  Zr31  1  0.43840079  0.17860242  0.40348768  1
  Zr  Zr32  1  0.07953615  0.70490480  0.53779303  1
  Zr  Zr33  1  0.83033479  0.26664461  0.60222615  1
  Zr  Zr34  1  0.15234779  0.59647133  0.71051616  1
  Zr  Zr35  1  0.73727895  0.39727887  0.79008313  1
  Zr  Zr36  1  0.41170653  0.04933913  0.66032587  1
  Zr  Zr37  1  0.47415623  0.94904361  0.83821626  1
  Zr  Zr38  1  0.82124381  0.29038864  0.94967551  1
  Zr  Zr39  1  0.06205491  0.72092070  0.90320721  1
  Si  Si40  1  0.26962145  0.90710198  0.06539725  1
  Si  Si41  1  0.11598891  0.47877165  0.11556547  1
  Si  Si42  1  0.65137484  0.01795503  0.12944134  1
  Si  Si43  1  0.49149205  0.59998230  0.19802015  1
  Si  Si44  1  0.61914466  0.20501726  0.30483324  1
  Si  Si45  1  0.45384348  0.80663423  0.36735659  1
  Si  Si46  1  0.00149735  0.31615935  0.38295642  1
  Si  Si47  1  0.84832174  0.88737648  0.43583495  1
  Si  Si48  1  0.23023391  0.99348447  0.56509227  1
  Si  Si49  1  0.38406644  0.42182694  0.61572105  1
  Si  Si50  1  0.84810362  0.88259637  0.62924443  1
  Si  Si51  1  0.00831497  0.30001542  0.69790669  1
  Si  Si52  1  0.88041064  0.69465375  0.80464082  1
  Si  Si53  1  0.04625387  0.09315713  0.86710063  1
  Si  Si54  1  0.49867985  0.58353649  0.88277208  1
  Si  Si55  1  0.65243237  0.01258421  0.93573583  1
  P  P56  1  0.68040853  0.38821552  0.04099869  1
  P  P57  1  0.06919012  0.15108163  0.23867589  1
  P  P58  1  0.03057309  0.66062762  0.26011183  1
  P  P59  1  0.39204625  0.45578256  0.45879648  1
  P  P60  1  0.82040948  0.51175244  0.54102497  1
  P  P61  1  0.43025741  0.74898308  0.73853554  1
  P  P62  1  0.46895756  0.23939283  0.75991557  1
  P  P63  1  0.10834613  0.44389983  0.95861543  1
  O  O64  1  0.42375494  0.73354931  0.08393715  1
  O  O65  1  0.61323259  0.11256349  0.08178833  1
  O  O66  1  0.83042715  0.24387325  0.01654774  1
  O  O67  1  0.67598146  0.55369957  0.02961265  1
  O  O68  1  0.52050564  0.38414036  0.02548247  1
  O  O69  1  0.70620920  0.36933112  0.09117514  1
  O  O70  1  0.33954426  0.04212838  0.05763205  1
  O  O71  1  0.13103089  0.64671332  0.12702363  1
  O  O72  1  0.63989227  0.84975751  0.12056844  1
  O  O73  1  0.25493323  0.38257734  0.07641019  1
  O  O74  1  0.13502100  0.96979655  0.10759929  1
  O  O75  1  0.18612596  0.89265727  0.01999433  1
  O  O76  1  0.92636016  0.52298866  0.10164043  1
  O  O77  1  0.32667493  0.77795010  0.18762599  1
  O  O78  1  0.78299784  0.02647023  0.31372577  1
  O  O79  1  0.17311172  0.35989985  0.15947888  1
  O  O80  1  0.95654948  0.43396446  0.33953126  1
  O  O81  1  0.17173010  0.48292117  0.25379862  1
  O  O82  1  0.93017056  0.33024477  0.24424842  1
  O  O83  1  0.01760776  0.77044686  0.22036310  1
  O  O84  1  0.07680544  0.04406695  0.27833128  1
  O  O85  1  0.24494026  0.13931106  0.23309432  1
  O  O86  1  0.85725504  0.66939803  0.26688330  1
  O  O87  1  0.03086854  0.08235025  0.19603547  1
  O  O88  1  0.07217797  0.72574506  0.30300632  1
  O  O89  1  0.43369411  0.45822331  0.19216575  1
  O  O90  1  0.68125013  0.34455278  0.30896285  1
  O  O91  1  0.47270929  0.97115360  0.37511636  1
  O  O92  1  0.98159446  0.15292110  0.37249852  1
  O  O93  1  0.51725935  0.11594372  0.16890375  1
  O  O94  1  0.61003660  0.68157699  0.33624241  1
  O  O95  1  0.48312743  0.24861083  0.34500396  1
  O  O96  1  0.63916085  0.55945730  0.16146355  1
  O  O97  1  0.53122798  0.20224631  0.25861715  1
  O  O98  1  0.56723839  0.60817942  0.24600247  1
  O  O99  1  0.83807508  0.97522816  0.14558705  1
  O  O100  1  0.27996867  0.84191119  0.34468737  1
  O  O101  1  0.68511982  0.07242626  0.42753480  1
  O  O102  1  0.46532159  0.73271382  0.41756419  1
  O  O103  1  0.24874690  0.60258260  0.48225820  1
  O  O104  1  0.40843403  0.28705138  0.47390642  1
  O  O105  1  0.56059021  0.45502138  0.46677647  1
  O  O106  1  0.36842594  0.45199141  0.40831980  1
  O  O107  1  0.77700969  0.75369712  0.43374187  1
  O  O108  1  0.85420718  0.41196454  0.42092785  1
  O  O109  1  0.97556502  0.85042998  0.39375662  1
  O  O110  1  0.93141854  0.88139039  0.48439552  1
  O  O111  1  0.18287489  0.26799023  0.40491015  1
  O  O112  1  0.07609152  0.16659210  0.58382840  1
  O  O113  1  0.88559815  0.78872982  0.58146686  1
  O  O114  1  0.67019653  0.65618850  0.51664844  1
  O  O115  1  0.82457854  0.34646085  0.52953315  1
  O  O116  1  0.98032007  0.51565303  0.52546302  1
  O  O117  1  0.79480165  0.53031214  0.59119088  1
  O  O118  1  0.16086262  0.85797121  0.55758199  1
  O  O119  1  0.36917858  0.25372947  0.62697028  1
  O  O120  1  0.85927495  0.05087681  0.62035064  1
  O  O121  1  0.24452983  0.51861576  0.57674345  1
  O  O122  1  0.36532599  0.93116636  0.60717183  1
  O  O123  1  0.31279179  0.00814022  0.51955406  1
  O  O124  1  0.57348151  0.37786138  0.60167869  1
  O  O125  1  0.17303147  0.12214406  0.68738013  1
  O  O126  1  0.71693467  0.87339632  0.81358585  1
  O  O127  1  0.32732649  0.54047203  0.65965296  1
  O  O128  1  0.54368167  0.46561023  0.83938161  1
  O  O129  1  0.32795984  0.41706613  0.75356401  1
  O  O130  1  0.56935444  0.56970208  0.74397041  1
  O  O131  1  0.48179965  0.12922589  0.72027987  1
  O  O132  1  0.42360629  0.85557995  0.77817790  1
  O  O133  1  0.25432357  0.76099650  0.73319086  1
  O  O134  1  0.64231787  0.23056524  0.76659598  1
  O  O135  1  0.46790695  0.81774646  0.69578435  1
  O  O136  1  0.42764019  0.17444545  0.80289566  1
  O  O137  1  0.06630593  0.44164641  0.69205416  1
  O  O138  1  0.81812998  0.55526476  0.80882974  1
  O  O139  1  0.02792387  0.92831483  0.87485176  1
  O  O140  1  0.51816228  0.74698841  0.87230741  1
  O  O141  1  0.98268733  0.78437004  0.66861278  1
  O  O142  1  0.89020443  0.21769493  0.83588138  1
  O  O143  1  0.01668453  0.65091215  0.84476831  1
  O  O144  1  0.86056546  0.34065315  0.66140607  1
  O  O145  1  0.96811968  0.69744105  0.75839922  1
  O  O146  1  0.93244340  0.29161273  0.74583165  1
  O  O147  1  0.66177984  0.92501788  0.64561106  1
  O  O148  1  0.22024165  0.05812052  0.84452885  1
  O  O149  1  0.81563432  0.82759393  0.92745145  1
  O  O150  1  0.03466402  0.16714992  0.91730969  1
  O  O151  1  0.25164059  0.29711785  0.98210994  1
  O  O152  1  0.09203073  0.61258369  0.97368832  1
  O  O153  1  0.93978955  0.44479049  0.96666459  1
  O  O154  1  0.13171337  0.44744986  0.90813773  1
  O  O155  1  0.72343605  0.14644318  0.93354470  1
  O  O156  1  0.64611344  0.48804452  0.92071820  1
  O  O157  1  0.52512313  0.04901971  0.89368329  1
  O  O158  1  0.56959810  0.01891262  0.98439085  1
  O  O159  1  0.31730069  0.63122991  0.90462793  1
