# generated using pymatgen
data_Na3Zr2Si2PO12
_symmetry_space_group_name_H-M   'P 1'
_cell_length_a   9.13268800
_cell_length_b   9.27295607
_cell_length_c   30.37064320
_cell_angle_alpha   90.00000000
_cell_angle_beta   90.00000000
_cell_angle_gamma   61.42673606
_symmetry_Int_Tables_number   1
_chemical_formula_structural   Na3Zr2Si2PO12
_chemical_formula_sum   'Na24 Zr16 Si16 P8 O96'
_cell_volume   2258.74569509
_cell_formula_units_Z   8
loop_
 _symmetry_equiv_pos_site_id
 _symmetry_equiv_pos_as_xyz
  1  'x, y, z'
loop_
 _atom_site_type_symbol
 _atom_site_label
 _atom_site_symmetry_multiplicity
 _atom_site_fract_x
 _atom_site_fract_y
 _atom_site_fract_z
 _atom_site_occupancy
  Na  Na0  1  0.25122950  0.56563672  0.99578827  1
  Na  Na1  1  0.82775151  0.24914279  0.15280764  1
  Na  Na2  1  0.83999523  0.94718655  0.05866441  1
  Na  Na3  1  0.24928709  0.95623854  0.15428506  1
  Na  Na4  1  0.35216017  0.41182032  0.11221880  1
  Na  Na5  1  0.28740315  0.79348221  0.26986152  1
  Na  Na6  1  0.66669642  0.90837294  0.22603951  1
  Na  Na7  1  0.15185005  0.80649396  0.46652287  1
  Na  Na8  1  0.13813446  0.42594171  0.34312508  1
  Na  Na9  1  0.60252964  0.25864103  0.38784313  1
  Na  Na10  1  0.71437075  0.72700764  0.34569314  1
  Na  Na11  1  0.64622802  0.12639637  0.49398674  1
  Na  Na12  1  0.09967803  0.20879816  0.49597958  1
  Na  Na13  1  0.52252562  0.52641724  0.65269556  1
  Na  Na14  1  0.51066686  0.82556428  0.55890593  1
  Na  Na15  1  0.10056103  0.81874297  0.65440530  1
  Na  Na16  1  0.99756453  0.36350925  0.61233769  1
  Na  Na17  1  0.06246637  0.98095240  0.76996875  1
  Na  Na18  1  0.68394148  0.86678830  0.72598670  1
  Na  Na19  1  0.19851109  0.96874115  0.96640463  1
  Na  Na20  1  0.21210085  0.34921606  0.84332616  1
  Na  Na21  1  0.74748865  0.51624691  0.88776764  1
  Na  Na22  1  0.63549715  0.04823193  0.84579094  1
  Na  Na23  1  0.70244841  0.64857959  0.99388331  1
  Zr  Zr24  1  0.34627088  0.13213027  0.03781883  1
  Zr  Zr25  1  0.01376721  0.78768096  0.16034542  1
  Zr  Zr26  1  0.59550693  0.57007739  0.10231873  1
  Zr  Zr27  1  0.27314064  0.24059860  0.21051570  1
  Zr  Zr28  1  0.68828443  0.43927723  0.29023468  1
  Zr  Zr29  1  0.36280879  0.11583109  0.40321892  1
  Zr  Zr30  1  0.95103891  0.88771222  0.33825925  1
  Zr  Zr31  1  0.60367592  0.54659109  0.44976399  1
  Zr  Zr32  1  0.00383478  0.64278787  0.53766599  1
  Zr  Zr33  1  0.33635056  0.98742569  0.66040617  1
  Zr  Zr34  1  0.75441707  0.20466959  0.60238085  1
  Zr  Zr35  1  0.07697261  0.53455396  0.71058006  1
  Zr  Zr36  1  0.66190451  0.33605492  0.79040846  1
  Zr  Zr37  1  0.98678843  0.65943423  0.90348640  1
  Zr  Zr38  1  0.39880045  0.88743652  0.83827057  1
  Zr  Zr39  1  0.74625100  0.22840561  0.94994727  1
  Si  Si40  1  0.41735428  0.53681689  0.19798485  1
  Si  Si41  1  0.19587743  0.84326031  0.06507258  1
  Si  Si42  1  0.04140110  0.41517351  0.11572428  1
  Si  Si43  1  0.57767657  0.95434875  0.12921674  1
  Si  Si44  1  0.77232893  0.82472129  0.43575562  1
  Si  Si45  1  0.54494883  0.14223684  0.30468815  1
  Si  Si46  1  0.37873297  0.74319082  0.36722205  1
  Si  Si47  1  0.92645973  0.25330863  0.38295641  1
  Si  Si48  1  0.93257579  0.23817225  0.69812743  1
  Si  Si49  1  0.15411200  0.93161160  0.56530947  1
  Si  Si50  1  0.30832411  0.36018191  0.61566943  1
  Si  Si51  1  0.77245180  0.82022769  0.62916690  1
  Si  Si52  1  0.57699051  0.95082016  0.93580003  1
  Si  Si53  1  0.80555613  0.63331977  0.80478729  1
  Si  Si54  1  0.97102210  0.03167737  0.86737906  1
  Si  Si55  1  0.42344875  0.52229147  0.88320110  1
  P  P56  1  0.60555097  0.32461297  0.04114000  1
  P  P57  1  0.99556376  0.08756826  0.23859858  1
  P  P58  1  0.95633750  0.59738720  0.25994922  1
  P  P59  1  0.31631561  0.39307904  0.45862183  1
  P  P60  1  0.74452576  0.44923393  0.54096599  1
  P  P61  1  0.35487004  0.68729065  0.73866247  1
  P  P62  1  0.39406058  0.17776521  0.75998903  1
  P  P63  1  0.03343857  0.38205091  0.95884148  1
  O  O64  1  0.25266854  0.71477703  0.18743605  1
  O  O65  1  0.34992595  0.67002697  0.08382437  1
  O  O66  1  0.09763936  0.29712749  0.15979104  1
  O  O67  1  0.54079167  0.04736928  0.08131934  1
  O  O68  1  0.75585730  0.18033827  0.01674408  1
  O  O69  1  0.60127406  0.48990595  0.02955388  1
  O  O70  1  0.44568045  0.32072342  0.02554192  1
  O  O71  1  0.63088382  0.30637003  0.09132867  1
  O  O72  1  0.35896109  0.39549174  0.19199259  1
  O  O73  1  0.26524500  0.97874817  0.05765008  1
  O  O74  1  0.05577945  0.58365474  0.12688220  1
  O  O75  1  0.56710421  0.78559940  0.12052943  1
  O  O76  1  0.44242427  0.05303283  0.16843539  1
  O  O77  1  0.18148494  0.31816770  0.07688243  1
  O  O78  1  0.06049357  0.90535740  0.10711031  1
  O  O79  1  0.56541299  0.49616412  0.16155299  1
  O  O80  1  0.11358508  0.82849360  0.01948234  1
  O  O81  1  0.76365901  0.91255837  0.14578242  1
  O  O82  1  0.85231129  0.45859087  0.10150208  1
  O  O83  1  0.60898119  0.00960699  0.42747430  1
  O  O84  1  0.70834256  0.96342672  0.31365500  1
  O  O85  1  0.39012690  0.66965551  0.41748505  1
  O  O86  1  0.88182855  0.37151983  0.33960233  1
  O  O87  1  0.09762539  0.41969983  0.25373958  1
  O  O88  1  0.85618907  0.26663198  0.24420926  1
  O  O89  1  0.94355423  0.70735517  0.22024082  1
  O  O90  1  0.00223769  0.98033886  0.27811659  1
  O  O91  1  0.17136860  0.07586581  0.23332189  1
  O  O92  1  0.78301624  0.60603415  0.26663911  1
  O  O93  1  0.95817800  0.01923394  0.19570959  1
  O  O94  1  0.99722206  0.66267349  0.30293503  1
  O  O95  1  0.70128477  0.69085266  0.43369894  1
  O  O96  1  0.60723208  0.28151327  0.30909324  1
  O  O97  1  0.39656843  0.90840400  0.37490861  1
  O  O98  1  0.90738184  0.08979572  0.37230777  1
  O  O99  1  0.77900824  0.34857947  0.42092715  1
  O  O100  1  0.53517461  0.61847989  0.33613779  1
  O  O101  1  0.40819169  0.18542847  0.34470598  1
  O  O102  1  0.89963189  0.78799614  0.39369497  1
  O  O103  1  0.45781174  0.13950906  0.25832134  1
  O  O104  1  0.49291965  0.54482304  0.24601210  1
  O  O105  1  0.10760333  0.20529378  0.40500922  1
  O  O106  1  0.20509135  0.77752963  0.34456876  1
  O  O107  1  0.17332935  0.54018244  0.48212789  1
  O  O108  1  0.33222949  0.22461670  0.47372928  1
  O  O109  1  0.48517813  0.39178897  0.46658746  1
  O  O110  1  0.29282923  0.38949398  0.40811300  1
  O  O111  1  0.85547837  0.81880575  0.48433313  1
  O  O112  1  0.09767302  0.06050830  0.68757157  1
  O  O113  1  0.00031353  0.10476831  0.58412778  1
  O  O114  1  0.25140159  0.47874852  0.65962974  1
  O  O115  1  0.81000085  0.72636283  0.58137853  1
  O  O116  1  0.59375225  0.59323994  0.51663039  1
  O  O117  1  0.74910454  0.28365969  0.52960197  1
  O  O118  1  0.90393693  0.45378404  0.52523674  1
  O  O119  1  0.71935736  0.46801920  0.59117131  1
  O  O120  1  0.99009219  0.38022864  0.69227916  1
  O  O121  1  0.08476060  0.79610812  0.55758057  1
  O  O122  1  0.29372125  0.19183341  0.62702852  1
  O  O123  1  0.78294035  0.98890461  0.62028472  1
  O  O124  1  0.90717327  0.72219850  0.66853962  1
  O  O125  1  0.16889520  0.45643707  0.57664232  1
  O  O126  1  0.28946252  0.86882463  0.60736925  1
  O  O127  1  0.78483482  0.27847752  0.66161520  1
  O  O128  1  0.23675350  0.94635547  0.51977718  1
  O  O129  1  0.58623986  0.86231649  0.64558759  1
  O  O130  1  0.49765058  0.31642867  0.60164430  1
  O  O131  1  0.74039030  0.76579958  0.92757396  1
  O  O132  1  0.64171987  0.81183272  0.81371466  1
  O  O133  1  0.95984088  0.10515364  0.91765021  1
  O  O134  1  0.46800770  0.40431569  0.83978218  1
  O  O135  1  0.25289531  0.35543161  0.75363460  1
  O  O136  1  0.49386383  0.50814690  0.74431680  1
  O  O137  1  0.40739142  0.06779353  0.72023280  1
  O  O138  1  0.34793255  0.79431553  0.77826626  1
  O  O139  1  0.17898660  0.69929419  0.73320684  1
  O  O140  1  0.56719049  0.16924932  0.76691338  1
  O  O141  1  0.39295104  0.75569814  0.69590229  1
  O  O142  1  0.35219497  0.11264735  0.80286055  1
  O  O143  1  0.64802627  0.08473568  0.93370966  1
  O  O144  1  0.74340409  0.49378802  0.80894588  1
  O  O145  1  0.95265403  0.86673891  0.87498372  1
  O  O146  1  0.44339216  0.68535413  0.87248922  1
  O  O147  1  0.57078092  0.42665027  0.92118079  1
  O  O148  1  0.81445920  0.15700476  0.83639868  1
  O  O149  1  0.94177146  0.58950945  0.84496055  1
  O  O150  1  0.44981883  0.98759667  0.89369848  1
  O  O151  1  0.89315192  0.63658095  0.75854960  1
  O  O152  1  0.85711662  0.22968423  0.74614244  1
  O  O153  1  0.24214947  0.57076407  0.90527191  1
  O  O154  1  0.14476474  0.99683061  0.84466275  1
  O  O155  1  0.17654404  0.23511472  0.98231914  1
  O  O156  1  0.01708641  0.55067411  0.97399568  1
  O  O157  1  0.86470767  0.38301559  0.96673736  1
  O  O158  1  0.05711244  0.38582076  0.90833767  1
  O  O159  1  0.49401085  0.95645859  0.98437913  1
