# generated using pymatgen
data_Na3Zr2Si2PO12
_symmetry_space_group_name_H-M   'P 1'
_cell_length_a   9.13268800
_cell_length_b   9.40133717
_cell_length_c   52.06379079
_cell_angle_alpha   90.00000000
_cell_angle_beta   90.00000000
_cell_angle_gamma   90.63708205
_symmetry_Int_Tables_number   1
_chemical_formula_structural   Na3Zr2Si2PO12
_chemical_formula_sum   'Na48 Zr32 Si32 P16 O192'
_cell_volume   4469.89362376
_cell_formula_units_Z   16
loop_
 _symmetry_equiv_pos_site_id
 _symmetry_equiv_pos_as_xyz
  1  'x, y, z'
loop_
 _atom_site_type_symbol
 _atom_site_label
 _atom_site_symmetry_multiplicity
 _atom_site_fract_x
 _atom_site_fract_y
 _atom_site_fract_z
 _atom_site_occupancy
  Na  Na0  1  0.27768795  0.93912556  0.12149583  1
  Na  Na1  1  0.33066453  0.63373042  0.01734853  1
  Na  Na2  1  0.53405269  0.96715473  0.02200646  1
  Na  Na3  1  0.92073091  0.57324388  0.09009599  1
  Na  Na4  1  0.31718355  0.33686650  0.10766884  1
  Na  Na5  1  0.17401450  0.22735339  0.02050576  1
  Na  Na6  1  0.78218517  0.46876589  0.24624561  1
  Na  Na7  1  0.68537386  0.08457115  0.12745134  1
  Na  Na8  1  0.07627928  0.47128917  0.15898852  1
  Na  Na9  1  0.40765670  0.08802400  0.21531696  1
  Na  Na10  1  0.81050775  0.85952499  0.23213817  1
  Na  Na11  1  0.67552170  0.69826691  0.14257514  1
  Na  Na12  1  0.28666742  0.99311932  0.37185116  1
  Na  Na13  1  0.19384814  0.60827406  0.25349570  1
  Na  Na14  1  0.56934467  0.99023056  0.28466185  1
  Na  Na15  1  0.90232436  0.60677561  0.34178985  1
  Na  Na16  1  0.30030903  0.38025679  0.35769901  1
  Na  Na17  1  0.16599148  0.21925419  0.26773929  1
  Na  Na18  1  0.60820161  0.59387243  0.50336191  1
  Na  Na19  1  0.69574005  0.13813842  0.37825237  1
  Na  Na20  1  0.05391705  0.50796546  0.41239277  1
  Na  Na21  1  0.43886018  0.12588559  0.47500187  1
  Na  Na22  1  0.81033634  0.86117442  0.47710169  1
  Na  Na23  1  0.65739298  0.73845215  0.39237034  1
  Na  Na24  1  0.19769127  0.13594025  0.62143676  1
  Na  Na25  1  0.14427631  0.43904519  0.51766267  1
  Na  Na26  1  0.94099815  0.10843266  0.52190305  1
  Na  Na27  1  0.55404559  0.50274772  0.58998500  1
  Na  Na28  1  0.15831202  0.73830208  0.60769452  1
  Na  Na29  1  0.30081424  0.84782633  0.52044415  1
  Na  Na30  1  0.69281216  0.60495986  0.74622165  1
  Na  Na31  1  0.78942675  0.99043770  0.62742957  1
  Na  Na32  1  0.39871047  0.60316734  0.65893227  1
  Na  Na33  1  0.06771034  0.98594244  0.71553243  1
  Na  Na34  1  0.66496136  0.21423876  0.73216487  1
  Na  Na35  1  0.79929941  0.37699932  0.64246683  1
  Na  Na36  1  0.18715940  0.08140374  0.87186441  1
  Na  Na37  1  0.28182132  0.46609438  0.75349980  1
  Na  Na38  1  0.90481469  0.08346467  0.78510150  1
  Na  Na39  1  0.57231930  0.46789690  0.84179904  1
  Na  Na40  1  0.17415958  0.69455677  0.85767524  1
  Na  Na41  1  0.30905148  0.85481950  0.76773845  1
  Na  Na42  1  0.86645834  0.48208639  0.00330954  1
  Na  Na43  1  0.77806606  0.93666323  0.87828876  1
  Na  Na44  1  0.41992449  0.56779037  0.91254399  1
  Na  Na45  1  0.03668033  0.95013359  0.97495964  1
  Na  Na46  1  0.66492711  0.21392163  0.97717023  1
  Na  Na47  1  0.81721819  0.33704650  0.89244132  1
  Zr  Zr48  1  0.00463762  0.80453924  0.03545241  1
  Zr  Zr49  1  0.49846793  0.71898974  0.08930030  1
  Zr  Zr50  1  0.99930506  0.21968913  0.08843071  1
  Zr  Zr51  1  0.50213485  0.29678195  0.03584691  1
  Zr  Zr52  1  0.49471458  0.32406665  0.16078557  1
  Zr  Zr53  1  0.99112490  0.23604874  0.21365795  1
  Zr  Zr54  1  0.49543675  0.74037923  0.21296634  1
  Zr  Zr55  1  0.98941804  0.82013719  0.16201642  1
  Zr  Zr56  1  0.98576236  0.84141162  0.28617901  1
  Zr  Zr57  1  0.48217661  0.75419264  0.33871893  1
  Zr  Zr58  1  0.98704196  0.25822980  0.33782050  1
  Zr  Zr59  1  0.48162663  0.33752419  0.28696712  1
  Zr  Zr60  1  0.47771971  0.36135667  0.41114288  1
  Zr  Zr61  1  0.97313965  0.28111573  0.46360240  1
  Zr  Zr62  1  0.47200935  0.78781666  0.46229030  1
  Zr  Zr63  1  0.97460781  0.85867124  0.41164700  1
  Zr  Zr64  1  0.47054393  0.27128130  0.53550057  1
  Zr  Zr65  1  0.97661716  0.35646374  0.58922947  1
  Zr  Zr66  1  0.47597207  0.85618360  0.58842085  1
  Zr  Zr67  1  0.97294561  0.77887295  0.53572138  1
  Zr  Zr68  1  0.98062577  0.75045654  0.66069166  1
  Zr  Zr69  1  0.48444441  0.83801817  0.71367812  1
  Zr  Zr70  1  0.98008922  0.33348938  0.71293618  1
  Zr  Zr71  1  0.48590282  0.25455644  0.66209108  1
  Zr  Zr72  1  0.48958809  0.23266695  0.78622778  1
  Zr  Zr73  1  0.99244665  0.32036225  0.83868093  1
  Zr  Zr74  1  0.48735142  0.81638079  0.83790336  1
  Zr  Zr75  1  0.99368362  0.73622448  0.78692367  1
  Zr  Zr76  1  0.99647833  0.71411128  0.91106564  1
  Zr  Zr77  1  0.50167695  0.79514453  0.96369568  1
  Zr  Zr78  1  0.00293879  0.28802735  0.96227068  1
  Zr  Zr79  1  0.49987357  0.21714009  0.91170628  1
  Si  Si80  1  0.28582315  0.01351282  0.06508983  1
  Si  Si81  1  0.21557829  0.50532034  0.06215328  1
  Si  Si82  1  0.86455205  0.14518595  0.02458080  1
  Si  Si83  1  0.64947033  0.38656967  0.09836492  1
  Si  Si84  1  0.77901984  0.53535798  0.18913852  1
  Si  Si85  1  0.70659872  0.02417463  0.18501584  1
  Si  Si86  1  0.34631247  0.65644931  0.15126075  1
  Si  Si87  1  0.13825556  0.90188348  0.22383740  1
  Si  Si88  1  0.26999624  0.05398107  0.31449223  1
  Si  Si89  1  0.19804593  0.54210452  0.31050821  1
  Si  Si90  1  0.83854794  0.17567511  0.27597967  1
  Si  Si91  1  0.63010170  0.42180644  0.34871890  1
  Si  Si92  1  0.75657874  0.57481238  0.43918278  1
  Si  Si93  1  0.69411816  0.06824930  0.43476891  1
  Si  Si94  1  0.32412746  0.69204644  0.40073659  1
  Si  Si95  1  0.11516917  0.93887360  0.47490874  1
  Si  Si96  1  0.18960498  0.06205992  0.56503546  1
  Si  Si97  1  0.25898938  0.57039947  0.56216452  1
  Si  Si98  1  0.61067241  0.93076482  0.52456973  1
  Si  Si99  1  0.82569031  0.68885618  0.59824401  1
  Si  Si100  1  0.69679133  0.53906881  0.68910387  1
  Si  Si101  1  0.76883500  0.04990528  0.68504671  1
  Si  Si102  1  0.12860220  0.41775286  0.65123438  1
  Si  Si103  1  0.33735185  0.17226352  0.72386781  1
  Si  Si104  1  0.20460355  0.02035550  0.81452328  1
  Si  Si105  1  0.27740359  0.53201657  0.81050693  1
  Si  Si106  1  0.63633502  0.89777715  0.77604120  1
  Si  Si107  1  0.84450410  0.65291120  0.84870031  1
  Si  Si108  1  0.71775257  0.50102906  0.93927177  1
  Si  Si109  1  0.78075495  0.00758174  0.93480496  1
  Si  Si110  1  0.15036357  0.38331397  0.90064581  1
  Si  Si111  1  0.35996777  0.13743030  0.97501124  1
  P  P112  1  0.64079856  0.65751891  0.02530574  1
  P  P113  1  0.85196005  0.87379719  0.09842104  1
  P  P114  1  0.14247243  0.17045960  0.15116070  1
  P  P115  1  0.34524839  0.38933764  0.22377464  1
  P  P116  1  0.63244409  0.68852562  0.27594939  1
  P  P117  1  0.83390737  0.90762523  0.34865989  1
  P  P118  1  0.12580951  0.20571946  0.40110734  1
  P  P119  1  0.33515219  0.42635818  0.47425490  1
  P  P120  1  0.83417572  0.41857463  0.52517996  1
  P  P121  1  0.62293750  0.20227387  0.59846024  1
  P  P122  1  0.33316723  0.90436905  0.65118854  1
  P  P123  1  0.13031565  0.68453694  0.72367904  1
  P  P124  1  0.84284937  0.38546130  0.77583351  1
  P  P125  1  0.64080535  0.16723896  0.84871676  1
  P  P126  1  0.34869242  0.87007189  0.90116990  1
  P  P127  1  0.13930466  0.64965456  0.97411381  1
  O  O128  1  0.19614464  0.10625614  0.08644356  1
  O  O129  1  0.30396566  0.41552207  0.03993623  1
  O  O130  1  0.90064556  0.97671711  0.01855932  1
  O  O131  1  0.64877260  0.56101112  0.10065251  1
  O  O132  1  0.90420102  0.81606085  0.07209111  1
  O  O133  1  0.56865247  0.71769030  0.04975450  1
  O  O134  1  0.88886675  0.03348343  0.10147364  1
  O  O135  1  0.60524127  0.49697608  0.02163151  1
  O  O136  1  0.80841740  0.67716441  0.02581234  1
  O  O137  1  0.68320543  0.85972473  0.10102036  1
  O  O138  1  0.57069895  0.74373388  0.00284470  1
  O  O139  1  0.92588992  0.78453010  0.11981283  1
  O  O140  1  0.17500751  0.92808210  0.04520021  1
  O  O141  1  0.33726375  0.58072957  0.08096984  1
  O  O142  1  0.94850604  0.18986049  0.05137218  1
  O  O143  1  0.56660749  0.33641659  0.07194894  1
  O  O144  1  0.56405085  0.30808518  0.12263363  1
  O  O145  1  0.93465625  0.24768761  0.00188594  1
  O  O146  1  0.11327746  0.40609246  0.08085462  1
  O  O147  1  0.38825856  0.11728232  0.04712080  1
  O  O148  1  0.11147201  0.62249080  0.04803231  1
  O  O149  1  0.38534417  0.89984948  0.08092929  1
  O  O150  1  0.82076367  0.33785776  0.09817851  1
  O  O151  1  0.68735225  0.17393908  0.02542685  1
  O  O152  1  0.70029444  0.63577076  0.21080589  1
  O  O153  1  0.78380898  0.92189747  0.16337691  1
  O  O154  1  0.34517796  0.48228142  0.14875438  1
  O  O155  1  0.13694646  0.07610388  0.22626194  1
  O  O156  1  0.39837123  0.32259666  0.19830446  1
  O  O157  1  0.09213304  0.23916619  0.17658649  1
  O  O158  1  0.38963591  0.54809026  0.22583216  1
  O  O159  1  0.09474331  0.01240349  0.14959485  1
  O  O160  1  0.31197537  0.17626438  0.14851998  1
  O  O161  1  0.17563455  0.38096409  0.22613440  1
  O  O162  1  0.07424238  0.25813118  0.12897954  1
  O  O163  1  0.41348599  0.30117279  0.24593408  1
  O  O164  1  0.65385035  0.45928253  0.17086814  1
  O  O165  1  0.83301715  0.10076088  0.20291267  1
  O  O166  1  0.44050642  0.70459385  0.17665437  1
  O  O167  1  0.04239218  0.85213787  0.19854936  1
  O  O168  1  0.05893508  0.82251439  0.24848130  1
  O  O169  1  0.42938602  0.73581039  0.12700201  1
  O  O170  1  0.60322854  0.93191351  0.20515797  1
  O  O171  1  0.88249109  0.62817606  0.16906767  1
  O  O172  1  0.60590427  0.14084048  0.16995596  1
  O  O173  1  0.87997533  0.41880952  0.20407037  1
  O  O174  1  0.30884868  0.85163234  0.22200054  1
  O  O175  1  0.17636378  0.71007443  0.15237593  1
  O  O176  1  0.19248797  0.15557923  0.33617069  1
  O  O177  1  0.27631300  0.44136226  0.28881642  1
  O  O178  1  0.83972503  0.00150655  0.27347807  1
  O  O179  1  0.63103489  0.59611271  0.35095640  1
  O  O180  1  0.88568502  0.83862773  0.32330718  1
  O  O181  1  0.57966201  0.75628421  0.30130745  1
  O  O182  1  0.88102570  0.06586756  0.35020279  1
  O  O183  1  0.58736892  0.52993218  0.27404753  1
  O  O184  1  0.80193066  0.69643903  0.27347144  1
  O  O185  1  0.66431191  0.90156952  0.35106683  1
  O  O186  1  0.56433891  0.77636014  0.25370160  1
  O  O187  1  0.90123837  0.82019256  0.37094938  1
  O  O188  1  0.14371765  0.97753039  0.29654424  1
  O  O189  1  0.32392000  0.61806487  0.32858573  1
  O  O190  1  0.93457648  0.22582637  0.30116052  1
  O  O191  1  0.53572064  0.37189972  0.32337199  1
  O  O192  1  0.54850383  0.34466889  0.37331512  1
  O  O193  1  0.91742277  0.25485884  0.25120033  1
  O  O194  1  0.09432161  0.44990864  0.33059311  1
  O  O195  1  0.37348855  0.14618169  0.29436971  1
  O  O196  1  0.09773170  0.65913177  0.29553252  1
  O  O197  1  0.37098454  0.93718131  0.32939927  1
  O  O198  1  0.80019335  0.36843975  0.34735016  1
  O  O199  1  0.66796286  0.22614012  0.27774654  1
  O  O200  1  0.67431202  0.67095697  0.46109504  1
  O  O201  1  0.77810704  0.97313602  0.41307105  1
  O  O202  1  0.32650540  0.51789093  0.39923013  1
  O  O203  1  0.08384764  0.10870849  0.48056465  1
  O  O204  1  0.40030342  0.35432836  0.45031531  1
  O  O205  1  0.07547047  0.26663115  0.42730280  1
  O  O206  1  0.38652802  0.58262959  0.47762718  1
  O  O207  1  0.08647400  0.04615467  0.39860945  1
  O  O208  1  0.29469688  0.21832074  0.39832142  1
  O  O209  1  0.16607707  0.41768987  0.47374482  1
  O  O210  1  0.05195927  0.29393527  0.37955707  1
  O  O211  1  0.38840023  0.33818537  0.49822761  1
  O  O212  1  0.63241165  0.50364313  0.42018666  1
  O  O213  1  0.80987829  0.14752217  0.45434805  1
  O  O214  1  0.41042266  0.74673283  0.42663511  1
  O  O215  1  0.02814098  0.89190610  0.44853466  1
  O  O216  1  0.04621677  0.84240873  0.49855805  1
  O  O217  1  0.40889868  0.76994274  0.37645568  1
  O  O218  1  0.59082911  0.96635757  0.45321990  1
  O  O219  1  0.85799304  0.67579533  0.42003009  1
  O  O220  1  0.59368403  0.18246742  0.41936601  1
  O  O221  1  0.86624532  0.45615029  0.45112578  1
  O  O222  1  0.29224398  0.90985393  0.47333603  1
  O  O223  1  0.15297396  0.74009653  0.40153787  1
  O  O224  1  0.27919861  0.96988781  0.58648817  1
  O  O225  1  0.17056484  0.65947268  0.53986172  1
  O  O226  1  0.57484282  0.09932675  0.51861326  1
  O  O227  1  0.82612916  0.51439336  0.60053065  1
  O  O228  1  0.57026813  0.26005484  0.57216487  1
  O  O229  1  0.90779100  0.35856052  0.54952462  1
  O  O230  1  0.58593758  0.04261112  0.60149435  1
  O  O231  1  0.86942279  0.57906422  0.52142026  1
  O  O232  1  0.66654563  0.39905265  0.52597195  1
  O  O233  1  0.79178819  0.21605467  0.60091902  1
  O  O234  1  0.90287715  0.33188896  0.50266082  1
  O  O235  1  0.54966661  0.29160193  0.61990710  1
  O  O236  1  0.30031341  0.14722952  0.54510640  1
  O  O237  1  0.13751923  0.49545917  0.58107954  1
  O  O238  1  0.52714981  0.88589674  0.55139077  1
  O  O239  1  0.90815335  0.73908380  0.57179996  1
  O  O240  1  0.91143090  0.76688594  0.62252790  1
  O  O241  1  0.54011604  0.82825683  0.50190149  1
  O  O242  1  0.36137296  0.67027807  0.58074093  1
  O  O243  1  0.08711841  0.95811802  0.54711019  1
  O  O244  1  0.36304563  0.45279520  0.54816022  1
  O  O245  1  0.08999768  0.17599895  0.58079674  1
  O  O246  1  0.65440085  0.73780638  0.59813513  1
  O  O247  1  0.78783823  0.90188589  0.52529974  1
  O  O248  1  0.77546449  0.43843275  0.71074294  1
  O  O249  1  0.69111558  0.15218526  0.66343921  1
  O  O250  1  0.12986703  0.59193785  0.64872894  1
  O  O251  1  0.33876680  0.99804055  0.72629594  1
  O  O252  1  0.07670473  0.75151053  0.69826209  1
  O  O253  1  0.38393575  0.83556217  0.67657478  1
  O  O254  1  0.08590285  0.52582088  0.72575668  1
  O  O255  1  0.38025856  0.06259277  0.64960961  1
  O  O256  1  0.16367126  0.89795998  0.64858237  1
  O  O257  1  0.29999275  0.69274177  0.72595570  1
  O  O258  1  0.40136099  0.81698399  0.62896098  1
  O  O259  1  0.06264917  0.77270117  0.74591192  1
  O  O260  1  0.82164199  0.61480948  0.67073338  1
  O  O261  1  0.64278099  0.97327121  0.70300635  1
  O  O262  1  0.03448264  0.36927015  0.67660407  1
  O  O263  1  0.43359961  0.22231144  0.69865150  1
  O  O264  1  0.41625977  0.25149189  0.74856724  1
  O  O265  1  0.04553238  0.33881595  0.62693103  1
  O  O266  1  0.87242487  0.14193548  0.70516368  1
  O  O267  1  0.59261281  0.44644884  0.66911413  1
  O  O268  1  0.86935224  0.93347639  0.66989431  1
  O  O269  1  0.59629542  0.65579170  0.70408702  1
  O  O270  1  0.16678087  0.22239087  0.72194754  1
  O  O271  1  0.29856864  0.36403920  0.65238850  1
  O  O272  1  0.28207421  0.91890874  0.83622273  1
  O  O273  1  0.19908940  0.63243972  0.78876195  1
  O  O274  1  0.63535979  0.07205459  0.77360928  1
  O  O275  1  0.84385710  0.47858520  0.85104180  1
  O  O276  1  0.58970943  0.23627849  0.82332446  1
  O  O277  1  0.89518070  0.31831610  0.80128119  1
  O  O278  1  0.59282734  0.00920228  0.85024788  1
  O  O279  1  0.88803148  0.54401938  0.77388492  1
  O  O280  1  0.67340967  0.37737492  0.77331373  1
  O  O281  1  0.81040445  0.17271867  0.85113012  1
  O  O282  1  0.91126445  0.29725701  0.75367299  1
  O  O283  1  0.57364042  0.25510051  0.87096714  1
  O  O284  1  0.33106299  0.09732994  0.79667999  1
  O  O285  1  0.15123065  0.45541569  0.82843055  1
  O  O286  1  0.54023970  0.84795841  0.80123252  1
  O  O287  1  0.93917904  0.70188969  0.82332411  1
  O  O288  1  0.92612192  0.73078932  0.87322818  1
  O  O289  1  0.55740496  0.81859411  0.75128117  1
  O  O290  1  0.37990068  0.62471706  0.83070416  1
  O  O291  1  0.10177081  0.92768964  0.79436274  1
  O  O292  1  0.37885246  0.41571165  0.79559653  1
  O  O293  1  0.10276196  0.13665441  0.82938644  1
  O  O294  1  0.67443357  0.70631308  0.84740393  1
  O  O295  1  0.80696256  0.84723341  0.77780259  1
  O  O296  1  0.80030863  0.40440676  0.96109005  1
  O  O297  1  0.69656101  0.10303387  0.91318252  1
  O  O298  1  0.14760697  0.55744400  0.89904761  1
  O  O299  1  0.39125553  0.96759845  0.98068028  1
  O  O300  1  0.07415649  0.72148153  0.95016778  1
  O  O301  1  0.39961408  0.80957680  0.92736769  1
  O  O302  1  0.08804766  0.49340258  0.97754510  1
  O  O303  1  0.38777360  0.02963705  0.89863608  1
  O  O304  1  0.17980825  0.85718700  0.89845118  1
  O  O305  1  0.30839051  0.65812200  0.97355323  1
  O  O306  1  0.42242706  0.78166173  0.87963097  1
  O  O307  1  0.08630566  0.73799568  0.99807969  1
  O  O308  1  0.84178232  0.57205554  0.92021294  1
  O  O309  1  0.66523071  0.92874233  0.95451090  1
  O  O310  1  0.06398572  0.32930213  0.92658173  1
  O  O311  1  0.44666206  0.18414162  0.94860294  1
  O  O312  1  0.42903366  0.23394530  0.99862498  1
  O  O313  1  0.06597169  0.30461777  0.87641133  1
  O  O314  1  0.88489116  0.10915116  0.95316286  1
  O  O315  1  0.61577764  0.40048672  0.92012339  1
  O  O316  1  0.88027128  0.89296272  0.91932143  1
  O  O317  1  0.60903810  0.62009435  0.95135173  1
  O  O318  1  0.18287769  0.16634515  0.97341281  1
  O  O319  1  0.32153385  0.33555012  0.90155790  1
