# generated using pymatgen
data_Na24Zr16Si14(P2O29)3
_symmetry_space_group_name_H-M   'P 1'
_cell_length_a   9.15937100
_cell_length_b   24.11698144
_cell_length_c   40.61009186
_cell_angle_alpha   90.00000000
_cell_angle_beta   90.00000000
_cell_angle_gamma   67.67936926
_symmetry_Int_Tables_number   1
_chemical_formula_structural   Na24Zr16Si14(P2O29)3
_chemical_formula_sum   'Na96 Zr64 Si56 P24 O348'
_cell_volume   8298.48071747
_cell_formula_units_Z   4
loop_
 _symmetry_equiv_pos_site_id
 _symmetry_equiv_pos_as_xyz
  1  'x, y, z'
loop_
 _atom_site_type_symbol
 _atom_site_label
 _atom_site_symmetry_multiplicity
 _atom_site_fract_x
 _atom_site_fract_y
 _atom_site_fract_z
 _atom_site_occupancy
  Na  Na0  1  0.03141004  0.88724699  0.06444636  1
  Na  Na1  1  0.90293802  0.28642659  0.02219470  1
  Na  Na2  1  0.57686163  0.49530269  0.05183728  1
  Na  Na3  1  0.50727654  0.09323632  0.08969951  1
  Na  Na4  1  0.31086140  0.59782894  0.08434439  1
  Na  Na5  1  0.49756790  0.77315989  0.02878369  1
  Na  Na6  1  0.28903079  0.66367667  0.01139840  1
  Na  Na7  1  0.25873687  0.43300057  0.08446868  1
  Na  Na8  1  0.04318890  0.58571356  0.03444890  1
  Na  Na9  1  0.87284783  0.24469319  0.09361605  1
  Na  Na10  1  0.63598765  0.74400925  0.10174527  1
  Na  Na11  1  0.96523904  0.09876058  0.99528042  1
  Na  Na12  1  0.56882384  0.27683595  0.21514160  1
  Na  Na13  1  0.91378972  0.52195039  0.11540427  1
  Na  Na14  1  0.28310642  0.78795689  0.16198252  1
  Na  Na15  1  0.12538723  0.45320213  0.23396385  1
  Na  Na16  1  0.96797187  0.94035094  0.22572930  1
  Na  Na17  1  0.14776637  0.27104885  0.15678990  1
  Na  Na18  1  0.04048506  0.09826173  0.14939662  1
  Na  Na19  1  0.85934631  0.72014598  0.19828899  1
  Na  Na20  1  0.68948067  0.92124350  0.15600707  1
  Na  Na21  1  0.61066160  0.62358825  0.15723843  1
  Na  Na22  1  0.29526686  0.09099825  0.22650709  1
  Na  Na23  1  0.47401045  0.41448199  0.16068895  1
  Na  Na24  1  0.32912982  0.57646655  0.34081507  1
  Na  Na25  1  0.52151116  0.90091185  0.27085122  1
  Na  Na26  1  0.96434137  0.11677814  0.29625341  1
  Na  Na27  1  0.77899109  0.79556798  0.36390392  1
  Na  Na28  1  0.61719861  0.27267916  0.36199044  1
  Na  Na29  1  0.79556999  0.62093708  0.29699514  1
  Na  Na30  1  0.70070910  0.44871588  0.28258375  1
  Na  Na31  1  0.49821581  0.07070973  0.34221324  1
  Na  Na32  1  0.33911451  0.26063708  0.28798729  1
  Na  Na33  1  0.19446351  0.93607623  0.33736666  1
  Na  Na34  1  0.96037429  0.42873567  0.35741280  1
  Na  Na35  1  0.12625588  0.75770506  0.27297319  1
  Na  Na36  1  0.07944332  0.85797126  0.45078961  1
  Na  Na37  1  0.21949303  0.21604740  0.38893611  1
  Na  Na38  1  0.55871534  0.48568993  0.47114520  1
  Na  Na39  1  0.85111264  0.04662491  0.49704139  1
  Na  Na40  1  0.37460035  0.66575034  0.48737644  1
  Na  Na41  1  0.41378416  0.98607287  0.41759485  1
  Na  Na42  1  0.36917126  0.75166766  0.41243027  1
  Na  Na43  1  0.15276129  0.55396459  0.47661634  1
  Na  Na44  1  0.02324717  0.59798553  0.40579641  1
  Na  Na45  1  0.71658591  0.21091383  0.50762611  1
  Na  Na46  1  0.60132017  0.73955094  0.48381152  1
  Na  Na47  1  0.76071522  0.11191601  0.41669721  1
  Na  Na48  1  0.14361918  0.43776460  0.56451872  1
  Na  Na49  1  0.27294101  0.03869213  0.52218681  1
  Na  Na50  1  0.59845448  0.82969308  0.55184847  1
  Na  Na51  1  0.66759118  0.23195342  0.58962486  1
  Na  Na52  1  0.86409779  0.72716046  0.58435678  1
  Na  Na53  1  0.67667134  0.55182084  0.52893645  1
  Na  Na54  1  0.88553196  0.66099796  0.51135696  1
  Na  Na55  1  0.91669957  0.89222085  0.58456007  1
  Na  Na56  1  0.13224323  0.73909870  0.53437686  1
  Na  Na57  1  0.30216246  0.08042583  0.59368659  1
  Na  Na58  1  0.53849684  0.58115242  0.60181375  1
  Na  Na59  1  0.21128909  0.22624092  0.49547212  1
  Na  Na60  1  0.60647675  0.04827284  0.71526159  1
  Na  Na61  1  0.26119304  0.80311718  0.61545906  1
  Na  Na62  1  0.89163913  0.53698044  0.66204700  1
  Na  Na63  1  0.04975269  0.87179577  0.73403097  1
  Na  Na64  1  0.20720571  0.38447529  0.72575347  1
  Na  Na65  1  0.02701862  0.05412059  0.65687228  1
  Na  Na66  1  0.13509113  0.22694001  0.64944468  1
  Na  Na67  1  0.31514559  0.60491572  0.69824382  1
  Na  Na68  1  0.48534648  0.40376533  0.65594898  1
  Na  Na69  1  0.56442079  0.70149871  0.65727395  1
  Na  Na70  1  0.87998590  0.23401881  0.72663264  1
  Na  Na71  1  0.70052662  0.91071194  0.66059957  1
  Na  Na72  1  0.84640232  0.74831953  0.84076981  1
  Na  Na73  1  0.65358009  0.42397206  0.77095035  1
  Na  Na74  1  0.21091174  0.20806442  0.79644314  1
  Na  Na75  1  0.39576635  0.52951832  0.86374095  1
  Na  Na76  1  0.55793687  0.05217107  0.86214233  1
  Na  Na77  1  0.37900367  0.70375379  0.79713728  1
  Na  Na78  1  0.47488747  0.87615005  0.78263389  1
  Na  Na79  1  0.67642867  0.25430057  0.84239060  1
  Na  Na80  1  0.83599537  0.06431007  0.78829717  1
  Na  Na81  1  0.97996466  0.38901336  0.83751745  1
  Na  Na82  1  0.21459301  0.89610435  0.85732155  1
  Na  Na83  1  0.04792562  0.56740778  0.77307514  1
  Na  Na84  1  0.09569977  0.46722813  0.95078531  1
  Na  Na85  1  0.95531146  0.10895806  0.88905132  1
  Na  Na86  1  0.61703199  0.83899597  0.97113389  1
  Na  Na87  1  0.32489390  0.27855171  0.99708633  1
  Na  Na88  1  0.80028479  0.65885023  0.98737263  1
  Na  Na89  1  0.76109864  0.33902186  0.91777284  1
  Na  Na90  1  0.80562838  0.57321918  0.91245121  1
  Na  Na91  1  0.02257240  0.77048692  0.97661275  1
  Na  Na92  1  0.15161137  0.72693984  0.90573756  1
  Na  Na93  1  0.45907707  0.11429437  0.00793773  1
  Na  Na94  1  0.57333748  0.58518972  0.98391126  1
  Na  Na95  1  0.41475659  0.21302337  0.91670956  1
  Zr  Zr96  1  0.92628082  0.71757851  0.04457540  1
  Zr  Zr97  1  0.89351224  0.37710028  0.09224175  1
  Zr  Zr98  1  0.64419095  0.62351206  0.06501631  1
  Zr  Zr99  1  0.71453379  0.97484881  0.02452310  1
  Zr  Zr100  1  0.31101110  0.47809483  0.01002734  1
  Zr  Zr101  1  0.10946622  0.12061128  0.06312221  1
  Zr  Zr102  1  0.35871446  0.88581663  0.09047507  1
  Zr  Zr103  1  0.67660031  0.19279222  0.02746295  1
  Zr  Zr104  1  0.68656011  0.05134700  0.16276026  1
  Zr  Zr105  1  0.52550183  0.72111669  0.22805652  1
  Zr  Zr106  1  0.29290896  0.95780187  0.20059753  1
  Zr  Zr107  1  0.47809107  0.28323563  0.13263558  1
  Zr  Zr108  1  0.95913210  0.77777414  0.13507616  1
  Zr  Zr109  1  0.78880725  0.45745640  0.20243934  1
  Zr  Zr110  1  0.02705375  0.22327963  0.22924316  1
  Zr  Zr111  1  0.21951941  0.54670443  0.16289205  1
  Zr  Zr112  1  0.35635887  0.38918092  0.29660959  1
  Zr  Zr113  1  0.14754557  0.07408774  0.37144203  1
  Zr  Zr114  1  0.94280559  0.30191650  0.33958797  1
  Zr  Zr115  1  0.13633279  0.62424186  0.26960559  1
  Zr  Zr116  1  0.61051887  0.12667929  0.27220051  1
  Zr  Zr117  1  0.44742363  0.79841605  0.33724660  1
  Zr  Zr118  1  0.69502430  0.56069505  0.36323278  1
  Zr  Zr119  1  0.86357110  0.89551742  0.30022070  1
  Zr  Zr120  1  0.00070065  0.74067770  0.42933843  1
  Zr  Zr121  1  0.98308982  0.32164480  0.44642861  1
  Zr  Zr122  1  0.72661385  0.60633235  0.45654837  1
  Zr  Zr123  1  0.78559802  0.97214920  0.41225611  1
  Zr  Zr124  1  0.28217415  0.46363056  0.40503009  1
  Zr  Zr125  1  0.03226884  0.14332377  0.47279546  1
  Zr  Zr126  1  0.38821622  0.87139641  0.47276278  1
  Zr  Zr127  1  0.46152629  0.23990456  0.44149826  1
  Zr  Zr128  1  0.24803176  0.60736855  0.54459132  1
  Zr  Zr129  1  0.28148460  0.94813694  0.59236865  1
  Zr  Zr130  1  0.53037224  0.70151955  0.56500737  1
  Zr  Zr131  1  0.46056324  0.35011434  0.52440132  1
  Zr  Zr132  1  0.86442399  0.84688000  0.51016001  1
  Zr  Zr133  1  0.06578218  0.20450284  0.56306798  1
  Zr  Zr134  1  0.81582494  0.43928463  0.59048292  1
  Zr  Zr135  1  0.49967372  0.13208433  0.52757407  1
  Zr  Zr136  1  0.48857947  0.27370506  0.66281523  1
  Zr  Zr137  1  0.64896768  0.60389607  0.72800004  1
  Zr  Zr138  1  0.88206006  0.36725452  0.70057297  1
  Zr  Zr139  1  0.69676523  0.04189634  0.63271260  1
  Zr  Zr140  1  0.21538692  0.54737518  0.63506898  1
  Zr  Zr141  1  0.38612971  0.86757675  0.70250055  1
  Zr  Zr142  1  0.14798329  0.10182427  0.72942245  1
  Zr  Zr143  1  0.95508925  0.77841807  0.66295979  1
  Zr  Zr144  1  0.81888595  0.93577503  0.79668684  1
  Zr  Zr145  1  0.02737949  0.25089466  0.87160123  1
  Zr  Zr146  1  0.23221115  0.02299980  0.83968629  1
  Zr  Zr147  1  0.03846547  0.70079786  0.76953829  1
  Zr  Zr148  1  0.56452094  0.19837832  0.77229568  1
  Zr  Zr149  1  0.72770153  0.52662701  0.83713422  1
  Zr  Zr150  1  0.48034297  0.76417835  0.86326316  1
  Zr  Zr151  1  0.31102672  0.42952140  0.80022214  1
  Zr  Zr152  1  0.17442104  0.58453638  0.92928865  1
  Zr  Zr153  1  0.19219882  0.00300007  0.94632061  1
  Zr  Zr154  1  0.44798920  0.71811237  0.95644868  1
  Zr  Zr155  1  0.38940648  0.35300845  0.91226284  1
  Zr  Zr156  1  0.89282863  0.86114615  0.90509247  1
  Zr  Zr157  1  0.14400945  0.18165598  0.97290962  1
  Zr  Zr158  1  0.78710615  0.45369349  0.97271244  1
  Zr  Zr159  1  0.71376515  0.08495150  0.94161083  1
  Si  Si160  1  0.74079761  0.84203309  0.05776467  1
  Si  Si161  1  0.74945722  0.14833430  0.10152572  1
  Si  Si162  1  0.94049531  0.47822698  0.04026297  1
  Si  Si163  1  0.10680901  0.98423425  0.02979216  1
  Si  Si164  1  0.94724053  0.64185555  0.11267387  1
  Si  Si165  1  0.56553301  0.34278667  0.05646936  1
  Si  Si166  1  0.60289050  0.51057287  0.12659546  1
  Si  Si167  1  0.42564358  0.18460469  0.19912265  1
  Si  Si168  1  0.40463584  0.48771714  0.23413328  1
  Si  Si169  1  0.55741905  0.82563210  0.16434120  1
  Si  Si170  1  0.79332040  0.32177900  0.16471303  1
  Si  Si171  1  0.61507320  0.99261122  0.23530014  1
  Si  Si172  1  0.22060772  0.68279294  0.19503164  1
  Si  Si173  1  0.36815979  0.01665221  0.12653429  1
  Si  Si174  1  0.25649858  0.85467028  0.26423814  1
  Si  Si175  1  0.08237073  0.52509693  0.33184479  1
  Si  Si176  1  0.06212647  0.84363547  0.37374128  1
  Si  Si177  1  0.21600876  0.16580288  0.30491129  1
  Si  Si178  1  0.44438065  0.66730420  0.30228742  1
  Si  Si179  1  0.27377257  0.33109520  0.37053933  1
  Si  Si180  1  0.85380778  0.02860281  0.33750643  1
  Si  Si181  1  0.02753834  0.35724606  0.26698292  1
  Si  Si182  1  0.87674716  0.21159276  0.40778120  1
  Si  Si183  1  0.68772512  0.86431055  0.44537818  1
  Si  Si184  1  0.91924419  0.47509371  0.43405082  1
  Si  Si185  1  0.08992668  0.00367125  0.44614230  1
  Si  Si186  1  0.57640881  0.35924451  0.45851658  1
  Si  Si187  1  0.70678822  0.69466942  0.39817887  1
  Si  Si188  1  0.43369524  0.48294947  0.55772060  1
  Si  Si189  1  0.42531467  0.17682979  0.60159713  1
  Si  Si190  1  0.23449404  0.84687161  0.54037963  1
  Si  Si191  1  0.06832560  0.34084382  0.52983361  1
  Si  Si192  1  0.22766101  0.68329543  0.61265556  1
  Si  Si193  1  0.60982560  0.98218580  0.55656167  1
  Si  Si194  1  0.57198962  0.81460208  0.62660062  1
  Si  Si195  1  0.74947825  0.14055960  0.69915440  1
  Si  Si196  1  0.77037731  0.83748087  0.73408395  1
  Si  Si197  1  0.61696936  0.49941468  0.66431387  1
  Si  Si198  1  0.38124903  0.00348036  0.66487870  1
  Si  Si199  1  0.56023675  0.33237369  0.73535078  1
  Si  Si200  1  0.95352885  0.64236908  0.69502091  1
  Si  Si201  1  0.80695938  0.30842060  0.62651464  1
  Si  Si202  1  0.91830114  0.47033942  0.76417302  1
  Si  Si203  1  0.09268074  0.79975678  0.83186007  1
  Si  Si204  1  0.11264211  0.48156652  0.87375750  1
  Si  Si205  1  0.95889571  0.15914699  0.80507306  1
  Si  Si206  1  0.73007966  0.65780578  0.80214922  1
  Si  Si207  1  0.90147351  0.99376517  0.87069170  1
  Si  Si208  1  0.32072000  0.29659511  0.83753045  1
  Si  Si209  1  0.14787601  0.96763051  0.76707397  1
  Si  Si210  1  0.29823599  0.11335341  0.90794743  1
  Si  Si211  1  0.48773585  0.46093689  0.94519091  1
  Si  Si212  1  0.25615862  0.84949839  0.93397709  1
  Si  Si213  1  0.08554078  0.32128356  0.94623145  1
  Si  Si214  1  0.59889216  0.96543605  0.95865233  1
  Si  Si215  1  0.46810531  0.63007412  0.89812740  1
  P  P216  1  0.23198363  0.24602304  0.07409733  1
  P  P217  1  0.26812220  0.75000177  0.07806214  1
  P  P218  1  0.03087342  0.91859685  0.14540687  1
  P  P219  1  0.87731260  0.58897039  0.21672146  1
  P  P220  1  0.94761194  0.08758429  0.21771387  1
  P  P221  1  0.13529834  0.40842196  0.15416896  1
  P  P222  1  0.69911878  0.25611900  0.28373169  1
  P  P223  1  0.53439774  0.93428316  0.35326860  1
  P  P224  1  0.60665349  0.43216736  0.34925583  1
  P  P225  1  0.78131641  0.76084341  0.28251933  1
  P  P226  1  0.36823293  0.59850834  0.42124575  1
  P  P227  1  0.41681578  0.10321969  0.42747995  1
  P  P228  1  0.94268669  0.07920059  0.57412950  1
  P  P229  1  0.90625740  0.57507492  0.57817106  1
  P  P230  1  0.14384257  0.40647134  0.64543864  1
  P  P231  1  0.29735768  0.73594239  0.71676848  1
  P  P232  1  0.22770521  0.23738852  0.71785036  1
  P  P233  1  0.03962403  0.91672026  0.65425246  1
  P  P234  1  0.47615080  0.06890947  0.78390521  1
  P  P235  1  0.64059050  0.39064410  0.85327496  1
  P  P236  1  0.56848678  0.89274631  0.84934513  1
  P  P237  1  0.39348637  0.56414719  0.78249329  1
  P  P238  1  0.80662521  0.72623648  0.92117976  1
  P  P239  1  0.75827084  0.22187957  0.92771491  1
  O  O240  1  0.85716101  0.79545174  0.08632590  1
  O  O241  1  0.88969790  0.18513227  0.03801436  1
  O  O242  1  0.81179059  0.45444950  0.02279933  1
  O  O243  1  0.66804631  0.14400207  0.06611628  1
  O  O244  1  0.03360188  0.65286301  0.07916830  1
  O  O245  1  0.17609736  0.99282751  0.99336923  1
  O  O246  1  0.74129526  0.68995952  0.04820101  1
  O  O247  1  0.48229038  0.33835080  0.09230504  1
  O  O248  1  0.17097671  0.73417562  0.05122732  1
  O  O249  1  0.51467820  0.59559032  0.03872298  1
  O  O250  1  0.30562079  0.25760431  0.10704501  1
  O  O251  1  0.18334086  0.75651628  0.11196310  1
  O  O252  1  0.56509720  0.04121152  0.04372966  1
  O  O253  1  0.34887027  0.23066312  0.04544729  1
  O  O254  1  0.07754682  0.30269910  0.06680974  1
  O  O255  1  0.43801912  0.70130479  0.08194180  1
  O  O256  1  0.29661765  0.52737605  0.04603795  1
  O  O257  1  0.17299521  0.19380279  0.08076278  1
  O  O258  1  0.28711188  0.80979833  0.06930876  1
  O  O259  1  0.80306449  0.80382870  0.02316300  1
  O  O260  1  0.69910963  0.44989503  0.10440118  1
  O  O261  1  0.85561509  0.54952327  0.05119287  1
  O  O262  1  0.66543110  0.21755394  0.11457736  1
  O  O263  1  0.91879323  0.70029125  0.13637940  1
  O  O264  1  0.06887968  0.04997621  0.04670145  1
  O  O265  1  0.41348185  0.95004211  0.10989599  1
  O  O266  1  0.58973135  0.28472677  0.03184981  1
  O  O267  1  0.74288117  0.34512476  0.06311732  1
  O  O268  1  0.01886857  0.67569246  0.00584954  1
  O  O269  1  0.94362708  0.97165807  0.02582081  1
  O  O270  1  0.77700056  0.63459908  0.11013745  1
  O  O271  1  0.93685341  0.13790472  0.09984172  1
  O  O272  1  0.09488974  0.46922703  0.01669105  1
  O  O273  1  0.68815597  0.13756916  0.98896885  1
  O  O274  1  0.56252969  0.84403112  0.06448386  1
  O  O275  1  0.99680364  0.43693248  0.07345133  1
  O  O276  1  0.58630764  0.56973385  0.10466813  1
  O  O277  1  0.76631325  0.90501455  0.05828743  1
  O  O278  1  0.44878268  0.40342392  0.03724142  1
  O  O279  1  0.26732430  0.07055371  0.10092271  1
  O  O280  1  0.23139239  0.92956272  0.05086366  1
  O  O281  1  0.50318151  0.18988296  0.23527845  1
  O  O282  1  0.70552871  0.51088634  0.15997818  1
  O  O283  1  0.45933099  0.82383618  0.13068127  1
  O  O284  1  0.32316109  0.48297989  0.19882104  1
  O  O285  1  0.70973386  0.98784414  0.20062160  1
  O  O286  1  0.87604506  0.31690991  0.12826927  1
  O  O287  1  0.27147357  0.01757988  0.16138552  1
  O  O288  1  0.13752922  0.68065547  0.23045819  1
  O  O289  1  0.86185722  0.07718808  0.18713533  1
  O  O290  1  0.04308114  0.38437941  0.13004668  1
  O  O291  1  0.12524501  0.92261761  0.17662552  1
  O  O292  1  0.94277039  0.60418437  0.24921138  1
  O  O293  1  0.84154977  0.10011282  0.24872611  1
  O  O294  1  0.03794581  0.42656776  0.18614445  1
  O  O295  1  0.13359549  0.91054794  0.11430503  1
  O  O296  1  0.00442042  0.57525205  0.18975948  1
  O  O297  1  0.87805067  0.97427050  0.14214138  1
  O  O298  1  0.73125008  0.64529054  0.20609645  1
  O  O299  1  0.09744244  0.03006378  0.22403894  1
  O  O300  1  0.29748997  0.35656493  0.15981493  1
  O  O301  1  0.98482502  0.86250746  0.14833209  1
  O  O302  1  0.83539376  0.53353052  0.22226849  1
  O  O303  1  0.00278486  0.13975007  0.21002383  1
  O  O304  1  0.16724121  0.46242306  0.13986481  1
  O  O305  1  0.50860076  0.11629112  0.18514353  1
  O  O306  1  0.33319594  0.78817890  0.24701880  1
  O  O307  1  0.47956977  0.89183108  0.18147835  1
  O  O308  1  0.30201585  0.55224754  0.25109849  1
  O  O309  1  0.56299255  0.05959700  0.25181968  1
  O  O310  1  0.74924468  0.38929849  0.17995606  1
  O  O311  1  0.06306671  0.29030626  0.25184134  1
  O  O312  1  0.25650615  0.62049407  0.17434182  1
  O  O313  1  0.38817460  0.69302730  0.19755910  1
  O  O314  1  0.53535092  0.02363962  0.13599014  1
  O  O315  1  0.62571976  0.31156131  0.16203643  1
  O  O316  1  0.44873585  0.98199146  0.22949914  1
  O  O317  1  0.58793615  0.48081002  0.22973009  1
  O  O318  1  0.74125843  0.81687568  0.15638217  1
  O  O319  1  0.42714978  0.51084946  0.13530543  1
  O  O320  1  0.23753862  0.19596455  0.20428111  1
  O  O321  1  0.71313901  0.10159167  0.12526548  1
  O  O322  1  0.55345014  0.77168773  0.18822968  1
  O  O323  1  0.26089861  0.90693567  0.23920447  1
  O  O324  1  0.44210761  0.23458998  0.17347798  1
  O  O325  1  0.09376209  0.74235840  0.17617705  1
  O  O326  1  0.90775526  0.41153599  0.24436489  1
  O  O327  1  0.91820899  0.27068980  0.18831559  1
  O  O328  1  0.07931407  0.57722311  0.12375729  1
  O  O329  1  0.15866785  0.52730904  0.36795987  1
  O  O330  1  0.35418257  0.85876461  0.29751118  1
  O  O331  1  0.13228939  0.16202223  0.26978918  1
  O  O332  1  0.94920997  0.84174518  0.34274658  1
  O  O333  1  0.35985750  0.32659464  0.33438331  1
  O  O334  1  0.54071604  0.66878814  0.26841015  1
  O  O335  1  0.94608427  0.36247782  0.30363908  1
  O  O336  1  0.76845197  0.03167261  0.37350738  1
  O  O337  1  0.54005786  0.41206698  0.31831057  1
  O  O338  1  0.70040009  0.75283675  0.25026360  1
  O  O339  1  0.77707424  0.27531730  0.31307333  1
  O  O340  1  0.63266389  0.94292877  0.38280317  1
  O  O341  1  0.48265575  0.45298469  0.37617180  1
  O  O342  1  0.67375118  0.76523460  0.31264511  1
  O  O343  1  0.80080149  0.24462800  0.25214177  1
  O  O344  1  0.62193085  0.93552273  0.32067026  1
  O  O345  1  0.53646002  0.30511829  0.27525121  1
  O  O346  1  0.37034908  0.98765810  0.35414754  1
  O  O347  1  0.75852100  0.38001167  0.36028770  1
  O  O348  1  0.94015922  0.70768851  0.28736684  1
  O  O349  1  0.67722837  0.19763662  0.29421347  1
  O  O350  1  0.51387812  0.87379730  0.35552621  1
  O  O351  1  0.64979246  0.48662829  0.33876260  1
  O  O352  1  0.81135982  0.82032442  0.28058048  1
  O  O353  1  0.17789440  0.45979044  0.31467077  1
  O  O354  1  0.97453957  0.14142916  0.39346375  1
  O  O355  1  0.13446212  0.23167694  0.32231225  1
  O  O356  1  0.97951222  0.90611330  0.39513997  1
  O  O357  1  0.22720454  0.39969260  0.38375228  1
  O  O358  1  0.38427536  0.73421556  0.31921800  1
  O  O359  1  0.74947636  0.62630244  0.38385550  1
  O  O360  1  0.91865269  0.96101126  0.32151393  1
  O  O361  1  0.01279538  0.04480827  0.34160534  1
  O  O362  1  0.19904069  0.36405536  0.26983822  1
  O  O363  1  0.28608417  0.65263731  0.29594550  1
  O  O364  1  0.10576639  0.32034917  0.36856235  1
  O  O365  1  0.23778262  0.83892265  0.36211053  1
  O  O366  1  0.40445585  0.15368788  0.29989625  1
  O  O367  1  0.07115503  0.86560573  0.27348842  1
  O  O368  1  0.89478031  0.53430723  0.33413413  1
  O  O369  1  0.39032664  0.43388390  0.25661148  1
  O  O370  1  0.19855720  0.11562349  0.33065851  1
  O  O371  1  0.89725614  0.25594249  0.37912074  1
  O  O372  1  0.09691004  0.58049769  0.31048569  1
  O  O373  1  0.72870520  0.07689654  0.31290307  1
  O  O374  1  0.58069540  0.74781061  0.37550735  1
  O  O375  1  0.56572359  0.61539396  0.32591862  1
  O  O376  1  0.73792506  0.94172366  0.25966620  1
  O  O377  1  0.77753651  0.91164711  0.45049133  1
  O  O378  1  0.98497923  0.21755148  0.43963050  1
  O  O379  1  0.81955194  0.50341604  0.39971103  1
  O  O380  1  0.83433572  0.13959900  0.46763500  1
  O  O381  1  0.92104745  0.61896321  0.45808161  1
  O  O382  1  0.15312854  0.01916272  0.41085366  1
  O  O383  1  0.61864344  0.69362555  0.43304152  1
  O  O384  1  0.57310229  0.39092063  0.49449286  1
  O  O385  1  0.99412687  0.77873419  0.47253505  1
  O  O386  1  0.33267542  0.09695350  0.39454680  1
  O  O387  1  0.48671745  0.59316825  0.44917622  1
  O  O388  1  0.29943350  0.11654763  0.45626703  1
  O  O389  1  0.45442256  0.59043993  0.38753614  1
  O  O390  1  0.22480260  0.26755705  0.44449753  1
  O  O391  1  0.22812022  0.66169943  0.42330670  1
  O  O392  1  0.56195307  0.04343823  0.43222690  1
  O  O393  1  0.30010937  0.54882885  0.42660289  1
  O  O394  1  0.35749895  0.80187547  0.46071761  1
  O  O395  1  0.47593405  0.15470200  0.42054058  1
  O  O396  1  0.78536540  0.81003252  0.42094151  1
  O  O397  1  0.80379658  0.51066923  0.46454797  1
  O  O398  1  0.11625047  0.04630223  0.47546772  1
  O  O399  1  0.50999028  0.30513283  0.46886004  1
  O  O400  1  0.75161088  0.33371036  0.44260336  1
  O  O401  1  0.87967328  0.70152922  0.39992288  1
  O  O402  1  0.90288597  0.01180746  0.44167046  1
  O  O403  1  0.64625184  0.63637429  0.49834935  1
  O  O404  1  0.99730386  0.18838801  0.51511128  1
  O  O405  1  0.08382507  0.48805253  0.43440960  1
  O  O406  1  0.69458760  0.21961613  0.41449134  1
  O  O407  1  0.66075430  0.84031946  0.48327265  1
  O  O408  1  0.09391472  0.78710417  0.40005762  1
  O  O409  1  0.96072577  0.40270060  0.43351221  1
  O  O410  1  0.50282986  0.89612994  0.43511568  1
  O  O411  1  0.44538361  0.41100073  0.43662720  1
  O  O412  1  0.18284880  0.93422771  0.45769095  1
  O  O413  1  0.39745698  0.27992896  0.39432390  1
  O  O414  1  0.31697651  0.52942098  0.58628562  1
  O  O415  1  0.28619070  0.13986190  0.53796414  1
  O  O416  1  0.36340968  0.87041139  0.52283133  1
  O  O417  1  0.50722518  0.18106296  0.56625259  1
  O  O418  1  0.14129681  0.67224135  0.57916902  1
  O  O419  1  0.99883210  0.33205372  0.49346279  1
  O  O420  1  0.43319869  0.63498547  0.54821384  1
  O  O421  1  0.69299147  0.98678027  0.59238396  1
  O  O422  1  0.00341287  0.59091721  0.55134643  1
  O  O423  1  0.65978997  0.72941309  0.53866648  1
  O  O424  1  0.86910463  0.06761462  0.60707972  1
  O  O425  1  0.99090015  0.56859207  0.61207842  1
  O  O426  1  0.61017616  0.28373364  0.54356226  1
  O  O427  1  0.82572759  0.09445257  0.54546893  1
  O  O428  1  0.09735792  0.02256629  0.56687178  1
  O  O429  1  0.73634431  0.62377316  0.58202923  1
  O  O430  1  0.87932863  0.79735456  0.54607975  1
  O  O431  1  0.00144937  0.13151269  0.58069585  1
  O  O432  1  0.88731550  0.51527578  0.56941096  1
  O  O433  1  0.37123289  0.52114364  0.52313301  1
  O  O434  1  0.47602251  0.87541836  0.60447995  1
  O  O435  1  0.31884607  0.77553449  0.55127598  1
  O  O436  1  0.50934307  0.10764977  0.61473229  1
  O  O437  1  0.25638395  0.62473084  0.63630551  1
  O  O438  1  0.10682063  0.27512661  0.54681382  1
  O  O439  1  0.76110022  0.37507833  0.60989624  1
  O  O440  1  0.58584766  0.04007810  0.53183451  1
  O  O441  1  0.43222871  0.98006247  0.56323423  1
  O  O442  1  0.15568288  0.64913707  0.50583354  1
  O  O443  1  0.23133814  0.35346714  0.52564972  1
  O  O444  1  0.39794490  0.69053171  0.61015868  1
  O  O445  1  0.23795639  0.18721366  0.59985063  1
  O  O446  1  0.07997271  0.85615240  0.51680244  1
  O  O447  1  0.48816144  0.18706259  0.48898833  1
  O  O448  1  0.61186206  0.48108001  0.56448197  1
  O  O449  1  0.17871714  0.88817027  0.57357316  1
  O  O450  1  0.58817282  0.75550821  0.60464802  1
  O  O451  1  0.40910299  0.41979607  0.55823480  1
  O  O452  1  0.72645634  0.92132457  0.53749730  1
  O  O453  1  0.90772443  0.25466826  0.60082695  1
  O  O454  1  0.94376263  0.39549505  0.55090274  1
  O  O455  1  0.67160228  0.13528283  0.73528505  1
  O  O456  1  0.46955860  0.81431774  0.66001266  1
  O  O457  1  0.71505156  0.50116965  0.63064371  1
  O  O458  1  0.85153205  0.84243121  0.69876695  1
  O  O459  1  0.46547801  0.33719970  0.70067948  1
  O  O460  1  0.29864976  0.00830531  0.62841651  1
  O  O461  1  0.90389432  0.30750770  0.66133265  1
  O  O462  1  0.03653996  0.64441824  0.73046417  1
  O  O463  1  0.31416067  0.24743407  0.68729423  1
  O  O464  1  0.13183975  0.94081397  0.63015264  1
  O  O465  1  0.04954446  0.40259796  0.67670516  1
  O  O466  1  0.23243110  0.72067336  0.74930185  1
  O  O467  1  0.33328264  0.22492931  0.74893692  1
  O  O468  1  0.13699549  0.89859179  0.68623208  1
  O  O469  1  0.04123755  0.41422294  0.61434736  1
  O  O470  1  0.16969782  0.74962769  0.68992924  1
  O  O471  1  0.29685500  0.35085083  0.64233117  1
  O  O472  1  0.44319713  0.67962156  0.70605248  1
  O  O473  1  0.07804737  0.29507777  0.72398652  1
  O  O474  1  0.87738262  0.96855934  0.65988657  1
  O  O475  1  0.18961191  0.46264593  0.64824760  1
  O  O476  1  0.33929390  0.79140299  0.72221915  1
  O  O477  1  0.17216257  0.18529118  0.71022082  1
  O  O478  1  0.00797239  0.86269137  0.63990736  1
  O  O479  1  0.66679721  0.20880663  0.68510571  1
  O  O480  1  0.84135352  0.53679932  0.74694101  1
  O  O481  1  0.69543390  0.43324131  0.68145176  1
  O  O482  1  0.87354388  0.77294538  0.75098770  1
  O  O483  1  0.61204016  0.26536440  0.75182391  1
  O  O484  1  0.42518734  0.93599717  0.68019284  1
  O  O485  1  0.11303532  0.03451853  0.75191717  1
  O  O486  1  0.91723399  0.70479388  0.67444205  1
  O  O487  1  0.78620938  0.63196288  0.69745559  1
  O  O488  1  0.63992332  0.30132925  0.63602180  1
  O  O489  1  0.54895658  0.01362037  0.66212059  1
  O  O490  1  0.72664204  0.34292768  0.72957099  1
  O  O491  1  0.58724024  0.84412204  0.72972874  1
  O  O492  1  0.43315360  0.50813066  0.65639291  1
  O  O493  1  0.74788672  0.81421783  0.63529046  1
  O  O494  1  0.93754989  0.12914351  0.70444590  1
  O  O495  1  0.46097311  0.22375029  0.62531050  1
  O  O496  1  0.62077498  0.55347574  0.68811934  1
  O  O497  1  0.91359914  0.41803717  0.73922277  1
  O  O498  1  0.73312778  0.09056872  0.67349142  1
  O  O499  1  0.08070675  0.58292554  0.67612094  1
  O  O500  1  0.26753530  0.91323090  0.74450538  1
  O  O501  1  0.25638145  0.05465211  0.68841072  1
  O  O502  1  0.09560585  0.74781299  0.62387803  1
  O  O503  1  0.01569073  0.79755132  0.86790459  1
  O  O504  1  0.82088082  0.46622373  0.79749710  1
  O  O505  1  0.04250891  0.16305335  0.76995330  1
  O  O506  1  0.22529807  0.48342635  0.84270963  1
  O  O507  1  0.81563450  0.99820608  0.83450995  1
  O  O508  1  0.63389299  0.65637087  0.76825315  1
  O  O509  1  0.22931887  0.96234781  0.80374039  1
  O  O510  1  0.40642424  0.29349548  0.87351380  1
  O  O511  1  0.63539223  0.91283615  0.81844385  1
  O  O512  1  0.47439512  0.57210792  0.75022733  1
  O  O513  1  0.39806528  0.04969670  0.81323598  1
  O  O514  1  0.54269781  0.38210921  0.88291607  1
  O  O515  1  0.69199652  0.87210001  0.87635703  1
  O  O516  1  0.50082409  0.56006796  0.81261631  1
  O  O517  1  0.37451989  0.08058420  0.75230360  1
  O  O518  1  0.55237094  0.38941494  0.82077976  1
  O  O519  1  0.63877117  0.01987096  0.77542900  1
  O  O520  1  0.80453587  0.33721094  0.85412069  1
  O  O521  1  0.41642388  0.94487759  0.86032220  1
  O  O522  1  0.23424306  0.61717543  0.78721999  1
  O  O523  1  0.49828511  0.12733857  0.79443832  1
  O  O524  1  0.66147792  0.45107778  0.85541326  1
  O  O525  1  0.52575291  0.83821766  0.83880494  1
  O  O526  1  0.36402905  0.50453897  0.78068886  1
  O  O527  1  0.99746036  0.86505646  0.81465228  1
  O  O528  1  0.20016502  0.18357048  0.89371380  1
  O  O529  1  0.04034501  0.09312973  0.82233520  1
  O  O530  1  0.19529982  0.41909694  0.89520051  1
  O  O531  1  0.94782849  0.92517235  0.88391951  1
  O  O532  1  0.79066617  0.59073912  0.81893046  1
  O  O533  1  0.42646022  0.69868316  0.88423046  1
  O  O534  1  0.25516489  0.36423947  0.82161758  1
  O  O535  1  0.16227176  0.28007862  0.84171662  1
  O  O536  1  0.97611782  0.96100935  0.76990620  1
  O  O537  1  0.88800361  0.67277132  0.79591692  1
  O  O538  1  0.06946191  0.00446608  0.86869653  1
  O  O539  1  0.93697281  0.48626688  0.86212506  1
  O  O540  1  0.77034350  0.17144288  0.80007789  1
  O  O541  1  0.10368010  0.45943750  0.77338341  1
  O  O542  1  0.28025316  0.79050726  0.83426819  1
  O  O543  1  0.78431807  0.89131091  0.75663420  1
  O  O544  1  0.97688517  0.20908585  0.83091264  1
  O  O545  1  0.27698825  0.06903531  0.87931638  1
  O  O546  1  0.07858384  0.74432249  0.81046722  1
  O  O547  1  0.44605589  0.24840896  0.81289782  1
  O  O548  1  0.59442290  0.57716999  0.87536762  1
  O  O549  1  0.60845424  0.70941067  0.82586822  1
  O  O550  1  0.43722666  0.38322064  0.75973452  1
  O  O551  1  0.39817707  0.41351547  0.95038640  1
  O  O552  1  0.19082946  0.10728699  0.93991118  1
  O  O553  1  0.35596260  0.82159624  0.89962269  1
  O  O554  1  0.34210274  0.18523569  0.96773035  1
  O  O555  1  0.25384413  0.70512583  0.95801782  1
  O  O556  1  0.02170737  0.30587679  0.91100024  1
  O  O557  1  0.55578225  0.63059534  0.93311218  1
  O  O558  1  0.60173050  0.93402394  0.99467764  1
  O  O559  1  0.18135898  0.54638901  0.97248355  1
  O  O560  1  0.84210547  0.22823668  0.89474715  1
  O  O561  1  0.68787949  0.73114120  0.94898056  1
  O  O562  1  0.87595675  0.20854862  0.95646150  1
  O  O563  1  0.72117996  0.73433658  0.88739150  1
  O  O564  1  0.95062278  0.05727164  0.94443161  1
  O  O565  1  0.94717373  0.66320745  0.92322533  1
  O  O566  1  0.61300505  0.28162858  0.93248896  1
  O  O567  1  0.87407267  0.77607474  0.92672404  1
  O  O568  1  0.81837181  0.52318960  0.96084949  1
  O  O569  1  0.69937265  0.17032520  0.92072295  1
  O  O570  1  0.38970418  0.51518484  0.92079735  1
  O  O571  1  0.37134641  0.81377873  0.96447280  1
  O  O572  1  0.05999846  0.27861706  0.97561782  1
  O  O573  1  0.66542320  0.01958308  0.96891611  1
  O  O574  1  0.42389237  0.99076038  0.94261104  1
  O  O575  1  0.29482305  0.62353157  0.89952311  1
  O  O576  1  0.27243547  0.31320589  0.94166535  1
  O  O577  1  0.52854873  0.68835594  0.99827041  1
  O  O578  1  0.17854583  0.13678445  0.01524818  1
  O  O579  1  0.09197484  0.83623816  0.93427329  1
  O  O580  1  0.48061231  0.10526623  0.91446001  1
  O  O581  1  0.51466732  0.48477314  0.98313518  1
  O  O582  1  0.08080880  0.53812098  0.90005155  1
  O  O583  1  0.21411111  0.92191913  0.93359416  1
  O  O584  1  0.67268841  0.42929431  0.93488726  1
  O  O585  1  0.73022083  0.91353301  0.93687689  1
  O  O586  1  0.99251332  0.39069395  0.95784035  1
  O  O587  1  0.77767512  0.04500282  0.89440108  1
