# generated using pymatgen
data_Na24Zr16Si14(P2O29)3
_symmetry_space_group_name_H-M   'P 1'
_cell_length_a   9.15937100
_cell_length_b   24.11698144
_cell_length_c   39.45391235
_cell_angle_alpha   90.00000000
_cell_angle_beta   90.00000000
_cell_angle_gamma   67.67936926
_symmetry_Int_Tables_number   1
_chemical_formula_structural   Na24Zr16Si14(P2O29)3
_chemical_formula_sum   'Na96 Zr64 Si56 P24 O348'
_cell_volume   8062.22088784
_cell_formula_units_Z   4
loop_
 _symmetry_equiv_pos_site_id
 _symmetry_equiv_pos_as_xyz
  1  'x, y, z'
loop_
 _atom_site_type_symbol
 _atom_site_label
 _atom_site_symmetry_multiplicity
 _atom_site_fract_x
 _atom_site_fract_y
 _atom_site_fract_z
 _atom_site_occupancy
  Na  Na0  1  0.08649857  0.84384806  0.06946881  1
  Na  Na1  1  0.92702744  0.32367225  0.01394720  1
  Na  Na2  1  0.57399110  0.46907427  0.06629060  1
  Na  Na3  1  0.45716583  0.11981074  0.11439930  1
  Na  Na4  1  0.31418733  0.58552728  0.09102479  1
  Na  Na5  1  0.60536087  0.80501315  0.00622330  1
  Na  Na6  1  0.36152057  0.60803936  0.00806764  1
  Na  Na7  1  0.25872579  0.37172481  0.08532666  1
  Na  Na8  1  0.05525314  0.58002648  0.02932703  1
  Na  Na9  1  0.93088534  0.22360668  0.08393541  1
  Na  Na10  1  0.67997394  0.73670840  0.08632240  1
  Na  Na11  1  0.86515233  0.04916191  0.98977058  1
  Na  Na12  1  0.51433531  0.30516785  0.21643521  1
  Na  Na13  1  0.92232093  0.51566158  0.12762424  1
  Na  Na14  1  0.57834345  0.64811966  0.14271442  1
  Na  Na15  1  0.14015577  0.43295018  0.24518729  1
  Na  Na16  1  0.96971784  0.81999257  0.21415233  1
  Na  Na17  1  0.18581760  0.25146881  0.15722699  1
  Na  Na18  1  0.05196331  0.09492121  0.14194708  1
  Na  Na19  1  0.89500648  0.68268796  0.19426083  1
  Na  Na20  1  0.73197106  0.89144004  0.13993789  1
  Na  Na21  1  0.56653747  0.55863017  0.22130152  1
  Na  Na22  1  0.34455610  0.06071267  0.21372609  1
  Na  Na23  1  0.51797045  0.39187564  0.14879935  1
  Na  Na24  1  0.31026151  0.66092524  0.36369324  1
  Na  Na25  1  0.59266606  0.85061668  0.25730691  1
  Na  Na26  1  0.25270672  0.99037936  0.28334327  1
  Na  Na27  1  0.78669010  0.77927265  0.38744798  1
  Na  Na28  1  0.64484419  0.25484294  0.36110965  1
  Na  Na29  1  0.83632061  0.58091317  0.29508514  1
  Na  Na30  1  0.76051345  0.42216730  0.29426725  1
  Na  Na31  1  0.55882252  0.02884560  0.33737115  1
  Na  Na32  1  0.39269317  0.22422390  0.27833350  1
  Na  Na33  1  0.22474193  0.89230216  0.34907181  1
  Na  Na34  1  0.95440611  0.38552123  0.39062642  1
  Na  Na35  1  0.16253351  0.72680277  0.28323034  1
  Na  Na36  1  0.17622544  0.84745370  0.45081403  1
  Na  Na37  1  0.21025043  0.20342940  0.42217025  1
  Na  Na38  1  0.81454299  0.28288708  0.42328983  1
  Na  Na39  1  0.81266177  0.03623950  0.48645819  1
  Na  Na40  1  0.98395894  0.58340934  0.45717408  1
  Na  Na41  1  0.47490816  0.90309075  0.42118617  1
  Na  Na42  1  0.40794270  0.74487940  0.42324871  1
  Na  Na43  1  0.23790384  0.43259617  0.49925113  1
  Na  Na44  1  0.04719533  0.59599089  0.37370930  1
  Na  Na45  1  0.64968309  0.20492812  0.51910826  1
  Na  Na46  1  0.67474487  0.72585033  0.47099757  1
  Na  Na47  1  0.75787735  0.09993108  0.36950876  1
  Na  Na48  1  0.16879215  0.44436214  0.58450101  1
  Na  Na49  1  0.27773806  0.00869725  0.50933906  1
  Na  Na50  1  0.82363089  0.76771505  0.58368233  1
  Na  Na51  1  0.72722326  0.20641117  0.61332144  1
  Na  Na52  1  0.89164737  0.70422509  0.52093806  1
  Na  Na53  1  0.89478453  0.52500950  0.52136083  1
  Na  Na54  1  0.55452431  0.48427026  0.48145113  1
  Na  Na55  1  0.91643569  0.95558958  0.58373033  1
  Na  Na56  1  0.20425350  0.74440462  0.51248145  1
  Na  Na57  1  0.25163087  0.10419609  0.58414003  1
  Na  Na58  1  0.51694311  0.59958758  0.57805562  1
  Na  Na59  1  0.27240600  0.30655141  0.45798154  1
  Na  Na60  1  0.66153245  0.04075798  0.71406597  1
  Na  Na61  1  0.26512015  0.80642865  0.62412547  1
  Na  Na62  1  0.78658362  0.59354547  0.65066013  1
  Na  Na63  1  0.02557597  0.89550352  0.73871676  1
  Na  Na64  1  0.20154631  0.51897513  0.71400212  1
  Na  Na65  1  0.99447605  0.07242656  0.65407191  1
  Na  Na66  1  0.11840687  0.22654041  0.64195836  1
  Na  Na67  1  0.29517330  0.65044850  0.68494907  1
  Na  Na68  1  0.45395418  0.43157430  0.65338015  1
  Na  Na69  1  0.61297357  0.76674045  0.70491797  1
  Na  Na70  1  0.83459010  0.26434537  0.71314202  1
  Na  Na71  1  0.65571890  0.93431665  0.65158745  1
  Na  Na72  1  0.06880943  0.68081774  0.85295960  1
  Na  Na73  1  0.57780600  0.47278387  0.75926785  1
  Na  Na74  1  0.91407516  0.33492883  0.78197265  1
  Na  Na75  1  0.35241976  0.54469152  0.87878848  1
  Na  Na76  1  0.50677982  0.06238595  0.86793980  1
  Na  Na77  1  0.33977045  0.73296756  0.80258088  1
  Na  Na78  1  0.41875893  0.90467305  0.78829820  1
  Na  Na79  1  0.61188994  0.29606548  0.83430943  1
  Na  Na80  1  0.77427414  0.09680098  0.79720648  1
  Na  Na81  1  0.93249887  0.43098644  0.85319964  1
  Na  Na82  1  0.19174202  0.93615063  0.88290937  1
  Na  Na83  1  0.00254140  0.59751068  0.78225710  1
  Na  Na84  1  0.00260025  0.51019779  0.94097144  1
  Na  Na85  1  0.96630153  0.11381617  0.91908146  1
  Na  Na86  1  0.52496985  0.91228829  0.93497153  1
  Na  Na87  1  0.35951417  0.29131439  0.97297362  1
  Na  Na88  1  0.81340568  0.65727114  0.98667263  1
  Na  Na89  1  0.67356753  0.38890745  0.92212223  1
  Na  Na90  1  0.81056544  0.64271444  0.89858574  1
  Na  Na91  1  0.93510645  0.89145209  0.99634962  1
  Na  Na92  1  0.13566101  0.76638518  0.91502945  1
  Na  Na93  1  0.51266198  0.12695340  0.02062276  1
  Na  Na94  1  0.60337413  0.56234161  0.92753541  1
  Na  Na95  1  0.41117688  0.22279587  0.86823860  1
  Zr  Zr96  1  0.99436091  0.71869540  0.03490644  1
  Zr  Zr97  1  0.91368406  0.36123299  0.09815204  1
  Zr  Zr98  1  0.66099734  0.59760957  0.05516772  1
  Zr  Zr99  1  0.70789344  0.00063545  0.06898467  1
  Zr  Zr100  1  0.32258228  0.45662835  0.02078768  1
  Zr  Zr101  1  0.23706892  0.08654545  0.06028906  1
  Zr  Zr102  1  0.40689145  0.86171902  0.09270627  1
  Zr  Zr103  1  0.77076076  0.20527282  0.00313314  1
  Zr  Zr104  1  0.74603443  0.01945068  0.16014083  1
  Zr  Zr105  1  0.55662484  0.69452698  0.22577922  1
  Zr  Zr106  1  0.33292213  0.92885887  0.20477743  1
  Zr  Zr107  1  0.54725836  0.25043728  0.12964322  1
  Zr  Zr108  1  0.00193440  0.75604731  0.13943226  1
  Zr  Zr109  1  0.82951522  0.42676415  0.20630839  1
  Zr  Zr110  1  0.07693648  0.19069726  0.22858788  1
  Zr  Zr111  1  0.23732062  0.52322308  0.16039960  1
  Zr  Zr112  1  0.40070847  0.35843253  0.29960990  1
  Zr  Zr113  1  0.22389955  0.02986687  0.36627768  1
  Zr  Zr114  1  0.00419081  0.26107569  0.33978390  1
  Zr  Zr115  1  0.17415721  0.59230457  0.27611795  1
  Zr  Zr116  1  0.66876288  0.09668981  0.27039568  1
  Zr  Zr117  1  0.50063547  0.76069869  0.34001184  1
  Zr  Zr118  1  0.72422179  0.52792639  0.36433800  1
  Zr  Zr119  1  0.90468820  0.86029297  0.29407104  1
  Zr  Zr120  1  0.08016419  0.69792597  0.43870253  1
  Zr  Zr121  1  0.92730257  0.34023083  0.48318830  1
  Zr  Zr122  1  0.59286076  0.61950368  0.48350433  1
  Zr  Zr123  1  0.84641721  0.93368430  0.40611834  1
  Zr  Zr124  1  0.28385017  0.43793416  0.41459243  1
  Zr  Zr125  1  0.98307245  0.13346109  0.48603285  1
  Zr  Zr126  1  0.46604454  0.85282314  0.49849187  1
  Zr  Zr127  1  0.58531499  0.19115381  0.43793903  1
  Zr  Zr128  1  0.22724930  0.60171244  0.52441859  1
  Zr  Zr129  1  0.27401535  0.96596924  0.59216293  1
  Zr  Zr130  1  0.51661580  0.73973451  0.55404307  1
  Zr  Zr131  1  0.47852496  0.32102912  0.56553777  1
  Zr  Zr132  1  0.86506844  0.87108846  0.52163855  1
  Zr  Zr133  1  0.94576966  0.24001318  0.55978186  1
  Zr  Zr134  1  0.77656725  0.46755125  0.59242073  1
  Zr  Zr135  1  0.40362137  0.12756347  0.50339501  1
  Zr  Zr136  1  0.42890559  0.30307720  0.65580382  1
  Zr  Zr137  1  0.61526410  0.63428974  0.72789449  1
  Zr  Zr138  1  0.84085980  0.39510861  0.70336373  1
  Zr  Zr139  1  0.63270189  0.07598765  0.62940167  1
  Zr  Zr140  1  0.18893262  0.57082354  0.63389224  1
  Zr  Zr141  1  0.34203476  0.90103427  0.70270824  1
  Zr  Zr142  1  0.09598920  0.13363341  0.72742096  1
  Zr  Zr143  1  0.93964333  0.80167461  0.65786816  1
  Zr  Zr144  1  0.77088642  0.96402408  0.79829551  1
  Zr  Zr145  1  0.94994022  0.29340892  0.86458919  1
  Zr  Zr146  1  0.16583537  0.06348216  0.83930255  1
  Zr  Zr147  1  0.00324106  0.73286654  0.77391930  1
  Zr  Zr148  1  0.50579562  0.22692774  0.76917060  1
  Zr  Zr149  1  0.67231161  0.56175565  0.83584688  1
  Zr  Zr150  1  0.45011129  0.79442622  0.86462370  1
  Zr  Zr151  1  0.25918171  0.46186074  0.78959953  1
  Zr  Zr152  1  0.12371994  0.64605236  0.94513808  1
  Zr  Zr153  1  0.23088072  0.98805031  0.98157900  1
  Zr  Zr154  1  0.45773559  0.71155710  0.97220778  1
  Zr  Zr155  1  0.30974801  0.39614880  0.90254747  1
  Zr  Zr156  1  0.86681831  0.89403450  0.91357918  1
  Zr  Zr157  1  0.18636913  0.19614825  0.98476890  1
  Zr  Zr158  1  0.72436723  0.47269741  0.99336415  1
  Zr  Zr159  1  0.58596875  0.13562079  0.93828929  1
  Si  Si160  1  0.77787509  0.84347237  0.06485353  1
  Si  Si161  1  0.80545861  0.12596313  0.08104007  1
  Si  Si162  1  0.96839914  0.45983920  0.05189091  1
  Si  Si163  1  0.10881854  0.96346486  0.04369956  1
  Si  Si164  1  0.96649494  0.63223988  0.10393270  1
  Si  Si165  1  0.61109352  0.32605211  0.05886973  1
  Si  Si166  1  0.62907447  0.49393056  0.13102077  1
  Si  Si167  1  0.46803465  0.15698000  0.19437282  1
  Si  Si168  1  0.44397586  0.45841900  0.23593365  1
  Si  Si169  1  0.61598317  0.79597012  0.16895160  1
  Si  Si170  1  0.83486367  0.29312244  0.16665271  1
  Si  Si171  1  0.65944550  0.96048198  0.23329399  1
  Si  Si172  1  0.24509816  0.65758914  0.19990693  1
  Si  Si173  1  0.41358525  0.99688865  0.12932204  1
  Si  Si174  1  0.28769829  0.82881471  0.26670287  1
  Si  Si175  1  0.10771223  0.48944090  0.33430745  1
  Si  Si176  1  0.10288473  0.79552146  0.37050053  1
  Si  Si177  1  0.27633810  0.12787485  0.30092972  1
  Si  Si178  1  0.49108539  0.62615461  0.30136581  1
  Si  Si179  1  0.30107894  0.30274294  0.37730800  1
  Si  Si180  1  0.92046368  0.99283205  0.33147508  1
  Si  Si181  1  0.07315686  0.32379702  0.26867435  1
  Si  Si182  1  0.95384093  0.16010675  0.40077815  1
  Si  Si183  1  0.80968637  0.83544612  0.45690080  1
  Si  Si184  1  0.89222092  0.47537850  0.44622849  1
  Si  Si185  1  0.13991926  0.97834904  0.44664465  1
  Si  Si186  1  0.54505758  0.33345202  0.47752735  1
  Si  Si187  1  0.72696167  0.65976228  0.40315915  1
  Si  Si188  1  0.41622766  0.47914345  0.56191705  1
  Si  Si189  1  0.37277890  0.20159351  0.58276300  1
  Si  Si190  1  0.20860119  0.88138033  0.54755286  1
  Si  Si191  1  0.06997528  0.36448086  0.54278270  1
  Si  Si192  1  0.20591420  0.69676984  0.59440222  1
  Si  Si193  1  0.57527064  0.00393274  0.55579711  1
  Si  Si194  1  0.54349573  0.83990965  0.62618353  1
  Si  Si195  1  0.70850778  0.16879970  0.69268520  1
  Si  Si196  1  0.73473012  0.86438985  0.73358387  1
  Si  Si197  1  0.56883212  0.53137591  0.66578406  1
  Si  Si198  1  0.33773640  0.03482915  0.66389062  1
  Si  Si199  1  0.51456222  0.36253553  0.73180852  1
  Si  Si200  1  0.93990118  0.66828604  0.69868496  1
  Si  Si201  1  0.76013462  0.33222975  0.62753722  1
  Si  Si202  1  0.88081974  0.49512924  0.76526354  1
  Si  Si203  1  0.05502983  0.83251751  0.83723502  1
  Si  Si204  1  0.04882130  0.53387632  0.86355295  1
  Si  Si205  1  0.89612606  0.19618249  0.79926693  1
  Si  Si206  1  0.69144940  0.69857856  0.80286851  1
  Si  Si207  1  0.85251300  0.02650145  0.87495908  1
  Si  Si208  1  0.24785592  0.33043053  0.82912052  1
  Si  Si209  1  0.09690385  0.00107075  0.76671557  1
  Si  Si210  1  0.21523709  0.16309643  0.90178017  1
  Si  Si211  1  0.36163581  0.49914461  0.95532202  1
  Si  Si212  1  0.25974606  0.85064528  0.94671175  1
  Si  Si213  1  0.02127212  0.35265090  0.94375504  1
  Si  Si214  1  0.62290687  0.99507836  0.97971425  1
  Si  Si215  1  0.41941739  0.66411057  0.89247292  1
  P  P216  1  0.25067685  0.23380909  0.06975797  1
  P  P217  1  0.32209185  0.72333855  0.08113982  1
  P  P218  1  0.08058807  0.89055660  0.14913870  1
  P  P219  1  0.90827494  0.55829509  0.21618971  1
  P  P220  1  0.99427298  0.06247317  0.21350930  1
  P  P221  1  0.18577584  0.38399303  0.15831218  1
  P  P222  1  0.74323568  0.22663498  0.28411201  1
  P  P223  1  0.57529683  0.89962503  0.34473173  1
  P  P224  1  0.63546848  0.39060198  0.35987006  1
  P  P225  1  0.82498474  0.72576947  0.28120760  1
  P  P226  1  0.38905094  0.56581413  0.41898116  1
  P  P227  1  0.50632212  0.06121886  0.42262295  1
  P  P228  1  0.92676129  0.09726434  0.56968693  1
  P  P229  1  0.88067432  0.60633399  0.57503193  1
  P  P230  1  0.09455594  0.43914535  0.65270335  1
  P  P231  1  0.26830088  0.76701183  0.71559859  1
  P  P232  1  0.18123204  0.26327988  0.71179941  1
  P  P233  1  0.99383584  0.94151952  0.65424029  1
  P  P234  1  0.42877631  0.09676889  0.78395349  1
  P  P235  1  0.59151017  0.42413917  0.84341155  1
  P  P236  1  0.52207847  0.93443878  0.85732839  1
  P  P237  1  0.34483498  0.59845499  0.77763096  1
  P  P238  1  0.75682128  0.76536241  0.92655609  1
  P  P239  1  0.65396723  0.26847167  0.92228522  1
  O  O240  1  0.88225770  0.79750053  0.09534565  1
  O  O241  1  0.96375055  0.21825663  0.01088047  1
  O  O242  1  0.85952275  0.42668986  0.03427595  1
  O  O243  1  0.74884229  0.14328629  0.04127842  1
  O  O244  1  0.05620788  0.65054021  0.07193512  1
  O  O245  1  0.07158311  0.95467355  0.00376750  1
  O  O246  1  0.78644908  0.72120173  0.03335995  1
  O  O247  1  0.52945187  0.31842311  0.09512708  1
  O  O248  1  0.21162262  0.73346854  0.05037115  1
  O  O249  1  0.10914802  0.35206958  0.13381120  1
  O  O250  1  0.59736319  0.53940530  0.03121049  1
  O  O251  1  0.37320425  0.23545595  0.09709971  1
  O  O252  1  0.22287862  0.73020580  0.11424231  1
  O  O253  1  0.47930267  0.05938924  0.06256584  1
  O  O254  1  0.19615781  0.86941396  0.11949225  1
  O  O255  1  0.30953480  0.22567509  0.03307599  1
  O  O256  1  0.10749320  0.29551683  0.07147298  1
  O  O257  1  0.44901843  0.65752566  0.08169512  1
  O  O258  1  0.30458490  0.52483888  0.04556075  1
  O  O259  1  0.20328586  0.18063783  0.08126804  1
  O  O260  1  0.40227496  0.76909623  0.08009722  1
  O  O261  1  0.89067139  0.81908288  0.03111053  1
  O  O262  1  0.70646871  0.42459025  0.11497978  1
  O  O263  1  0.89371415  0.53289795  0.04680450  1
  O  O264  1  0.72358337  0.18695950  0.10645805  1
  O  O265  1  0.93380808  0.68547014  0.13256092  1
  O  O266  1  0.19823215  0.01253817  0.03879550  1
  O  O267  1  0.42286526  0.93716050  0.10816775  1
  O  O268  1  0.61580622  0.27643154  0.03007924  1
  O  O269  1  0.78748119  0.32664524  0.06522221  1
  O  O270  1  0.07783801  0.65904654  0.99789719  1
  O  O271  1  0.94532487  0.98599011  0.06437825  1
  O  O272  1  0.79497663  0.63011150  0.09282515  1
  O  O273  1  0.99502029  0.11347076  0.08279720  1
  O  O274  1  0.14816803  0.43127298  0.03650210  1
  O  O275  1  0.75359601  0.14561902  0.96891505  1
  O  O276  1  0.60225346  0.84093282  0.06102813  1
  O  O277  1  0.98059253  0.43585609  0.09073451  1
  O  O278  1  0.64851505  0.54370571  0.10502428  1
  O  O279  1  0.76441392  0.91055776  0.07598435  1
  O  O280  1  0.49996025  0.39287611  0.04506480  1
  O  O281  1  0.28744468  0.05952297  0.11442089  1
  O  O282  1  0.23886475  0.89929038  0.05627241  1
  O  O283  1  0.54403318  0.15775835  0.23153730  1
  O  O284  1  0.71440389  0.49175117  0.16780493  1
  O  O285  1  0.55280870  0.81022034  0.13014592  1
  O  O286  1  0.37328713  0.46586485  0.19723343  1
  O  O287  1  0.71644145  0.96474337  0.19365449  1
  O  O288  1  0.91021326  0.29368013  0.12905314  1
  O  O289  1  0.36984001  0.98626342  0.16842709  1
  O  O290  1  0.19360258  0.65142560  0.23892750  1
  O  O291  1  0.91852010  0.04702244  0.18098335  1
  O  O292  1  0.75048944  0.70987768  0.24912426  1
  O  O293  1  0.16227647  0.90484625  0.18012918  1
  O  O294  1  0.99467052  0.57512156  0.24581209  1
  O  O295  1  0.87923983  0.07799627  0.24319479  1
  O  O296  1  0.07337402  0.40637159  0.18904565  1
  O  O297  1  0.85739131  0.21415707  0.25393832  1
  O  O298  1  0.01783272  0.53797655  0.18511622  1
  O  O299  1  0.93422912  0.94680295  0.13879469  1
  O  O300  1  0.75983283  0.61289543  0.20541281  1
  O  O301  1  0.14587552  0.00884716  0.22397229  1
  O  O302  1  0.35057178  0.33651217  0.16699222  1
  O  O303  1  0.01751649  0.84058571  0.15746659  1
  O  O304  1  0.86137420  0.50650749  0.22910912  1
  O  O305  1  0.04261768  0.11487356  0.20266084  1
  O  O306  1  0.21024193  0.43845442  0.14103711  1
  O  O307  1  0.56169392  0.09251684  0.17457038  1
  O  O308  1  0.39884006  0.76711713  0.24615964  1
  O  O309  1  0.51513053  0.85236622  0.19349811  1
  O  O310  1  0.34382161  0.52017368  0.25709442  1
  O  O311  1  0.64345644  0.02265508  0.25207177  1
  O  O312  1  0.78688099  0.36015465  0.18371187  1
  O  O313  1  0.11875380  0.25919483  0.24951941  1
  O  O314  1  0.24847777  0.59817612  0.17897194  1
  O  O315  1  0.42276281  0.65926041  0.19686809  1
  O  O316  1  0.59727226  0.99846165  0.12541797  1
  O  O317  1  0.67129851  0.28097741  0.16300756  1
  O  O318  1  0.48314793  0.95714148  0.23465165  1
  O  O319  1  0.62814624  0.45400304  0.23547276  1
  O  O320  1  0.79974605  0.79248945  0.16985405  1
  O  O321  1  0.43904805  0.50547333  0.13217257  1
  O  O322  1  0.28255479  0.16515196  0.19793536  1
  O  O323  1  0.73841669  0.07653582  0.09805924  1
  O  O324  1  0.61031582  0.73215595  0.18227609  1
  O  O325  1  0.30428507  0.88821020  0.25021181  1
  O  O326  1  0.47421317  0.20800540  0.16708746  1
  O  O327  1  0.11134569  0.71839495  0.18418090  1
  O  O328  1  0.95441204  0.38213853  0.24745440  1
  O  O329  1  0.96882964  0.24159612  0.18765652  1
  O  O330  1  0.09069370  0.56829219  0.11935954  1
  O  O331  1  0.16910579  0.48764340  0.37345778  1
  O  O332  1  0.35297174  0.82268128  0.30588131  1
  O  O333  1  0.20691845  0.12459318  0.26301780  1
  O  O334  1  0.02353030  0.80329510  0.33250039  1
  O  O335  1  0.39535351  0.30848759  0.34262221  1
  O  O336  1  0.55225860  0.63320183  0.26322616  1
  O  O337  1  0.97955985  0.32609358  0.30413355  1
  O  O338  1  0.85540386  0.99257783  0.37031293  1
  O  O339  1  0.57469872  0.38239479  0.32393590  1
  O  O340  1  0.40454054  0.05289563  0.39277090  1
  O  O341  1  0.81615384  0.24163742  0.31648428  1
  O  O342  1  0.67339080  0.92628450  0.36601254  1
  O  O343  1  0.50516010  0.40350185  0.38672587  1
  O  O344  1  0.70076114  0.74555242  0.30982223  1
  O  O345  1  0.49200361  0.55817684  0.38689660  1
  O  O346  1  0.66184467  0.87988472  0.31023999  1
  O  O347  1  0.58534354  0.27985104  0.27533874  1
  O  O348  1  0.40959750  0.95038975  0.33958418  1
  O  O349  1  0.77711962  0.33145735  0.36964584  1
  O  O350  1  0.96892969  0.67122052  0.29315496  1
  O  O351  1  0.69757995  0.17277551  0.29275183  1
  O  O352  1  0.54660032  0.84553179  0.36137035  1
  O  O353  1  0.70016798  0.44116912  0.35606666  1
  O  O354  1  0.87512211  0.77842982  0.27141165  1
  O  O355  1  0.21854633  0.43293028  0.31152267  1
  O  O356  1  0.02709348  0.09703724  0.38017721  1
  O  O357  1  0.17696804  0.19404882  0.31768946  1
  O  O358  1  0.04083122  0.86130358  0.38955528  1
  O  O359  1  0.23831464  0.36553849  0.39964487  1
  O  O360  1  0.47650913  0.68653595  0.32320228  1
  O  O361  1  0.75894778  0.60485563  0.37589662  1
  O  O362  1  0.94055856  0.93012848  0.31244654  1
  O  O363  1  0.09575098  0.99569550  0.33386994  1
  O  O364  1  0.24497149  0.33010997  0.27350520  1
  O  O365  1  0.31123424  0.62628152  0.30428205  1
  O  O366  1  0.13866480  0.29291997  0.36825782  1
  O  O367  1  0.29671362  0.77645365  0.36887149  1
  O  O368  1  0.46146430  0.12162593  0.29792753  1
  O  O369  1  0.10916178  0.82827366  0.26502289  1
  O  O370  1  0.92476099  0.49341685  0.33388053  1
  O  O371  1  0.42630489  0.39981332  0.25321126  1
  O  O372  1  0.27533038  0.07231880  0.32457768  1
  O  O373  1  0.99332307  0.21291442  0.38226744  1
  O  O374  1  0.10486852  0.55251770  0.31675339  1
  O  O375  1  0.78502495  0.05071147  0.31400856  1
  O  O376  1  0.62880631  0.72383224  0.38293468  1
  O  O377  1  0.61729737  0.56593971  0.31821864  1
  O  O378  1  0.78751491  0.89871684  0.24910930  1
  O  O379  1  0.94838246  0.85502500  0.47234962  1
  O  O380  1  0.02484073  0.15701197  0.43914116  1
  O  O381  1  0.83679247  0.49211897  0.40695504  1
  O  O382  1  0.75741821  0.14362688  0.47051504  1
  O  O383  1  0.78872816  0.62359223  0.49572315  1
  O  O384  1  0.21855139  0.98177582  0.40878251  1
  O  O385  1  0.61388515  0.65848369  0.43538796  1
  O  O386  1  0.47232693  0.32082121  0.51369080  1
  O  O387  1  0.21162590  0.73595468  0.45404048  1
  O  O388  1  0.46086712  0.58048682  0.45072829  1
  O  O389  1  0.41475958  0.07765619  0.45622713  1
  O  O390  1  0.04037534  0.28160610  0.45240669  1
  O  O391  1  0.22921428  0.61834887  0.40991871  1
  O  O392  1  0.65055181  0.00176064  0.42850257  1
  O  O393  1  0.35461506  0.50913195  0.42778433  1
  O  O394  1  0.45663180  0.81068879  0.45871670  1
  O  O395  1  0.56493688  0.11184749  0.41223161  1
  O  O396  1  0.86070453  0.76299865  0.45465654  1
  O  O397  1  0.77009873  0.51937468  0.47387784  1
  O  O398  1  0.06857024  0.04032930  0.46968416  1
  O  O399  1  0.59760599  0.27138052  0.45526079  1
  O  O400  1  0.69267598  0.35435903  0.48317285  1
  O  O401  1  0.89729221  0.65940764  0.41602277  1
  O  O402  1  0.99230708  0.95559972  0.43915949  1
  O  O403  1  0.49050772  0.69565526  0.51371358  1
  O  O404  1  0.92573887  0.21196206  0.51281642  1
  O  O405  1  0.07616347  0.47522455  0.44846013  1
  O  O406  1  0.76091728  0.18141295  0.40012848  1
  O  O407  1  0.66997256  0.86799355  0.48592815  1
  O  O408  1  0.06410223  0.74232390  0.38964824  1
  O  O409  1  0.88985234  0.40794196  0.45002077  1
  O  O410  1  0.75145945  0.86790475  0.42086101  1
  O  O411  1  0.40406340  0.38755556  0.45744306  1
  O  O412  1  0.28643592  0.92845313  0.46776634  1
  O  O413  1  0.41493810  0.24771632  0.40138508  1
  O  O414  1  0.30091109  0.51488593  0.59393733  1
  O  O415  1  0.20829693  0.11667654  0.51111310  1
  O  O416  1  0.31631476  0.92043370  0.53718815  1
  O  O417  1  0.43717062  0.18114133  0.54396940  1
  O  O418  1  0.15592220  0.67280285  0.55835205  1
  O  O419  1  0.10319457  0.36953552  0.50228212  1
  O  O420  1  0.44519781  0.59337643  0.51943456  1
  O  O421  1  0.65269625  0.01821118  0.59104294  1
  O  O422  1  0.01332571  0.58822159  0.54821293  1
  O  O423  1  0.06841918  0.97349364  0.62975363  1
  O  O424  1  0.62519955  0.78233145  0.52624712  1
  O  O425  1  0.80627127  0.09939510  0.59834132  1
  O  O426  1  0.95963307  0.60201288  0.61090268  1
  O  O427  1  0.70267217  0.26341382  0.56222811  1
  O  O428  1  0.97251696  0.46036775  0.62369113  1
  O  O429  1  0.86048792  0.10727869  0.53333714  1
  O  O430  1  0.06628366  0.03582386  0.57028138  1
  O  O431  1  0.75737612  0.67179990  0.57033959  1
  O  O432  1  0.94168962  0.79374045  0.53944429  1
  O  O433  1  0.98142934  0.14968368  0.57956163  1
  O  O434  1  0.79534787  0.56139323  0.57434586  1
  O  O435  1  0.31648979  0.50489191  0.52643227  1
  O  O436  1  0.47369488  0.90986756  0.61288927  1
  O  O437  1  0.31152013  0.81444885  0.53204956  1
  O  O438  1  0.45126309  0.14391741  0.60966516  1
  O  O439  1  0.25873827  0.63721976  0.62004994  1
  O  O440  1  0.97162636  0.31856658  0.54055537  1
  O  O441  1  0.75532983  0.39389019  0.60847594  1
  O  O442  1  0.57239682  0.05036603  0.52429984  1
  O  O443  1  0.39495324  0.00956492  0.56271489  1
  O  O444  1  0.11240133  0.64238099  0.48355529  1
  O  O445  1  0.23043556  0.34578924  0.56436005  1
  O  O446  1  0.36195432  0.71247185  0.58614808  1
  O  O447  1  0.18282755  0.21532294  0.58277450  1
  O  O448  1  0.02912148  0.90740933  0.53254439  1
  O  O449  1  0.41103423  0.19117735  0.46984945  1
  O  O450  1  0.58286592  0.48886599  0.56207056  1
  O  O451  1  0.20063386  0.89025698  0.58817338  1
  O  O452  1  0.53045510  0.79128180  0.59892235  1
  O  O453  1  0.43960878  0.40904904  0.56620081  1
  O  O454  1  0.69360740  0.93559577  0.54705640  1
  O  O455  1  0.88842535  0.27082274  0.61198406  1
  O  O456  1  0.95069875  0.43260384  0.55514970  1
  O  O457  1  0.62501548  0.17197986  0.72926442  1
  O  O458  1  0.45097271  0.83946669  0.66222077  1
  O  O459  1  0.64006274  0.52984166  0.62755313  1
  O  O460  1  0.81906299  0.85994094  0.69643624  1
  O  O461  1  0.46581622  0.35281444  0.69230974  1
  O  O462  1  0.26386762  0.03429527  0.62632483  1
  O  O463  1  0.80571865  0.33835459  0.66700623  1
  O  O464  1  0.00352104  0.67019860  0.73714141  1
  O  O465  1  0.25477435  0.27916018  0.67886153  1
  O  O466  1  0.40931509  0.61857170  0.74562522  1
  O  O467  1  0.02127933  0.42136634  0.68352204  1
  O  O468  1  0.18566003  0.75285880  0.74680996  1
  O  O469  1  0.29540662  0.24927394  0.74153342  1
  O  O470  1  0.09817645  0.92390860  0.68648028  1
  O  O471  1  0.31092690  0.11058244  0.75421753  1
  O  O472  1  0.16375716  0.77585708  0.68344016  1
  O  O473  1  0.24187673  0.38595443  0.63916908  1
  O  O474  1  0.42540229  0.71429759  0.70716092  1
  O  O475  1  0.02830754  0.31667218  0.72219859  1
  O  O476  1  0.82369446  0.98731318  0.66136392  1
  O  O477  1  0.14899489  0.49173197  0.66006408  1
  O  O478  1  0.30094326  0.82358300  0.72388896  1
  O  O479  1  0.13492716  0.21031112  0.70162063  1
  O  O480  1  0.98040236  0.88319103  0.63914179  1
  O  O481  1  0.61083751  0.22919286  0.66935962  1
  O  O482  1  0.76438354  0.55965035  0.74881185  1
  O  O483  1  0.66304130  0.46779416  0.68516202  1
  O  O484  1  0.83064338  0.80187199  0.75446783  1
  O  O485  1  0.52911717  0.30364672  0.75372228  1
  O  O486  1  0.38417742  0.96867862  0.68195054  1
  O  O487  1  0.05178039  0.06492487  0.74662448  1
  O  O488  1  0.90190287  0.73281387  0.67982965  1
  O  O489  1  0.77530622  0.65554691  0.69845494  1
  O  O490  1  0.57720699  0.33099245  0.62342626  1
  O  O491  1  0.50321999  0.04625864  0.66117375  1
  O  O492  1  0.69027703  0.36692810  0.73277881  1
  O  O493  1  0.55087809  0.86971669  0.73005079  1
  O  O494  1  0.38474872  0.53640693  0.66484337  1
  O  O495  1  0.73308504  0.82601062  0.63234675  1
  O  O496  1  0.89045685  0.16449255  0.69617330  1
  O  O497  1  0.43250747  0.25406897  0.59931606  1
  O  O498  1  0.57959216  0.59004371  0.68433035  1
  O  O499  1  0.85133870  0.43876844  0.74804628  1
  O  O500  1  0.71247352  0.11141824  0.66973736  1
  O  O501  1  0.07674192  0.61443889  0.67778360  1
  O  O502  1  0.21994212  0.94344435  0.74552387  1
  O  O503  1  0.20448372  0.08686576  0.68523468  1
  O  O504  1  0.06913746  0.75220115  0.61462401  1
  O  O505  1  0.98351723  0.83422803  0.87576943  1
  O  O506  1  0.82880565  0.49625153  0.80515722  1
  O  O507  1  0.96504225  0.20152724  0.76171303  1
  O  O508  1  0.12187515  0.51978168  0.82492565  1
  O  O509  1  0.75746980  0.02329490  0.83972451  1
  O  O510  1  0.62747084  0.69226015  0.76464544  1
  O  O511  1  0.18682702  0.00006061  0.80257676  1
  O  O512  1  0.30193383  0.33503492  0.86853270  1
  O  O513  1  0.58907358  0.93895675  0.82188295  1
  O  O514  1  0.75693151  0.27938468  0.89360152  1
  O  O515  1  0.35590439  0.08366535  0.81687529  1
  O  O516  1  0.49918069  0.39787317  0.86691499  1
  O  O517  1  0.64379422  0.92881038  0.88558297  1
  O  O518  1  0.48157371  0.57260087  0.80333815  1
  O  O519  1  0.67610669  0.75944811  0.89269694  1
  O  O520  1  0.49586781  0.44293738  0.80982095  1
  O  O521  1  0.58253756  0.04251041  0.77444802  1
  O  O522  1  0.75486446  0.37287123  0.83703425  1
  O  O523  1  0.37272360  0.99096504  0.86520119  1
  O  O524  1  0.21093739  0.65239268  0.79403131  1
  O  O525  1  0.47947280  0.15009710  0.79115408  1
  O  O526  1  0.61935450  0.47874371  0.85880906  1
  O  O527  1  0.47056835  0.88004334  0.85781205  1
  O  O528  1  0.28749052  0.54760033  0.76768707  1
  O  O529  1  0.94312480  0.89212608  0.81619874  1
  O  O530  1  0.13910036  0.22737104  0.88114263  1
  O  O531  1  0.99291013  0.12967751  0.81556265  1
  O  O532  1  0.13416866  0.46934007  0.88450264  1
  O  O533  1  0.91591450  0.96042629  0.89397790  1
  O  O534  1  0.69925545  0.63709055  0.82282322  1
  O  O535  1  0.40551592  0.71765317  0.86632552  1
  O  O536  1  0.23297476  0.39064690  0.80808435  1
  O  O537  1  0.07218380  0.32764733  0.83141870  1
  O  O538  1  0.92752408  0.99259639  0.77263350  1
  O  O539  1  0.87180845  0.69763106  0.80316223  1
  O  O540  1  0.01532024  0.03665928  0.86670695  1
  O  O541  1  0.86057479  0.54292366  0.86855342  1
  O  O542  1  0.71049044  0.20281870  0.79731467  1
  O  O543  1  0.05985446  0.49310517  0.75950182  1
  O  O544  1  0.23566950  0.83210729  0.83929712  1
  O  O545  1  0.74964325  0.92086507  0.75399485  1
  O  O546  1  0.89679990  0.25058056  0.82416519  1
  O  O547  1  0.17440543  0.11284823  0.88108857  1
  O  O548  1  0.06258687  0.77135102  0.81689172  1
  O  O549  1  0.38683783  0.27119715  0.81395681  1
  O  O550  1  0.51855437  0.59796210  0.87568829  1
  O  O551  1  0.56607298  0.75934084  0.81999070  1
  O  O552  1  0.38632340  0.42696886  0.74491297  1
  O  O553  1  0.21322693  0.49269497  0.97572908  1
  O  O554  1  0.13683895  0.16959195  0.93964798  1
  O  O555  1  0.33661293  0.82035651  0.91035041  1
  O  O556  1  0.40757543  0.18722020  0.96946608  1
  O  O557  1  0.26690628  0.70037739  0.96758448  1
  O  O558  1  0.95115732  0.34766747  0.90542295  1
  O  O559  1  0.52727364  0.66705447  0.92608185  1
  O  O560  1  0.70855246  0.99031922  0.01714981  1
  O  O561  1  0.97870297  0.60747477  0.94559991  1
  O  O562  1  0.67831155  0.74498937  0.95648518  1
  O  O563  1  0.73682408  0.25810935  0.95704473  1
  O  O564  1  0.08487139  0.05014272  0.95894591  1
  O  O565  1  0.93630815  0.72431209  0.92408055  1
  O  O566  1  0.50355610  0.32732335  0.92747204  1
  O  O567  1  0.75091526  0.82996513  0.93230813  1
  O  O568  1  0.77487173  0.52528420  0.96627617  1
  O  O569  1  0.60200696  0.21683734  0.91168355  1
  O  O570  1  0.34415957  0.56828999  0.94970273  1
  O  O571  1  0.35507906  0.80442613  0.97740924  1
  O  O572  1  0.10183892  0.29145613  0.96704026  1
  O  O573  1  0.60080099  0.06135939  0.96540462  1
  O  O574  1  0.45996025  0.98291891  0.98030513  1
  O  O575  1  0.24311570  0.66643290  0.90113389  1
  O  O576  1  0.15967867  0.38130781  0.93798499  1
  O  O577  1  0.57710603  0.65509427  0.01221001  1
  O  O578  1  0.24540464  0.12194226  0.01522205  1
  O  O579  1  0.07055653  0.85946090  0.94449373  1
  O  O580  1  0.40628781  0.14519276  0.90181298  1
  O  O581  1  0.50829586  0.46501252  0.98291614  1
  O  O582  1  0.08008964  0.59107686  0.87714174  1
  O  O583  1  0.28333182  0.91487832  0.94837109  1
  O  O584  1  0.40387569  0.45999081  0.92108352  1
  O  O585  1  0.74434834  0.94197267  0.95535053  1
  O  O586  1  0.86072359  0.39634044  0.96463350  1
  O  O587  1  0.73823563  0.07975197  0.89974854  1
