# generated using pymatgen
data_Na24Zr14Si12P6O79
_symmetry_space_group_name_H-M   'P 1'
_cell_length_a   9.15937100
_cell_length_b   24.11698144
_cell_length_c   39.03098901
_cell_angle_alpha   90.00000000
_cell_angle_beta   90.00000000
_cell_angle_gamma   67.67936926
_symmetry_Int_Tables_number   1
_chemical_formula_structural   Na24Zr14Si12P6O79
_chemical_formula_sum   'Na96 Zr56 Si48 P24 O316'
_cell_volume   7975.79849721
_cell_formula_units_Z   4
loop_
 _symmetry_equiv_pos_site_id
 _symmetry_equiv_pos_as_xyz
  1  'x, y, z'
loop_
 _atom_site_type_symbol
 _atom_site_label
 _atom_site_symmetry_multiplicity
 _atom_site_fract_x
 _atom_site_fract_y
 _atom_site_fract_z
 _atom_site_occupancy
  Na  Na0  1  0.11598836  0.81162396  0.05738681  1
  Na  Na1  1  0.37069552  0.16199855  0.97245448  1
  Na  Na2  1  0.57431816  0.31182768  0.97989489  1
  Na  Na3  1  0.56755386  0.05277230  0.07651185  1
  Na  Na4  1  0.46449797  0.45958581  0.05540869  1
  Na  Na5  1  0.67402296  0.90584132  0.06626094  1
  Na  Na6  1  0.47864415  0.75200971  0.01584497  1
  Na  Na7  1  0.26888729  0.36572958  0.07238410  1
  Na  Na8  1  0.98270177  0.44351644  0.01215281  1
  Na  Na9  1  0.96410663  0.18364280  0.07425065  1
  Na  Na10  1  0.71202436  0.67135098  0.07772936  1
  Na  Na11  1  0.93774671  0.98946010  0.02489291  1
  Na  Na12  1  0.71233548  0.18588267  0.20679847  1
  Na  Na13  1  0.95939593  0.47553635  0.13267433  1
  Na  Na14  1  0.51779993  0.59331803  0.14228151  1
  Na  Na15  1  0.28009250  0.34580315  0.22084019  1
  Na  Na16  1  0.05560506  0.87256384  0.22563708  1
  Na  Na17  1  0.22744077  0.19413546  0.14560684  1
  Na  Na18  1  0.09130382  0.04580783  0.14512577  1
  Na  Na19  1  0.93270898  0.66103642  0.20616280  1
  Na  Na20  1  0.75393054  0.84775278  0.15820151  1
  Na  Na21  1  0.61799177  0.51224318  0.22397936  1
  Na  Na22  1  0.38846219  0.01495233  0.21071345  1
  Na  Na23  1  0.56442956  0.34642706  0.14806387  1
  Na  Na24  1  0.38055922  0.52590640  0.35656679  1
  Na  Na25  1  0.59411148  0.82693601  0.27177806  1
  Na  Na26  1  0.03501808  0.05214706  0.29475100  1
  Na  Na27  1  0.99468840  0.67542243  0.35715351  1
  Na  Na28  1  0.69906632  0.23365571  0.37322655  1
  Na  Na29  1  0.88034110  0.51138814  0.29279523  1
  Na  Na30  1  0.76895952  0.33300264  0.27707633  1
  Na  Na31  1  0.59716035  0.04133739  0.34985895  1
  Na  Na32  1  0.44372277  0.19260006  0.30122433  1
  Na  Na33  1  0.25249692  0.85909014  0.33875672  1
  Na  Na34  1  0.01736447  0.36483756  0.37429365  1
  Na  Na35  1  0.21249344  0.68576537  0.28220644  1
  Na  Na36  1  0.82755348  0.82239538  0.49799307  1
  Na  Na37  1  0.20932949  0.17814569  0.47649748  1
  Na  Na38  1  0.65632506  0.37290494  0.47987195  1
  Na  Na39  1  0.73917063  0.96563460  0.48501290  1
  Na  Na40  1  0.12714813  0.55367286  0.50711508  1
  Na  Na41  1  0.63543360  0.81973576  0.42949222  1
  Na  Na42  1  0.37033200  0.71778133  0.42458365  1
  Na  Na43  1  0.30827956  0.28931389  0.45108821  1
  Na  Na44  1  0.09343964  0.55061915  0.41844431  1
  Na  Na45  1  0.90732729  0.05371063  0.50264337  1
  Na  Na46  1  0.84555898  0.69289316  0.51285070  1
  Na  Na47  1  0.86092520  0.03121461  0.41555978  1
  Na  Na48  1  0.97042613  0.15837155  0.55447009  1
  Na  Na49  1  0.48595555  0.87947467  0.51652986  1
  Na  Na50  1  0.26537306  0.65889707  0.49923545  1
  Na  Na51  1  0.54230496  0.92626580  0.58556564  1
  Na  Na52  1  0.43332585  0.53864120  0.55580914  1
  Na  Na53  1  0.53373799  0.10673690  0.51318942  1
  Na  Na54  1  0.47615887  0.26127761  0.51645672  1
  Na  Na55  1  0.79857668  0.60097268  0.57563735  1
  Na  Na56  1  0.28124460  0.41321446  0.49570815  1
  Na  Na57  1  0.10217578  0.78895944  0.58535366  1
  Na  Na58  1  0.32112013  0.29030559  0.58953537  1
  Na  Na59  1  0.92149812  0.02732698  0.57972284  1
  Na  Na60  1  0.33727310  0.79250733  0.70413563  1
  Na  Na61  1  0.11361324  0.48801299  0.64146755  1
  Na  Na62  1  0.63458701  0.29487710  0.64543148  1
  Na  Na63  1  0.73654929  0.63838863  0.71793781  1
  Na  Na64  1  0.01340413  0.10005275  0.72018374  1
  Na  Na65  1  0.84506445  0.77935295  0.64606580  1
  Na  Na66  1  0.92638444  0.92543264  0.64180868  1
  Na  Na67  1  0.12913650  0.30458626  0.70246180  1
  Na  Na68  1  0.29724871  0.12289678  0.64531454  1
  Na  Na69  1  0.45077885  0.45393601  0.71326214  1
  Na  Na70  1  0.67700717  0.95467143  0.71371133  1
  Na  Na71  1  0.49766081  0.62272232  0.65335948  1
  Na  Na72  1  0.69464991  0.44278221  0.85480551  1
  Na  Na73  1  0.46904649  0.13658429  0.76957354  1
  Na  Na74  1  0.98649904  0.94268611  0.78852270  1
  Na  Na75  1  0.04559554  0.32472897  0.85103443  1
  Na  Na76  1  0.32536203  0.76069175  0.86703170  1
  Na  Na77  1  0.18494018  0.47284587  0.78621322  1
  Na  Na78  1  0.28586503  0.64682441  0.77302713  1
  Na  Na79  1  0.46726146  0.93612866  0.85864971  1
  Na  Na80  1  0.61730632  0.78627375  0.79262439  1
  Na  Na81  1  0.81144122  0.12042494  0.84198954  1
  Na  Na82  1  0.98497155  0.62385923  0.84817761  1
  Na  Na83  1  0.84969712  0.28306626  0.77752471  1
  Na  Na84  1  0.02042726  0.20623716  0.98900015  1
  Na  Na85  1  0.80214143  0.80832290  0.98056413  1
  Na  Na86  1  0.56978207  0.56722080  0.99095651  1
  Na  Na87  1  0.11897787  0.06632310  0.98740090  1
  Na  Na88  1  0.75347020  0.38735248  0.01183220  1
  Na  Na89  1  0.25238295  0.21868542  0.90192975  1
  Na  Na90  1  0.78849605  0.19889666  0.92940288  1
  Na  Na91  1  0.75477763  0.65722348  0.98156006  1
  Na  Na92  1  0.93822893  0.44869646  0.92579759  1
  Na  Na93  1  0.36582457  0.91755238  0.02523589  1
  Na  Na94  1  0.16575783  0.30775661  0.00343986  1
  Na  Na95  1  0.13360019  0.96345185  0.91342471  1
  Zr  Zr96  1  0.09837093  0.62374710  0.03111924  1
  Zr  Zr97  1  0.96103898  0.31840692  0.08264768  1
  Zr  Zr98  1  0.72053254  0.54137541  0.06117108  1
  Zr  Zr99  1  0.55241279  0.21873158  0.12435561  1
  Zr  Zr100  1  0.04880372  0.72087291  0.13531110  1
  Zr  Zr101  1  0.25196213  0.03678901  0.06489608  1
  Zr  Zr102  1  0.45002683  0.80752926  0.08786880  1
  Zr  Zr103  1  0.71007939  0.15223926  0.01834717  1
  Zr  Zr104  1  0.77511620  0.98250701  0.15299636  1
  Zr  Zr105  1  0.60671892  0.64569866  0.23059266  1
  Zr  Zr106  1  0.39029847  0.87823920  0.20062887  1
  Zr  Zr107  1  0.21367829  0.55254455  0.27441332  1
  Zr  Zr108  1  0.68959520  0.05860512  0.26682709  1
  Zr  Zr109  1  0.87462084  0.38025961  0.20199381  1
  Zr  Zr110  1  0.11876790  0.15121430  0.22675445  1
  Zr  Zr111  1  0.29358620  0.47842062  0.15694860  1
  Zr  Zr112  1  0.42650855  0.32864537  0.30201370  1
  Zr  Zr113  1  0.25779829  0.99080839  0.36605978  1
  Zr  Zr114  1  0.04538635  0.22938159  0.34359656  1
  Zr  Zr115  1  0.85114695  0.90089450  0.41295760  1
  Zr  Zr116  1  0.36704600  0.39964174  0.41944886  1
  Zr  Zr117  1  0.52394398  0.72687624  0.34424421  1
  Zr  Zr118  1  0.78015455  0.49877620  0.37931935  1
  Zr  Zr119  1  0.93658204  0.82359434  0.29841890  1
  Zr  Zr120  1  0.01652959  0.70459254  0.44482663  1
  Zr  Zr121  1  0.66357107  0.57257956  0.47859377  1
  Zr  Zr122  1  0.22322533  0.03763601  0.44391826  1
  Zr  Zr123  1  0.59319124  0.15545244  0.43928781  1
  Zr  Zr124  1  0.04056497  0.34772755  0.52793111  1
  Zr  Zr125  1  0.10396229  0.64721099  0.58388344  1
  Zr  Zr126  1  0.34082255  0.41651675  0.57064135  1
  Zr  Zr127  1  0.51503948  0.74817418  0.62597788  1
  Zr  Zr128  1  0.02204838  0.26175511  0.62467859  1
  Zr  Zr129  1  0.85826186  0.91570249  0.55467231  1
  Zr  Zr130  1  0.63000121  0.16010243  0.58197413  1
  Zr  Zr131  1  0.22113431  0.80746854  0.50441900  1
  Zr  Zr132  1  0.28886386  0.98685768  0.64753301  1
  Zr  Zr133  1  0.45558416  0.32302999  0.72790964  1
  Zr  Zr134  1  0.67720676  0.09013062  0.69553849  1
  Zr  Zr135  1  0.84992051  0.41647637  0.77272711  1
  Zr  Zr136  1  0.36188059  0.91770267  0.76658732  1
  Zr  Zr137  1  0.18446807  0.58587795  0.70433582  1
  Zr  Zr138  1  0.93922525  0.82154832  0.72444528  1
  Zr  Zr139  1  0.75646337  0.49293635  0.66063917  1
  Zr  Zr140  1  0.61894974  0.65086754  0.79971307  1
  Zr  Zr141  1  0.77476862  0.98940785  0.86292282  1
  Zr  Zr142  1  0.99994155  0.75613090  0.84226359  1
  Zr  Zr143  1  0.17646647  0.08578499  0.91132686  1
  Zr  Zr144  1  0.67317744  0.59064936  0.91614140  1
  Zr  Zr145  1  0.52369664  0.25076200  0.84227535  1
  Zr  Zr146  1  0.27607508  0.49186127  0.86758829  1
  Zr  Zr147  1  0.11516957  0.14995265  0.79311349  1
  Zr  Zr148  1  0.95982758  0.31335005  0.94002909  1
  Zr  Zr149  1  0.32912657  0.43979508  0.94383121  1
  Zr  Zr150  1  0.76540776  0.94933152  0.93705502  1
  Zr  Zr151  1  0.44889164  0.81663772  0.93611602  1
  Si  Si152  1  0.68097725  0.44762923  0.12793916  1
  Si  Si153  1  0.84554684  0.76625834  0.05362093  1
  Si  Si154  1  0.83506489  0.08570004  0.08926601  1
  Si  Si155  1  0.08008046  0.54114239  0.07909193  1
  Si  Si156  1  0.61256809  0.29736622  0.05344925  1
  Si  Si157  1  0.45802620  0.94323268  0.12658705  1
  Si  Si158  1  0.33764501  0.77934789  0.26663965  1
  Si  Si159  1  0.50657137  0.11439861  0.19052454  1
  Si  Si160  1  0.48053721  0.42032102  0.23394612  1
  Si  Si161  1  0.64770813  0.74063799  0.16159065  1
  Si  Si162  1  0.88127267  0.24789142  0.15870999  1
  Si  Si163  1  0.69823278  0.92246711  0.23158425  1
  Si  Si164  1  0.28599489  0.61128788  0.19829279  1
  Si  Si165  1  0.12470516  0.28063081  0.26709707  1
  Si  Si166  1  0.98551816  0.13640968  0.41058216  1
  Si  Si167  1  0.16340138  0.45901281  0.34292145  1
  Si  Si168  1  0.12595973  0.76809535  0.37376241  1
  Si  Si169  1  0.30245979  0.09671932  0.30367241  1
  Si  Si170  1  0.52990464  0.59061568  0.30898397  1
  Si  Si171  1  0.34811435  0.27415155  0.37758938  1
  Si  Si172  1  0.92627213  0.96012352  0.33515764  1
  Si  Si173  1  0.76116585  0.63871947  0.41068371  1
  Si  Si174  1  0.98106746  0.44277735  0.45478305  1
  Si  Si175  1  0.17212139  0.92835183  0.45136167  1
  Si  Si176  1  0.38565658  0.51830720  0.62962638  1
  Si  Si177  1  0.23690129  0.19708326  0.54890370  1
  Si  Si178  1  0.24276145  0.88014439  0.58481625  1
  Si  Si179  1  0.99422295  0.40425312  0.59427309  1
  Si  Si180  1  0.45543054  0.67108601  0.55093865  1
  Si  Si181  1  0.61296593  0.02716179  0.62056621  1
  Si  Si182  1  0.71816139  0.18910899  0.76412308  1
  Si  Si183  1  0.55391612  0.85551265  0.68965296  1
  Si  Si184  1  0.57533903  0.55163180  0.73532465  1
  Si  Si185  1  0.42347296  0.22516447  0.65838273  1
  Si  Si186  1  0.18992824  0.71615758  0.66074991  1
  Si  Si187  1  0.36261108  0.04875104  0.72633476  1
  Si  Si188  1  0.77250012  0.35915733  0.69520067  1
  Si  Si189  1  0.93528004  0.69131599  0.76699500  1
  Si  Si190  1  0.03611456  0.85021240  0.91222195  1
  Si  Si191  1  0.88151001  0.51674769  0.84026519  1
  Si  Si192  1  0.92287289  0.21852078  0.86704603  1
  Si  Si193  1  0.74467357  0.88546472  0.79921919  1
  Si  Si194  1  0.52105902  0.38661782  0.80357254  1
  Si  Si195  1  0.68547866  0.71624855  0.87310511  1
  Si  Si196  1  0.12386774  0.01690721  0.83455242  1
  Si  Si197  1  0.27664669  0.34749619  0.90668888  1
  Si  Si198  1  0.06386957  0.54622481  0.95628500  1
  Si  Si199  1  0.81882252  0.06094639  0.94663809  1
  P  P200  1  0.31303921  0.18039041  0.06095466  1
  P  P201  1  0.36388391  0.66596424  0.07508188  1
  P  P202  1  0.11430570  0.84936157  0.14326721  1
  P  P203  1  0.95918590  0.51347913  0.21655253  1
  P  P204  1  0.03639917  0.01408198  0.21373793  1
  P  P205  1  0.21606592  0.34384442  0.14574610  1
  P  P206  1  0.78524551  0.19120792  0.28666569  1
  P  P207  1  0.59939153  0.86219834  0.35382795  1
  P  P208  1  0.68197199  0.36427925  0.36019221  1
  P  P209  1  0.85732037  0.68949597  0.28789922  1
  P  P210  1  0.45693058  0.52837819  0.43844873  1
  P  P211  1  0.51351302  0.04214606  0.42406090  1
  P  P212  1  0.78054306  0.78273629  0.57195825  1
  P  P213  1  0.72324913  0.29819868  0.56156909  1
  P  P214  1  0.95048051  0.12742310  0.64007442  1
  P  P215  1  0.10369372  0.45266657  0.71704057  1
  P  P216  1  0.02882286  0.95649540  0.70801251  1
  P  P217  1  0.85462484  0.61974458  0.64790325  1
  P  P218  1  0.26975341  0.78656935  0.78285617  1
  P  P219  1  0.43930035  0.11858906  0.85295626  1
  P  P220  1  0.35054981  0.62358463  0.85695762  1
  P  P221  1  0.19847367  0.28171113  0.78369586  1
  P  P222  1  0.62255422  0.45008947  0.92935847  1
  P  P223  1  0.43316617  0.93526636  0.94655273  1
  O  O224  1  0.94553792  0.75252212  0.09027377  1
  O  O225  1  0.91898038  0.14668158  0.01782709  1
  O  O226  1  0.57027540  0.73576679  0.12507997  1
  O  O227  1  0.76755101  0.07700503  0.05071474  1
  O  O228  1  0.21126110  0.53344877  0.04858569  1
  O  O229  1  0.97310711  0.24499211  0.12264960  1
  O  O230  1  0.72313843  0.60375837  0.03030691  1
  O  O231  1  0.53890566  0.28693961  0.09099144  1
  O  O232  1  0.28755779  0.64553062  0.04368047  1
  O  O233  1  0.15023400  0.32126935  0.11506183  1
  O  O234  1  0.66212719  0.48945220  0.03214625  1
  O  O235  1  0.38380857  0.19331370  0.09522256  1
  O  O236  1  0.25476379  0.67607154  0.10688969  1
  O  O237  1  0.46826040  0.99067524  0.05133208  1
  O  O238  1  0.22392050  0.82506268  0.11263206  1
  O  O239  1  0.43409577  0.16686086  0.03126312  1
  O  O240  1  0.96998102  0.90512217  0.13307170  1
  O  O241  1  0.15473561  0.23260677  0.05287788  1
  O  O242  1  0.52042963  0.61501770  0.08506107  1
  O  O243  1  0.27618478  0.12259404  0.06770576  1
  O  O244  1  0.38798471  0.72328784  0.06498928  1
  O  O245  1  0.24691440  0.40050628  0.13427347  1
  O  O246  1  0.93154991  0.70782182  0.02739239  1
  O  O247  1  0.79026185  0.38744272  0.10688442  1
  O  O248  1  0.72382230  0.15639131  0.09816197  1
  O  O249  1  0.98394025  0.61505894  0.07559656  1
  O  O250  1  0.15583494  0.00388566  0.03141074  1
  O  O251  1  0.49165359  0.87982321  0.10578352  1
  O  O252  1  0.61473943  0.24242669  0.02692521  1
  O  O253  1  0.79636447  0.29322280  0.05734135  1
  O  O254  1  0.62935902  0.95178974  0.12434552  1
  O  O255  1  0.96568368  0.50421291  0.07129928  1
  O  O256  1  0.01516222  0.08106572  0.09169934  1
  O  O257  1  0.49826179  0.44975183  0.12837229  1
  O  O258  1  0.66437071  0.77015058  0.06035535  1
  O  O259  1  0.79703226  0.03764663  0.11419462  1
  O  O260  1  0.02910866  0.36157531  0.04951232  1
  O  O261  1  0.69128970  0.50884634  0.11243544  1
  O  O262  1  0.85518598  0.82661770  0.03735607  1
  O  O263  1  0.49919027  0.36139015  0.03696572  1
  O  O264  1  0.30523860  0.99905190  0.11297302  1
  O  O265  1  0.33359841  0.83710134  0.04705222  1
  O  O266  1  0.15427007  0.52208061  0.11713484  1
  O  O267  1  0.59677103  0.11770285  0.22656682  1
  O  O268  1  0.74999400  0.44415256  0.16718472  1
  O  O269  1  0.21342780  0.09148320  0.26843169  1
  O  O270  1  0.40763290  0.41651641  0.19598264  1
  O  O271  1  0.77887609  0.92145890  0.19382180  1
  O  O272  1  0.62663712  0.58173604  0.27243275  1
  O  O273  1  0.41577438  0.93757168  0.16680273  1
  O  O274  1  0.19800601  0.61403432  0.23502373  1
  O  O275  1  0.94747082  0.00563669  0.18155823  1
  O  O276  1  0.77886720  0.67094825  0.25723422  1
  O  O277  1  0.20163737  0.86123859  0.17434464  1
  O  O278  1  0.04196101  0.52766598  0.24838746  1
  O  O279  1  0.92410297  0.03135202  0.24504834  1
  O  O280  1  0.09766459  0.36196567  0.17596527  1
  O  O281  1  0.89066737  0.17948830  0.25391885  1
  O  O282  1  0.06812348  0.49927932  0.18481766  1
  O  O283  1  0.64112948  0.25095466  0.28172035  1
  O  O284  1  0.80713738  0.56961418  0.20924085  1
  O  O285  1  0.17948315  0.95546399  0.22165954  1
  O  O286  1  0.37302937  0.29389712  0.15731477  1
  O  O287  1  0.04873405  0.79966297  0.15431396  1
  O  O288  1  0.91148021  0.46029145  0.22621891  1
  O  O289  1  0.09513304  0.06552220  0.20567395  1
  O  O290  1  0.87427991  0.74950693  0.27796611  1
  O  O291  1  0.58940953  0.04710778  0.17421657  1
  O  O292  1  0.41925285  0.71114770  0.25140528  1
  O  O293  1  0.56421376  0.80876881  0.17815872  1
  O  O294  1  0.39487451  0.48739243  0.25117911  1
  O  O295  1  0.64049078  0.99124243  0.24686586  1
  O  O296  1  0.83445320  0.31375931  0.17786193  1
  O  O297  1  0.17345476  0.21536557  0.24804187  1
  O  O298  1  0.32967253  0.54746200  0.17781302  1
  O  O299  1  0.46066328  0.61506743  0.20280826  1
  O  O300  1  0.28927074  0.29082416  0.27569485  1
  O  O301  1  0.71215053  0.23832973  0.15486039  1
  O  O302  1  0.54310347  0.90357547  0.23044077  1
  O  O303  1  0.67158059  0.40561183  0.23242827  1
  O  O304  1  0.83892225  0.73021486  0.15689382  1
  O  O305  1  0.14903038  0.79281710  0.27240232  1
  O  O306  1  0.32170056  0.12299534  0.19767425  1
  O  O307  1  0.45271202  0.36967611  0.25793814  1
  O  O308  1  0.64616320  0.69082179  0.19003999  1
  O  O309  1  0.35379368  0.82938883  0.24045789  1
  O  O310  1  0.51509518  0.16596936  0.16411511  1
  O  O311  1  0.16191999  0.66428466  0.17449541  1
  O  O312  1  0.01346059  0.33310517  0.24149471  1
  O  O313  1  0.99324022  0.19486390  0.18481355  1
  O  O314  1  0.83045212  0.87348264  0.25596207  1
  O  O315  1  0.25109000  0.46476446  0.37829080  1
  O  O316  1  0.42643288  0.78550968  0.30207428  1
  O  O317  1  0.90290719  0.43805032  0.41801114  1
  O  O318  1  0.04162077  0.76320281  0.33713573  1
  O  O319  1  0.45282142  0.27047361  0.34277174  1
  O  O320  1  0.25389354  0.95132642  0.41768084  1
  O  O321  1  0.01926913  0.28337091  0.30122342  1
  O  O322  1  0.83233137  0.96906763  0.37099210  1
  O  O323  1  0.60161210  0.36090187  0.32554444  1
  O  O324  1  0.39763751  0.02287186  0.40124528  1
  O  O325  1  0.87638423  0.19496448  0.31957264  1
  O  O326  1  0.67586434  0.88111592  0.38382509  1
  O  O327  1  0.57559071  0.36150444  0.39044465  1
  O  O328  1  0.75651965  0.69861216  0.32093667  1
  O  O329  1  0.61889586  0.53054405  0.42617266  1
  O  O330  1  0.69650187  0.85383647  0.32055474  1
  O  O331  1  0.32601596  0.56357587  0.41429558  1
  O  O332  1  0.43116656  0.91389107  0.34787677  1
  O  O333  1  0.83923784  0.30833435  0.36313252  1
  O  O334  1  0.02240784  0.64052905  0.29557013  1
  O  O335  1  0.72920630  0.13799501  0.29059356  1
  O  O336  1  0.56940154  0.80551002  0.36377964  1
  O  O337  1  0.71487264  0.42268092  0.36275041  1
  O  O338  1  0.52271091  0.09756548  0.40599193  1
  O  O339  1  0.24887766  0.39417787  0.32368495  1
  O  O340  1  0.07461495  0.06331601  0.39805462  1
  O  O341  1  0.22843704  0.16245544  0.32194348  1
  O  O342  1  0.02942423  0.83176580  0.39241422  1
  O  O343  1  0.28049645  0.34022630  0.39729410  1
  O  O344  1  0.48061335  0.65946595  0.32290908  1
  O  O345  1  0.82577861  0.56968163  0.39501931  1
  O  O346  1  0.98388153  0.89207520  0.31959463  1
  O  O347  1  0.09434791  0.97159789  0.34154719  1
  O  O348  1  0.91369578  0.65690449  0.40963456  1
  O  O349  1  0.36262504  0.58047431  0.30337731  1
  O  O350  1  0.18683751  0.26356166  0.36770640  1
  O  O351  1  0.30641291  0.76569796  0.36698006  1
  O  O352  1  0.48970945  0.08516834  0.29785072  1
  O  O353  1  0.79701182  0.15634336  0.41396650  1
  O  O354  1  0.97663595  0.46696923  0.34904876  1
  O  O355  1  0.13608815  0.71156981  0.39776464  1
  O  O356  1  0.28591435  0.04583036  0.33077205  1
  O  O357  1  0.02408708  0.18261098  0.38630474  1
  O  O358  1  0.16468142  0.51215976  0.31663733  1
  O  O359  1  0.82020762  0.01227743  0.30866151  1
  O  O360  1  0.60909790  0.68536592  0.39020149  1
  O  O361  1  0.63310292  0.54271436  0.33870933  1
  O  O362  1  0.46444333  0.22568976  0.40386307  1
  O  O363  1  0.07522892  0.12511601  0.44877823  1
  O  O364  1  0.71319805  0.08347629  0.46416875  1
  O  O365  1  0.08222394  0.63557061  0.47405420  1
  O  O366  1  0.69018208  0.63454276  0.45018035  1
  O  O367  1  0.17127209  0.75093977  0.47051677  1
  O  O368  1  0.45026022  0.55907112  0.47544630  1
  O  O369  1  0.41807785  0.05726883  0.45877565  1
  O  O370  1  0.44653775  0.19832156  0.47473470  1
  O  O371  1  0.66794582  0.99071228  0.42791826  1
  O  O372  1  0.46965659  0.46304522  0.44394338  1
  O  O373  1  0.81334126  0.75037963  0.46246204  1
  O  O374  1  0.86504068  0.50223796  0.47801052  1
  O  O375  1  0.16014554  0.98802560  0.47634647  1
  O  O376  1  0.99587545  0.93572886  0.44070667  1
  O  O377  1  0.14832103  0.45138388  0.44804275  1
  O  O378  1  0.01044873  0.38202935  0.47886888  1
  O  O379  1  0.76715053  0.87736567  0.45132216  1
  O  O380  1  0.44962895  0.35012858  0.45957235  1
  O  O381  1  0.28128951  0.86437753  0.46834576  1
  O  O382  1  0.13505467  0.20663023  0.58501840  1
  O  O383  1  0.02211493  0.83717540  0.52761403  1
  O  O384  1  0.51816348  0.23148541  0.62395359  1
  O  O385  1  0.28655629  0.86646762  0.54423600  1
  O  O386  1  0.91987243  0.42210795  0.55575949  1
  O  O387  1  0.11291702  0.71488666  0.62356817  1
  O  O388  1  0.24471147  0.35641111  0.53881646  1
  O  O389  1  0.53570419  0.67890509  0.58702483  1
  O  O390  1  0.80483778  0.32480980  0.53493635  1
  O  O391  1  0.93145953  0.64094248  0.61886135  1
  O  O392  1  0.32208732  0.47253937  0.53519208  1
  O  O393  1  0.70277915  0.75877121  0.60141580  1
  O  O394  1  0.80365279  0.28782903  0.59756091  1
  O  O395  1  0.66334537  0.92153195  0.53143090  1
  O  O396  1  0.84504133  0.14517800  0.60797648  1
  O  O397  1  0.68284046  0.79404481  0.53936663  1
  O  O398  1  0.09002033  0.06815880  0.63072927  1
  O  O399  1  0.94698160  0.73338073  0.56386095  1
  O  O400  1  0.54896962  0.34359320  0.56741079  1
  O  O401  1  0.80569621  0.83751498  0.58819072  1
  O  O402  1  0.71063085  0.23901992  0.54965762  1
  O  O403  1  0.83364216  0.56147403  0.63563687  1
  O  O404  1  0.14701851  0.25726622  0.52395800  1
  O  O405  1  0.26676492  0.57100954  0.60534181  1
  O  O406  1  0.34522638  0.81541719  0.60505677  1
  O  O407  1  0.05310139  0.33000395  0.59525824  1
  O  O408  1  0.89817275  0.97698886  0.53087919  1
  O  O409  1  0.58227696  0.09305160  0.60331997  1
  O  O410  1  0.38192852  0.73208177  0.52778666  1
  O  O411  1  0.31196827  0.64611420  0.55633116  1
  O  O412  1  0.44220807  0.01899000  0.62372786  1
  O  O413  1  0.15130923  0.42071402  0.59971620  1
  O  O414  1  0.05724423  0.89291776  0.59272889  1
  O  O415  1  0.55209680  0.52817324  0.63264752  1
  O  O416  1  0.41269005  0.19959634  0.55732097  1
  O  O417  1  0.28567693  0.93499711  0.60353245  1
  O  O418  1  0.00997674  0.61276458  0.55051764  1
  O  O419  1  0.41131485  0.45467287  0.61031616  1
  O  O420  1  0.24246255  0.13801045  0.52910358  1
  O  O421  1  0.59264479  0.61616104  0.52550189  1
  O  O422  1  0.73777416  0.97223028  0.59864759  1
  O  O423  1  0.76149016  0.11587167  0.54578080  1
  O  O424  1  0.87209734  0.43741228  0.62381688  1
  O  O425  1  0.47165050  0.85595331  0.72719355  1
  O  O426  1  0.30144735  0.52042416  0.66700901  1
  O  O427  1  0.82156968  0.88749370  0.76160662  1
  O  O428  1  0.64711436  0.55895604  0.69798185  1
  O  O429  1  0.27807307  0.04856621  0.68938252  1
  O  O430  1  0.44040347  0.39169701  0.76562830  1
  O  O431  1  0.69031007  0.02606268  0.65896651  1
  O  O432  1  0.86295866  0.35428316  0.73209371  1
  O  O433  1  0.11251055  0.96324894  0.67469097  1
  O  O434  1  0.27847969  0.30123190  0.75370538  1
  O  O435  1  0.85689410  0.11837006  0.67124718  1
  O  O436  1  0.03387777  0.43648658  0.75002379  1
  O  O437  1  0.14055341  0.94053947  0.73941373  1
  O  O438  1  0.95861004  0.60520284  0.68061945  1
  O  O439  1  0.16136793  0.80125716  0.75056573  1
  O  O440  1  0.98226011  0.46959053  0.68780118  1
  O  O441  1  0.41117777  0.72675058  0.77576064  1
  O  O442  1  0.25201509  0.39824358  0.70570862  1
  O  O443  1  0.88873625  0.01614091  0.71677427  1
  O  O444  1  0.69154260  0.66834741  0.65695336  1
  O  O445  1  0.01068212  0.17866514  0.64770359  1
  O  O446  1  0.15294522  0.50562420  0.72701387  1
  O  O447  1  0.96657000  0.90543886  0.70163968  1
  O  O448  1  0.17387033  0.22444328  0.77177918  1
  O  O449  1  0.46428563  0.91967893  0.66990020  1
  O  O450  1  0.63653196  0.25881094  0.75077217  1
  O  O451  1  0.49369436  0.15611500  0.67296080  1
  O  O452  1  0.67690128  0.48632696  0.75253872  1
  O  O453  1  0.41405048  0.98229767  0.74417605  1
  O  O454  1  0.23060814  0.65135070  0.68067305  1
  O  O455  1  0.89476855  0.75599683  0.74754716  1
  O  O456  1  0.70300275  0.42974003  0.68361263  1
  O  O457  1  0.61072454  0.34511347  0.69841485  1
  O  O458  1  0.76739320  0.68150199  0.77127962  1
  O  O459  1  0.35929622  0.72509473  0.65729577  1
  O  O460  1  0.52740468  0.06139217  0.72315106  1
  O  O461  1  0.39020379  0.55828429  0.73286348  1
  O  O462  1  0.23289804  0.24284484  0.64974764  1
  O  O463  1  0.90977562  0.17314647  0.76476438  1
  O  O464  1  0.73991335  0.84848192  0.69410205  1
  O  O465  1  0.58243760  0.60736530  0.75803950  1
  O  O466  1  0.42925765  0.27318728  0.68755055  1
  O  O467  1  0.68651025  0.14134672  0.73814604  1
  O  O468  1  0.54786624  0.79902478  0.66700227  1
  O  O469  1  0.89309965  0.31332162  0.66686011  1
  O  O470  1  0.06170922  0.63732079  0.74431933  1
  O  O471  1  0.06938105  0.77213211  0.68390763  1
  O  O472  1  0.24096535  0.10051610  0.75137475  1
  O  O473  1  0.80471072  0.51373064  0.87699726  1
  O  O474  1  0.64114856  0.18712721  0.80202916  1
  O  O475  1  0.18348444  0.52719977  0.92181867  1
  O  O476  1  0.98333808  0.21494161  0.82727021  1
  O  O477  1  0.59894581  0.71554018  0.83604214  1
  O  O478  1  0.74718648  0.03916147  0.91254340  1
  O  O479  1  0.02013079  0.69051650  0.80407952  1
  O  O480  1  0.21515040  0.01197451  0.87086502  1
  O  O481  1  0.43480195  0.62652790  0.82292389  1
  O  O482  1  0.65023611  0.95644690  0.89329684  1
  O  O483  1  0.17817090  0.78041957  0.81489464  1
  O  O484  1  0.35483587  0.10527444  0.88410825  1
  O  O485  1  0.46737650  0.60637336  0.88643814  1
  O  O486  1  0.29743387  0.27056688  0.81678111  1
  O  O487  1  0.47574326  0.46778997  0.90398694  1
  O  O488  1  0.33703330  0.12979341  0.82028700  1
  O  O489  1  0.75753945  0.40118383  0.91142408  1
  O  O490  1  0.59816163  0.06563052  0.84465460  1
  O  O491  1  0.21269207  0.68390732  0.86333667  1
  O  O492  1  0.03560651  0.33211910  0.79206418  1
  O  O493  1  0.33003640  0.83780335  0.78863309  1
  O  O494  1  0.47877714  0.17361349  0.86244229  1
  O  O495  1  0.27841132  0.57392792  0.85316821  1
  O  O496  1  0.47572261  0.89340635  0.91386328  1
  O  O497  1  0.79663501  0.58212480  0.82081136  1
  O  O498  1  0.96465228  0.92222584  0.89886954  1
  O  O499  1  0.82811232  0.81960101  0.81691477  1
  O  O500  1  0.00524288  0.15275872  0.88638731  1
  O  O501  1  0.74267076  0.65030874  0.89058316  1
  O  O502  1  0.53719849  0.32411939  0.82209935  1
  O  O503  1  0.26993831  0.41612806  0.89397352  1
  O  O504  1  0.07693922  0.08309373  0.81666317  1
  O  O505  1  0.95080848  0.01147411  0.84197850  1
  O  O506  1  0.09862130  0.35195776  0.90370505  1
  O  O507  1  0.69832040  0.38868251  0.80175950  1
  O  O508  1  0.84608908  0.72917744  0.86717440  1
  O  O509  1  0.73472791  0.22588178  0.86742392  1
  O  O510  1  0.55710454  0.89576434  0.79803624  1
  O  O511  1  0.21875306  0.82899121  0.92573803  1
  O  O512  1  0.06977467  0.51142361  0.84415700  1
  O  O513  1  0.96519422  0.26869196  0.88747370  1
  O  O514  1  0.77429545  0.93679248  0.82283173  1
  O  O515  1  0.03393138  0.80567292  0.88157762  1
  O  O516  1  0.88302707  0.46058589  0.81614948  1
  O  O517  1  0.22191653  0.96387002  0.80749194  1
  O  O518  1  0.39945130  0.29119799  0.88599059  1
  O  O519  1  0.40844028  0.44426442  0.82828366  1
  O  O520  1  0.54637247  0.76895231  0.89423234  1
  O  O521  1  0.90849389  0.85924960  0.94386719  1
  O  O522  1  0.35928024  0.90021690  0.96943542  1
  O  O523  1  0.94436850  0.37847555  0.97242743  1
  O  O524  1  0.34319464  0.35410386  0.94612511  1
  O  O525  1  0.81609662  0.27641801  0.95840722  1
  O  O526  1  0.55291268  0.42708254  0.96141332  1
  O  O527  1  0.58550549  0.93629128  0.96394392  1
  O  O528  1  0.59242580  0.77278098  0.97012804  1
  O  O529  1  0.31783182  0.99848964  0.93879999  1
  O  O530  1  0.65225706  0.50568045  0.94004141  1
  O  O531  1  0.16462632  0.25306263  0.95648743  1
  O  O532  1  0.14770779  0.47908571  0.97594842  1
  O  O533  1  0.84422941  0.00040017  0.97068973  1
  O  O534  1  0.98514975  0.06608836  0.93614328  1
  O  O535  1  0.88578393  0.55860497  0.94559915  1
  O  O536  1  0.07782993  0.59833137  0.98184392  1
  O  O537  1  0.20283270  0.12330066  0.95195255  1
  O  O538  1  0.56227151  0.63724482  0.95284309  1
  O  O539  1  0.69979270  0.12273800  0.96706530  1
