# generated using pymatgen
data_Na24Zr16Si12P6O83
_symmetry_space_group_name_H-M   'P 1'
_cell_length_a   9.15937100
_cell_length_b   24.11698144
_cell_length_c   41.30200366
_cell_angle_alpha   90.00000000
_cell_angle_beta   90.00000000
_cell_angle_gamma   67.67936926
_symmetry_Int_Tables_number   1
_chemical_formula_structural   Na24Zr16Si12P6O83
_chemical_formula_sum   'Na96 Zr64 Si48 P24 O332'
_cell_volume   8439.86962860
_cell_formula_units_Z   4
loop_
 _symmetry_equiv_pos_site_id
 _symmetry_equiv_pos_as_xyz
  1  'x, y, z'
loop_
 _atom_site_type_symbol
 _atom_site_label
 _atom_site_symmetry_multiplicity
 _atom_site_fract_x
 _atom_site_fract_y
 _atom_site_fract_z
 _atom_site_occupancy
  Na  Na0  1  0.18265842  0.76180566  0.02575364  1
  Na  Na1  1  0.99249946  0.28661591  0.01921901  1
  Na  Na2  1  0.71447561  0.42436320  0.05055247  1
  Na  Na3  1  0.47829694  0.04841662  0.09796801  1
  Na  Na4  1  0.29901055  0.51065136  0.07347195  1
  Na  Na5  1  0.03518059  0.90454139  0.06750508  1
  Na  Na6  1  0.48277162  0.79089263  0.01970169  1
  Na  Na7  1  0.23491981  0.34307958  0.07866114  1
  Na  Na8  1  0.18891928  0.53453766  0.98375584  1
  Na  Na9  1  0.90775279  0.18187791  0.07959633  1
  Na  Na10  1  0.66250795  0.69574253  0.10438251  1
  Na  Na11  1  0.84725045  0.02803667  0.02325228  1
  Na  Na12  1  0.68173008  0.18368244  0.20930017  1
  Na  Na13  1  0.88962164  0.49540481  0.13715560  1
  Na  Na14  1  0.31631770  0.71915593  0.16442119  1
  Na  Na15  1  0.28257703  0.33899268  0.21457095  1
  Na  Na16  1  0.97858735  0.86649954  0.22524833  1
  Na  Na17  1  0.15819124  0.18316222  0.15155564  1
  Na  Na18  1  0.05110483  0.04191106  0.14908549  1
  Na  Na19  1  0.86626817  0.67323562  0.20561954  1
  Na  Na20  1  0.70393388  0.86200509  0.13675136  1
  Na  Na21  1  0.55125985  0.52983883  0.20263698  1
  Na  Na22  1  0.32667593  0.02862383  0.21965257  1
  Na  Na23  1  0.51064311  0.35710219  0.14536407  1
  Na  Na24  1  0.33585419  0.52875443  0.34754054  1
  Na  Na25  1  0.53064791  0.84104387  0.27465623  1
  Na  Na26  1  0.05974320  0.02306505  0.28686084  1
  Na  Na27  1  0.92275729  0.68031264  0.34820357  1
  Na  Na28  1  0.63311058  0.25946239  0.37375717  1
  Na  Na29  1  0.79639155  0.50992200  0.28306955  1
  Na  Na30  1  0.69614295  0.33305840  0.26263560  1
  Na  Na31  1  0.53232761  0.01017183  0.33760720  1
  Na  Na32  1  0.37462691  0.20155409  0.28136679  1
  Na  Na33  1  0.20013532  0.86623373  0.35177007  1
  Na  Na34  1  0.98274598  0.37234047  0.34587813  1
  Na  Na35  1  0.15307982  0.69524824  0.27659296  1
  Na  Na36  1  0.09728650  0.78477282  0.46089116  1
  Na  Na37  1  0.08183587  0.22717565  0.41632447  1
  Na  Na38  1  0.68341316  0.38232205  0.41423911  1
  Na  Na39  1  0.73342890  0.00482414  0.46336812  1
  Na  Na40  1  0.47911860  0.55994050  0.51152830  1
  Na  Na41  1  0.50036209  0.91160825  0.43258335  1
  Na  Na42  1  0.48101181  0.74852386  0.43450243  1
  Na  Na43  1  0.24344002  0.30681143  0.46459665  1
  Na  Na44  1  0.04485415  0.52175822  0.41336347  1
  Na  Na45  1  0.59624651  0.27460418  0.46312742  1
  Na  Na46  1  0.78522972  0.78177680  0.47351771  1
  Na  Na47  1  0.80872807  0.04335968  0.39542783  1
  Na  Na48  1  0.31602587  0.21343503  0.52634066  1
  Na  Na49  1  0.50569416  0.68800002  0.51924481  1
  Na  Na50  1  0.78452228  0.55076758  0.55062606  1
  Na  Na51  1  0.02108569  0.92694405  0.59803287  1
  Na  Na52  1  0.20180913  0.46459443  0.57345498  1
  Na  Na53  1  0.46382479  0.07035936  0.56759915  1
  Na  Na54  1  0.01626918  0.18441982  0.51994575  1
  Na  Na55  1  0.26411940  0.63242924  0.57871151  1
  Na  Na56  1  0.31033511  0.44030147  0.48333385  1
  Na  Na57  1  0.59089283  0.79349088  0.57954416  1
  Na  Na58  1  0.83787554  0.27959746  0.60455242  1
  Na  Na59  1  0.65264176  0.94729473  0.52311785  1
  Na  Na60  1  0.81877490  0.79093821  0.70956278  1
  Na  Na61  1  0.61013865  0.48010126  0.63723259  1
  Na  Na62  1  0.18369836  0.25597218  0.66459043  1
  Na  Na63  1  0.21765185  0.63555024  0.71481465  1
  Na  Na64  1  0.52144430  0.10857384  0.72529033  1
  Na  Na65  1  0.34129741  0.79179109  0.65156960  1
  Na  Na66  1  0.44904186  0.93307072  0.64921837  1
  Na  Na67  1  0.63382374  0.30173995  0.70583201  1
  Na  Na68  1  0.79608237  0.11309744  0.63712014  1
  Na  Na69  1  0.94853373  0.44531188  0.70267205  1
  Na  Na70  1  0.17355185  0.94638426  0.71962150  1
  Na  Na71  1  0.98934661  0.61821650  0.64535043  1
  Na  Na72  1  0.16541196  0.44555488  0.84801970  1
  Na  Na73  1  0.96955946  0.13393327  0.77466434  1
  Na  Na74  1  0.44042095  0.95172357  0.78697525  1
  Na  Na75  1  0.57754133  0.29457237  0.84819422  1
  Na  Na76  1  0.86743199  0.71545186  0.87395786  1
  Na  Na77  1  0.70406435  0.46499548  0.78320767  1
  Na  Na78  1  0.80347486  0.64194258  0.76291940  1
  Na  Na79  1  0.96873314  0.96440929  0.83775708  1
  Na  Na80  1  0.12506816  0.77334611  0.78165355  1
  Na  Na81  1  0.30067507  0.10848665  0.85186919  1
  Na  Na82  1  0.51701804  0.60263263  0.84607201  1
  Na  Na83  1  0.34771423  0.27955662  0.77673951  1
  Na  Na84  1  0.40130325  0.19018071  0.96080680  1
  Na  Na85  1  0.41886317  0.74760566  0.91669940  1
  Na  Na86  1  0.81709271  0.59238828  0.91447682  1
  Na  Na87  1  0.76681116  0.97041141  0.96343411  1
  Na  Na88  1  0.02049294  0.41430898  0.01148921  1
  Na  Na89  1  0.00133667  0.06242747  0.93247801  1
  Na  Na90  1  0.01827143  0.22618240  0.93435443  1
  Na  Na91  1  0.25681130  0.66786581  0.96453934  1
  Na  Na92  1  0.45548360  0.45296633  0.91337772  1
  Na  Na93  1  0.90357663  0.70051912  0.96330019  1
  Na  Na94  1  0.71454457  0.19153763  0.97213653  1
  Na  Na95  1  0.69246040  0.93127490  0.89541583  1
  Zr  Zr96  1  0.98513744  0.66173228  0.03323028  1
  Zr  Zr97  1  0.90651368  0.31950092  0.09433851  1
  Zr  Zr98  1  0.60238998  0.57602099  0.07868298  1
  Zr  Zr99  1  0.56342407  0.94013100  0.03089433  1
  Zr  Zr100  1  0.43322700  0.40154550  0.00778013  1
  Zr  Zr101  1  0.15652849  0.04146867  0.06727006  1
  Zr  Zr102  1  0.38503322  0.82373851  0.09683771  1
  Zr  Zr103  1  0.56587767  0.15495336  0.04124218  1
  Zr  Zr104  1  0.71374480  0.98916130  0.16480362  1
  Zr  Zr105  1  0.54011373  0.66140652  0.23114007  1
  Zr  Zr106  1  0.31591105  0.89723543  0.20623704  1
  Zr  Zr107  1  0.49543237  0.22737901  0.13610249  1
  Zr  Zr108  1  0.97494412  0.72753207  0.13704624  1
  Zr  Zr109  1  0.81394630  0.39660849  0.20184049  1
  Zr  Zr110  1  0.05774980  0.16219822  0.23028593  1
  Zr  Zr111  1  0.22990846  0.49298310  0.15974085  1
  Zr  Zr112  1  0.36459612  0.33804226  0.29262021  1
  Zr  Zr113  1  0.20481072  0.00682227  0.36650663  1
  Zr  Zr114  1  0.97044087  0.23954474  0.33579035  1
  Zr  Zr115  1  0.14948612  0.56418587  0.27099637  1
  Zr  Zr116  1  0.63593584  0.06894236  0.27168086  1
  Zr  Zr117  1  0.45603111  0.73547931  0.33881456  1
  Zr  Zr118  1  0.72277310  0.50067084  0.36390142  1
  Zr  Zr119  1  0.88272696  0.83011025  0.30143337  1
  Zr  Zr120  1  0.05672952  0.64720859  0.42724445  1
  Zr  Zr121  1  0.88838449  0.33856231  0.49777235  1
  Zr  Zr122  1  0.74408451  0.56961983  0.45942650  1
  Zr  Zr123  1  0.83814165  0.89467567  0.39896632  1
  Zr  Zr124  1  0.33609940  0.39263996  0.40124175  1
  Zr  Zr125  1  0.09352418  0.06111223  0.45102779  1
  Zr  Zr126  1  0.36190647  0.84162523  0.49094897  1
  Zr  Zr127  1  0.50471525  0.16961294  0.41928321  1
  Zr  Zr128  1  0.51543942  0.31334697  0.53321582  1
  Zr  Zr129  1  0.59318072  0.65559530  0.59443716  1
  Zr  Zr130  1  0.89803907  0.39928942  0.57884405  1
  Zr  Zr131  1  0.93640299  0.03521254  0.53097011  1
  Zr  Zr132  1  0.06601299  0.57352055  0.50783129  1
  Zr  Zr133  1  0.34299627  0.93363481  0.56727355  1
  Zr  Zr134  1  0.11463473  0.15127409  0.59710463  1
  Zr  Zr135  1  0.93293259  0.82041340  0.54142904  1
  Zr  Zr136  1  0.78598241  0.98595295  0.66493271  1
  Zr  Zr137  1  0.96007833  0.31377766  0.73127320  1
  Zr  Zr138  1  0.18416693  0.07775518  0.70634718  1
  Zr  Zr139  1  0.00371786  0.74802344  0.63614035  1
  Zr  Zr140  1  0.52513103  0.24773098  0.63733702  1
  Zr  Zr141  1  0.68560368  0.57856070  0.70205998  1
  Zr  Zr142  1  0.44207746  0.81283953  0.73039713  1
  Zr  Zr143  1  0.27032768  0.48223398  0.65991000  1
  Zr  Zr144  1  0.13495160  0.63699398  0.79286176  1
  Zr  Zr145  1  0.29661459  0.96773976  0.86649170  1
  Zr  Zr146  1  0.52979386  0.73530682  0.83602715  1
  Zr  Zr147  1  0.35068671  0.41074333  0.77126020  1
  Zr  Zr148  1  0.86446789  0.90598532  0.77172098  1
  Zr  Zr149  1  0.04428760  0.23916938  0.83885112  1
  Zr  Zr150  1  0.77731837  0.47433363  0.86395550  1
  Zr  Zr151  1  0.61761099  0.14474056  0.80141387  1
  Zr  Zr152  1  0.44269152  0.32774435  0.92721072  1
  Zr  Zr153  1  0.61187247  0.63662503  0.99768094  1
  Zr  Zr154  1  0.75519329  0.40501334  0.95940741  1
  Zr  Zr155  1  0.66267644  0.08021234  0.89891701  1
  Zr  Zr156  1  0.16402506  0.58225374  0.90149012  1
  Zr  Zr157  1  0.40704572  0.91392671  0.95098395  1
  Zr  Zr158  1  0.13789266  0.13308294  0.99083109  1
  Zr  Zr159  1  0.99589901  0.80531246  0.91971064  1
  Si  Si160  1  0.62349938  0.45163529  0.12771545  1
  Si  Si161  1  0.76490706  0.79798369  0.06706840  1
  Si  Si162  1  0.76796459  0.08796691  0.10238663  1
  Si  Si163  1  0.96493359  0.59265763  0.09943625  1
  Si  Si164  1  0.58665829  0.28858107  0.06402475  1
  Si  Si165  1  0.38423314  0.95766831  0.13406560  1
  Si  Si166  1  0.26870991  0.79493086  0.26773905  1
  Si  Si167  1  0.44560967  0.12638563  0.19918232  1
  Si  Si168  1  0.41680408  0.43358165  0.23028968  1
  Si  Si169  1  0.57373269  0.76482255  0.16890422  1
  Si  Si170  1  0.81914461  0.26050255  0.16616186  1
  Si  Si171  1  0.63571461  0.93408406  0.23870497  1
  Si  Si172  1  0.22039653  0.62491788  0.19902232  1
  Si  Si173  1  0.05361842  0.29738316  0.26409770  1
  Si  Si174  1  0.91303181  0.14725380  0.40102283  1
  Si  Si175  1  0.10987141  0.47033959  0.33431978  1
  Si  Si176  1  0.08385219  0.75735272  0.37400120  1
  Si  Si177  1  0.24514347  0.10255394  0.30209380  1
  Si  Si178  1  0.46872280  0.60321110  0.30193947  1
  Si  Si179  1  0.28747591  0.27518310  0.36055261  1
  Si  Si180  1  0.88303707  0.96542351  0.33456274  1
  Si  Si181  1  0.71285374  0.63669070  0.39808426  1
  Si  Si182  1  0.94985590  0.42016944  0.43257661  1
  Si  Si183  1  0.10643469  0.94312137  0.43208858  1
  Si  Si184  1  0.87642240  0.52371346  0.62797413  1
  Si  Si185  1  0.73499361  0.17719327  0.56737730  1
  Si  Si186  1  0.73145677  0.88757327  0.60239358  1
  Si  Si187  1  0.53576042  0.38260387  0.59969207  1
  Si  Si188  1  0.91220720  0.68688591  0.56391402  1
  Si  Si189  1  0.11598536  0.01721400  0.63429593  1
  Si  Si190  1  0.23131090  0.18015300  0.76774374  1
  Si  Si191  1  0.05423516  0.84868551  0.69923941  1
  Si  Si192  1  0.08302587  0.54122101  0.73061418  1
  Si  Si193  1  0.92627547  0.21027712  0.66907074  1
  Si  Si194  1  0.68065405  0.71451990  0.66631075  1
  Si  Si195  1  0.86436919  0.04087568  0.73873068  1
  Si  Si196  1  0.27960714  0.35024471  0.69921923  1
  Si  Si197  1  0.44585622  0.67782359  0.76427830  1
  Si  Si198  1  0.58804069  0.82742994  0.90119799  1
  Si  Si199  1  0.39004595  0.50471769  0.83450634  1
  Si  Si200  1  0.41645549  0.21755810  0.87387547  1
  Si  Si201  1  0.25522881  0.87208500  0.80214733  1
  Si  Si202  1  0.03200774  0.37168861  0.80214344  1
  Si  Si203  1  0.21238573  0.69973668  0.86085869  1
  Si  Si204  1  0.61802736  0.00941966  0.83462317  1
  Si  Si205  1  0.78669910  0.33812430  0.89797840  1
  Si  Si206  1  0.55025057  0.55460947  0.93259798  1
  Si  Si207  1  0.39446918  0.03182805  0.93203743  1
  P  P208  1  0.23307117  0.18831708  0.08332844  1
  P  P209  1  0.29432290  0.66205873  0.08623530  1
  P  P210  1  0.05888813  0.85896504  0.15075505  1
  P  P211  1  0.89183518  0.53098626  0.21575845  1
  P  P212  1  0.97099214  0.02992778  0.21751489  1
  P  P213  1  0.14994041  0.36037631  0.15167728  1
  P  P214  1  0.71544458  0.20132912  0.28404450  1
  P  P215  1  0.54380271  0.86798681  0.35419709  1
  P  P216  1  0.63353897  0.37682337  0.34143611  1
  P  P217  1  0.79350482  0.70164894  0.28419308  1
  P  P218  1  0.43442028  0.52113707  0.42505968  1
  P  P219  1  0.39537353  0.07418351  0.41709509  1
  P  P220  1  0.26619504  0.78677193  0.58330663  1
  P  P221  1  0.20628294  0.31335584  0.58644489  1
  P  P222  1  0.44098295  0.11609425  0.65088460  1
  P  P223  1  0.60803881  0.44410487  0.71593468  1
  P  P224  1  0.52895134  0.94518475  0.71771842  1
  P  P225  1  0.34934418  0.61511220  0.65181261  1
  P  P226  1  0.78423170  0.77375320  0.78424839  1
  P  P227  1  0.95764121  0.10632033  0.85407623  1
  P  P228  1  0.86621835  0.59824739  0.84170522  1
  P  P229  1  0.70675748  0.27324672  0.78421533  1
  P  P230  1  0.06467261  0.45375084  0.92534797  1
  P  P231  1  0.10519668  0.90078598  0.91730045  1
  O  O232  1  0.86571978  0.78724765  0.10115915  1
  O  O233  1  0.07363754  0.11084123  0.03464828  1
  O  O234  1  0.47596913  0.76199493  0.13567196  1
  O  O235  1  0.69540987  0.08038576  0.06644254  1
  O  O236  1  0.02658092  0.58725466  0.06185210  1
  O  O237  1  0.90874741  0.25170694  0.13152173  1
  O  O238  1  0.63175823  0.57428023  0.03250838  1
  O  O239  1  0.50891028  0.28798937  0.10027423  1
  O  O240  1  0.18490620  0.68094721  0.05692468  1
  O  O241  1  0.07003889  0.33722396  0.12564571  1
  O  O242  1  0.30892114  0.21788420  0.10850287  1
  O  O243  1  0.21290942  0.69579317  0.11683312  1
  O  O244  1  0.15810643  0.85465707  0.12007868  1
  O  O245  1  0.33831213  0.17041809  0.05235363  1
  O  O246  1  0.11134430  0.63570083  0.99663903  1
  O  O247  1  0.07340210  0.23556378  0.07221373  1
  O  O248  1  0.36103029  0.59200859  0.09054918  1
  O  O249  1  0.39725656  0.00698565  0.05293803  1
  O  O250  1  0.46764658  0.46148265  0.03287594  1
  O  O251  1  0.21843780  0.13313992  0.09887851  1
  O  O252  1  0.45538370  0.67100841  0.08127882  1
  O  O253  1  0.60218845  0.13488864  0.99812373  1
  O  O254  1  0.87429107  0.75403482  0.03864548  1
  O  O255  1  0.70569445  0.38434852  0.11342048  1
  O  O256  1  0.65264544  0.15628536  0.11430586  1
  O  O257  1  0.93685000  0.66005073  0.11253444  1
  O  O258  1  0.07754261  0.98572574  0.05099119  1
  O  O259  1  0.42895284  0.89369971  0.11431628  1
  O  O260  1  0.64422484  0.22052177  0.04813445  1
  O  O261  1  0.74808460  0.30200342  0.06419477  1
  O  O262  1  0.55476636  0.96561275  0.13866285  1
  O  O263  1  0.71887772  0.96551172  0.01469830  1
  O  O264  1  0.78554237  0.58956275  0.10023247  1
  O  O265  1  0.94665269  0.08539375  0.09949111  1
  O  O266  1  0.21539362  0.44119569  0.00079312  1
  O  O267  1  0.43327091  0.46665921  0.13198053  1
  O  O268  1  0.60664739  0.78161189  0.07323458  1
  O  O269  1  0.74566567  0.03798957  0.12627009  1
  O  O270  1  0.97982571  0.36174813  0.06253123  1
  O  O271  1  0.65716127  0.49600559  0.10028266  1
  O  O272  1  0.70338444  0.86886666  0.05746924  1
  O  O273  1  0.44559994  0.33577578  0.04199879  1
  O  O274  1  0.26018915  0.01314470  0.11428250  1
  O  O275  1  0.27610084  0.82388827  0.05733695  1
  O  O276  1  0.08529708  0.53797356  0.12080687  1
  O  O277  1  0.52176850  0.13144872  0.23469442  1
  O  O278  1  0.70746860  0.45834350  0.16197955  1
  O  O279  1  0.17163478  0.09654853  0.26665995  1
  O  O280  1  0.34264164  0.42984044  0.19442470  1
  O  O281  1  0.72546477  0.93190731  0.20419322  1
  O  O282  1  0.56347571  0.59844369  0.26750074  1
  O  O283  1  0.30660790  0.95732159  0.17011364  1
  O  O284  1  0.13319037  0.62645937  0.23374020  1
  O  O285  1  0.89984298  0.01138969  0.18764503  1
  O  O286  1  0.71691155  0.68826247  0.25332830  1
  O  O287  1  0.13705592  0.87341451  0.18122201  1
  O  O288  1  0.96878896  0.54111557  0.24753921  1
  O  O289  1  0.85485106  0.04681544  0.24648320  1
  O  O290  1  0.04963486  0.37501095  0.18316206  1
  O  O291  1  0.83680125  0.18589293  0.25570168  1
  O  O292  1  0.00513730  0.51751870  0.18642898  1
  O  O293  1  0.89312128  0.90752293  0.14507666  1
  O  O294  1  0.74386748  0.58845988  0.20801132  1
  O  O295  1  0.12437522  0.97812087  0.22897310  1
  O  O296  1  0.31574257  0.31189706  0.15939519  1
  O  O297  1  0.04261502  0.79767813  0.15751155  1
  O  O298  1  0.83559521  0.47863398  0.22222478  1
  O  O299  1  0.01111463  0.08501879  0.20781047  1
  O  O300  1  0.16931333  0.41818069  0.13909113  1
  O  O301  1  0.53939595  0.05918604  0.18462676  1
  O  O302  1  0.35680628  0.72856779  0.25087651  1
  O  O303  1  0.49484954  0.83067069  0.18555674  1
  O  O304  1  0.31672640  0.49617657  0.24895575  1
  O  O305  1  0.57907656  0.00253808  0.25348751  1
  O  O306  1  0.77362710  0.32912522  0.18047407  1
  O  O307  1  0.10958204  0.22808561  0.25061289  1
  O  O308  1  0.27369970  0.55907339  0.18132526  1
  O  O309  1  0.38572810  0.63641781  0.20329423  1
  O  O310  1  0.21268578  0.31322217  0.26427497  1
  O  O311  1  0.65118930  0.24978841  0.16425810  1
  O  O312  1  0.47277426  0.92037058  0.23444921  1
  O  O313  1  0.60046325  0.42793042  0.22572726  1
  O  O314  1  0.76074502  0.75117701  0.16068779  1
  O  O315  1  0.08363065  0.80186782  0.27336646  1
  O  O316  1  0.25998498  0.13331672  0.20259463  1
  O  O317  1  0.41573518  0.37548149  0.25082618  1
  O  O318  1  0.56503671  0.71181291  0.19246103  1
  O  O319  1  0.27424176  0.84787864  0.24367507  1
  O  O320  1  0.45682595  0.17878684  0.17506461  1
  O  O321  1  0.09233784  0.67692210  0.17664836  1
  O  O322  1  0.91711126  0.34491249  0.24140731  1
  O  O323  1  0.93191617  0.21061062  0.19210898  1
  O  O324  1  0.75871052  0.88457452  0.26328831  1
  O  O325  1  0.18338763  0.47061016  0.37030510  1
  O  O326  1  0.35512530  0.79961204  0.30158438  1
  O  O327  1  0.86215995  0.43071471  0.39670418  1
  O  O328  1  0.97772771  0.77129166  0.33974511  1
  O  O329  1  0.35692793  0.27132684  0.32391059  1
  O  O330  1  0.22943016  0.97261596  0.41613067  1
  O  O331  1  0.97804555  0.29862786  0.30042649  1
  O  O332  1  0.77179797  0.97067742  0.36656736  1
  O  O333  1  0.56395048  0.35777019  0.31124052  1
  O  O334  1  0.38678327  0.03786089  0.38704443  1
  O  O335  1  0.78640875  0.21872501  0.31460466  1
  O  O336  1  0.63841327  0.87548002  0.38342546  1
  O  O337  1  0.50294100  0.40138431  0.36691075  1
  O  O338  1  0.68578028  0.71030638  0.31397566  1
  O  O339  1  0.51384104  0.51437667  0.39074243  1
  O  O340  1  0.64053641  0.86267642  0.32277024  1
  O  O341  1  0.56842341  0.25564615  0.27245311  1
  O  O342  1  0.38913715  0.92699826  0.35182055  1
  O  O343  1  0.77055952  0.32072506  0.35552441  1
  O  O344  1  0.95592035  0.65078210  0.29117691  1
  O  O345  1  0.67087249  0.14707726  0.29158355  1
  O  O346  1  0.49150673  0.81530827  0.35934991  1
  O  O347  1  0.69914457  0.42592432  0.33423322  1
  O  O348  1  0.82043531  0.76114975  0.27833511  1
  O  O349  1  0.20209040  0.40704288  0.31420320  1
  O  O350  1  0.02860997  0.07913935  0.38920074  1
  O  O351  1  0.14133390  0.16732357  0.31855578  1
  O  O352  1  0.98504610  0.80600246  0.40183429  1
  O  O353  1  0.25284025  0.34228218  0.37382578  1
  O  O354  1  0.40836924  0.67154366  0.31608756  1
  O  O355  1  0.75967917  0.56416754  0.39131966  1
  O  O356  1  0.94622677  0.89487025  0.32343821  1
  O  O357  1  0.04052771  0.98135758  0.34370837  1
  O  O358  1  0.88218183  0.64463959  0.39670021  1
  O  O359  1  0.30676631  0.59047299  0.29609880  1
  O  O360  1  0.12046040  0.26526038  0.36404900  1
  O  O361  1  0.25105559  0.76533014  0.36570412  1
  O  O362  1  0.43044900  0.09565532  0.29967531  1
  O  O363  1  0.73335370  0.14902367  0.40408234  1
  O  O364  1  0.92244931  0.47908532  0.33559286  1
  O  O365  1  0.11058767  0.69022120  0.38748810  1
  O  O366  1  0.23581035  0.04806097  0.32560571  1
  O  O367  1  0.91828177  0.20271653  0.37991279  1
  O  O368  1  0.12528074  0.52498066  0.31315523  1
  O  O369  1  0.77650335  0.01389697  0.30802867  1
  O  O370  1  0.58806565  0.68352505  0.37417530  1
  O  O371  1  0.58464936  0.55376743  0.32762963  1
  O  O372  1  0.42249326  0.22639653  0.38289976  1
  O  O373  1  0.97966784  0.14874758  0.43837767  1
  O  O374  1  0.45358442  0.21310506  0.45759945  1
  O  O375  1  0.96115646  0.58718686  0.45978139  1
  O  O376  1  0.63787346  0.64915441  0.43461546  1
  O  O377  1  0.53601982  0.53770058  0.44990477  1
  O  O378  1  0.32942384  0.05388358  0.44756896  1
  O  O379  1  0.26495377  0.57076566  0.42199767  1
  O  O380  1  0.07470910  0.26833807  0.49816603  1
  O  O381  1  0.67973336  0.59076637  0.50180851  1
  O  O382  1  0.56704089  0.07060046  0.42391333  1
  O  O383  1  0.41377433  0.46051917  0.43183904  1
  O  O384  1  0.04247591  0.07103017  0.49625605  1
  O  O385  1  0.34299312  0.76540365  0.48491181  1
  O  O386  1  0.30527401  0.14280986  0.41178623  1
  O  O387  1  0.01603612  0.70480884  0.45935684  1
  O  O388  1  0.88213981  0.48148352  0.45342742  1
  O  O389  1  0.96382053  0.00852413  0.44308310  1
  O  O390  1  0.71515506  0.31157643  0.50649853  1
  O  O391  1  0.04908731  0.91010115  0.40378982  1
  O  O392  1  0.14373890  0.40185361  0.43222648  1
  O  O393  1  0.53278628  0.82812242  0.46129946  1
  O  O394  1  0.90664269  0.36610847  0.45075936  1
  O  O395  1  0.73680882  0.92442284  0.43749863  1
  O  O396  1  0.51605986  0.32893482  0.41865773  1
  O  O397  1  0.18360450  0.90449258  0.46398017  1
  O  O398  1  0.63403828  0.18798344  0.60142656  1
  O  O399  1  0.42566396  0.86411095  0.53474786  1
  O  O400  1  0.02373946  0.21327598  0.63583360  1
  O  O401  1  0.80410322  0.89532354  0.56649041  1
  O  O402  1  0.47478211  0.38749048  0.56206117  1
  O  O403  1  0.59068494  0.72331968  0.63170323  1
  O  O404  1  0.86777025  0.40093177  0.53267269  1
  O  O405  1  0.99004926  0.68775021  0.60012575  1
  O  O406  1  0.31586839  0.29423610  0.55716600  1
  O  O407  1  0.42930771  0.63822988  0.62578369  1
  O  O408  1  0.19047071  0.75745980  0.60863663  1
  O  O409  1  0.28731150  0.27983475  0.61712388  1
  O  O410  1  0.34173905  0.12042156  0.62019162  1
  O  O411  1  0.16112836  0.80415414  0.55229925  1
  O  O412  1  0.38914446  0.33921908  0.49658493  1
  O  O413  1  0.42600500  0.73943609  0.57230061  1
  O  O414  1  0.13945820  0.38343056  0.59063313  1
  O  O415  1  0.10218247  0.96830344  0.55306868  1
  O  O416  1  0.03127436  0.51392709  0.53315079  1
  O  O417  1  0.28081027  0.84211662  0.59863888  1
  O  O418  1  0.04521022  0.30439326  0.58150231  1
  O  O419  1  0.89686426  0.84024818  0.49829098  1
  O  O420  1  0.62592810  0.22117716  0.53890462  1
  O  O421  1  0.79427178  0.59096780  0.61363046  1
  O  O422  1  0.84704232  0.81918500  0.61423248  1
  O  O423  1  0.56339684  0.31545921  0.61314888  1
  O  O424  1  0.42210743  0.98921914  0.55080619  1
  O  O425  1  0.07101429  0.08134032  0.61467954  1
  O  O426  1  0.85349126  0.75495870  0.54793225  1
  O  O427  1  0.75134933  0.67304903  0.56417526  1
  O  O428  1  0.94533163  0.00932930  0.63885060  1
  O  O429  1  0.78113770  0.00987369  0.51464425  1
  O  O430  1  0.71520961  0.38566009  0.60050514  1
  O  O431  1  0.55300321  0.88989564  0.59947891  1
  O  O432  1  0.28372778  0.53342141  0.50079500  1
  O  O433  1  0.06652057  0.50873853  0.63236997  1
  O  O434  1  0.89308185  0.19362182  0.57356597  1
  O  O435  1  0.75351884  0.93744321  0.62634624  1
  O  O436  1  0.51986337  0.61305650  0.56278022  1
  O  O437  1  0.84321378  0.47920269  0.60057981  1
  O  O438  1  0.79681754  0.10632006  0.55769970  1
  O  O439  1  0.05342213  0.63973051  0.54186787  1
  O  O440  1  0.23993206  0.96192731  0.61436899  1
  O  O441  1  0.22304885  0.15106302  0.55752082  1
  O  O442  1  0.41491531  0.43769548  0.62078546  1
  O  O443  1  0.97830730  0.84350281  0.73476242  1
  O  O444  1  0.79208763  0.51696658  0.66218792  1
  O  O445  1  0.32820832  0.87839360  0.76671430  1
  O  O446  1  0.15836253  0.54488139  0.69486922  1
  O  O447  1  0.77417671  0.04331332  0.70425026  1
  O  O448  1  0.93745486  0.37650696  0.76767782  1
  O  O449  1  0.19378893  0.01731736  0.67035176  1
  O  O450  1  0.36617591  0.34861971  0.73400811  1
  O  O451  1  0.60002931  0.96365713  0.68782050  1
  O  O452  1  0.78320929  0.28691863  0.75340870  1
  O  O453  1  0.36310085  0.10140867  0.68131660  1
  O  O454  1  0.53071913  0.43391642  0.74765404  1
  O  O455  1  0.64517668  0.92834302  0.74667005  1
  O  O456  1  0.44981454  0.60036468  0.68327845  1
  O  O457  1  0.66251265  0.78920252  0.75597233  1
  O  O458  1  0.49534472  0.45750197  0.68650601  1
  O  O459  1  0.60679984  0.06758076  0.64516880  1
  O  O460  1  0.75638904  0.38672636  0.70826528  1
  O  O461  1  0.37566298  0.99699681  0.72918651  1
  O  O462  1  0.18355937  0.66356859  0.65953956  1
  O  O463  1  0.45701558  0.17740080  0.65768069  1
  O  O464  1  0.66373654  0.49657451  0.72249685  1
  O  O465  1  0.48886829  0.89006072  0.70805195  1
  O  O466  1  0.32966984  0.55735320  0.63924022  1
  O  O467  1  0.96017851  0.91587517  0.68472921  1
  O  O468  1  0.14384843  0.24655511  0.75091289  1
  O  O469  1  0.00576252  0.14429654  0.68556475  1
  O  O470  1  0.18251550  0.47867700  0.74936108  1
  O  O471  1  0.92103108  0.97238766  0.75343374  1
  O  O472  1  0.72624649  0.64595736  0.68068817  1
  O  O473  1  0.38972459  0.74707166  0.75075221  1
  O  O474  1  0.22715776  0.41596582  0.68144439  1
  O  O475  1  0.11401706  0.33886221  0.70334322  1
  O  O476  1  0.28685985  0.66191382  0.76454465  1
  O  O477  1  0.84854226  0.72526120  0.66428211  1
  O  O478  1  0.02724349  0.05459898  0.73448662  1
  O  O479  1  0.89935257  0.54699011  0.72584975  1
  O  O480  1  0.73925925  0.22373713  0.66099991  1
  O  O481  1  0.41664751  0.17284799  0.77337861  1
  O  O482  1  0.23998557  0.84168324  0.70258506  1
  O  O483  1  0.08385876  0.59936741  0.75116219  1
  O  O484  1  0.93490051  0.26323586  0.69267648  1
  O  O485  1  0.22522689  0.12731309  0.74367725  1
  O  O486  1  0.04276458  0.79637612  0.67509883  1
  O  O487  1  0.40797469  0.29807131  0.67699437  1
  O  O488  1  0.58241448  0.63039756  0.74156739  1
  O  O489  1  0.56840923  0.76447425  0.69228250  1
  O  O490  1  0.74159018  0.09037012  0.76332605  1
  O  O491  1  0.31674233  0.50439413  0.87051097  1
  O  O492  1  0.14504198  0.17535965  0.80157574  1
  O  O493  1  0.63758616  0.54423782  0.89672273  1
  O  O494  1  0.52215185  0.20375248  0.83957734  1
  O  O495  1  0.14185005  0.70368301  0.82430307  1
  O  O496  1  0.27163171  0.00228624  0.91601267  1
  O  O497  1  0.52177897  0.67640745  0.80059707  1
  O  O498  1  0.72930246  0.00408210  0.86663256  1
  O  O499  1  0.93569114  0.61737445  0.81152358  1
  O  O500  1  0.11428481  0.93673775  0.88713505  1
  O  O501  1  0.71346986  0.75648911  0.81487706  1
  O  O502  1  0.86366986  0.09859236  0.88336473  1
  O  O503  1  0.99688028  0.57369789  0.86717296  1
  O  O504  1  0.81487156  0.26415230  0.81395760  1
  O  O505  1  0.98527155  0.46081304  0.89100070  1
  O  O506  1  0.86002842  0.11206216  0.82273033  1
  O  O507  1  0.93098840  0.71937818  0.77259942  1
  O  O508  1  0.11215006  0.04731253  0.85150787  1
  O  O509  1  0.72915469  0.65432366  0.85577723  1
  O  O510  1  0.54472624  0.32421154  0.79135982  1
  O  O511  1  0.82920792  0.82794533  0.79167847  1
  O  O512  1  0.01014033  0.15893929  0.85926535  1
  O  O513  1  0.80075020  0.54915018  0.83445652  1
  O  O514  1  0.67920338  0.21392015  0.77817442  1
  O  O515  1  0.29754952  0.56805101  0.81444234  1
  O  O516  1  0.47265036  0.89553260  0.88929666  1
  O  O517  1  0.35895217  0.80730258  0.81856472  1
  O  O518  1  0.51632645  0.16891670  0.90164085  1
  O  O519  1  0.24731346  0.63263017  0.87413032  1
  O  O520  1  0.09136883  0.30339843  0.81634898  1
  O  O521  1  0.74091675  0.41053470  0.89114942  1
  O  O522  1  0.55434957  0.07999794  0.82353156  1
  O  O523  1  0.46077133  0.99331821  0.84376216  1
  O  O524  1  0.61652321  0.33081293  0.89659294  1
  O  O525  1  0.19444388  0.38405544  0.79644943  1
  O  O526  1  0.37950275  0.70964341  0.86422242  1
  O  O527  1  0.24937418  0.20937107  0.86577358  1
  O  O528  1  0.06983615  0.87918853  0.79978638  1
  O  O529  1  0.76774809  0.82560862  0.90422091  1
  O  O530  1  0.57743721  0.49605040  0.83563413  1
  O  O531  1  0.38951247  0.28468840  0.88734442  1
  O  O532  1  0.26558662  0.92633276  0.82571220  1
  O  O533  1  0.58226854  0.77193663  0.88021583  1
  O  O534  1  0.37468648  0.45000126  0.81340857  1
  O  O535  1  0.72467579  0.96099435  0.80810606  1
  O  O536  1  0.91096185  0.29073197  0.87421220  1
  O  O537  1  0.91599251  0.42131836  0.82772897  1
  O  O538  1  0.07810974  0.74843031  0.88338494  1
  O  O539  1  0.52122590  0.82621474  0.93855994  1
  O  O540  1  0.04666140  0.76192319  0.95807200  1
  O  O541  1  0.53783717  0.38754076  0.95969493  1
  O  O542  1  0.86142792  0.32560346  0.93452869  1
  O  O543  1  0.96289613  0.43704465  0.95009654  1
  O  O544  1  0.17075464  0.92149845  0.94768853  1
  O  O545  1  0.23382867  0.40398649  0.92212129  1
  O  O546  1  0.42575865  0.70697726  0.99775689  1
  O  O547  1  0.81864656  0.38386009  0.00181692  1
  O  O548  1  0.93349601  0.90440805  0.92413587  1
  O  O549  1  0.08560010  0.51429651  0.93220430  1
  O  O550  1  0.45750164  0.90421264  0.99621579  1
  O  O551  1  0.15611891  0.20941337  0.98485020  1
  O  O552  1  0.19540301  0.83207397  0.91227935  1
  O  O553  1  0.48390500  0.26969246  0.95908119  1
  O  O554  1  0.61748556  0.49306728  0.95324672  1
  O  O555  1  0.53708292  0.96641735  0.94298906  1
  O  O556  1  0.78541622  0.66337712  0.00653521  1
  O  O557  1  0.45144094  0.06502084  0.90376933  1
  O  O558  1  0.35632538  0.57316732  0.93239585  1
  O  O559  1  0.96804948  0.14624099  0.96094592  1
  O  O560  1  0.59414301  0.60843898  0.95084179  1
  O  O561  1  0.76334027  0.05078839  0.93755706  1
  O  O562  1  0.98437347  0.64606685  0.91891491  1
  O  O563  1  0.31714244  0.07027635  0.96397526  1
