# generated using pymatgen
data_Na24Zr16Si14(P2O29)3
_symmetry_space_group_name_H-M   'P 1'
_cell_length_a   9.15937100
_cell_length_b   24.11698144
_cell_length_c   40.78244870
_cell_angle_alpha   90.00000000
_cell_angle_beta   90.00000000
_cell_angle_gamma   67.67936926
_symmetry_Int_Tables_number   1
_chemical_formula_structural   Na24Zr16Si14(P2O29)3
_chemical_formula_sum   'Na96 Zr64 Si56 P24 O348'
_cell_volume   8333.70102423
_cell_formula_units_Z   4
loop_
 _symmetry_equiv_pos_site_id
 _symmetry_equiv_pos_as_xyz
  1  'x, y, z'
loop_
 _atom_site_type_symbol
 _atom_site_label
 _atom_site_symmetry_multiplicity
 _atom_site_fract_x
 _atom_site_fract_y
 _atom_site_fract_z
 _atom_site_occupancy
  Na  Na0  1  0.06925672  0.84399102  0.08596952  1
  Na  Na1  1  0.54198218  0.10436784  0.01772899  1
  Na  Na2  1  0.61181049  0.45799944  0.05048344  1
  Na  Na3  1  0.59249476  0.05277549  0.08370559  1
  Na  Na4  1  0.34524429  0.53071371  0.08718918  1
  Na  Na5  1  0.51287358  0.95499235  0.04836039  1
  Na  Na6  1  0.93381575  0.80193882  0.98113669  1
  Na  Na7  1  0.27912395  0.38907870  0.09472276  1
  Na  Na8  1  0.97342970  0.55311733  0.00808032  1
  Na  Na9  1  0.94988678  0.21157717  0.10159840  1
  Na  Na10  1  0.70988045  0.71518974  0.09683845  1
  Na  Na11  1  0.88245669  0.08101059  0.01161218  1
  Na  Na12  1  0.63646624  0.24116775  0.22031045  1
  Na  Na13  1  0.94236633  0.50262984  0.11282070  1
  Na  Na14  1  0.48520182  0.64608546  0.14158806  1
  Na  Na15  1  0.16258784  0.42508927  0.23902131  1
  Na  Na16  1  0.00603029  0.87966554  0.21931929  1
  Na  Na17  1  0.19763839  0.24592491  0.16294663  1
  Na  Na18  1  0.07432328  0.03013870  0.13228863  1
  Na  Na19  1  0.90237207  0.70386214  0.20642102  1
  Na  Na20  1  0.74092454  0.88816212  0.15179396  1
  Na  Na21  1  0.57786260  0.55838692  0.22348783  1
  Na  Na22  1  0.33949618  0.05926257  0.20298307  1
  Na  Na23  1  0.52278753  0.38972962  0.16036722  1
  Na  Na24  1  0.17523601  0.64525266  0.35459955  1
  Na  Na25  1  0.57447555  0.86988562  0.27075909  1
  Na  Na26  1  0.13341174  0.04354126  0.28186388  1
  Na  Na27  1  0.83159644  0.76686032  0.37837407  1
  Na  Na28  1  0.69224142  0.27228299  0.38946543  1
  Na  Na29  1  0.85086704  0.58585304  0.29903496  1
  Na  Na30  1  0.75249575  0.42173839  0.28575787  1
  Na  Na31  1  0.58879398  0.15192461  0.34955225  1
  Na  Na32  1  0.39979127  0.22824365  0.27888131  1
  Na  Na33  1  0.24621087  0.89588584  0.34240077  1
  Na  Na34  1  0.03381884  0.39494828  0.35058478  1
  Na  Na35  1  0.18212187  0.72778602  0.27329885  1
  Na  Na36  1  0.15702661  0.83710182  0.45383836  1
  Na  Na37  1  0.16210522  0.23588033  0.42029871  1
  Na  Na38  1  0.77998965  0.38636313  0.41392943  1
  Na  Na39  1  0.65002058  0.97976195  0.47840754  1
  Na  Na40  1  0.49292874  0.55418895  0.51489716  1
  Na  Na41  1  0.47967446  0.94736682  0.40983257  1
  Na  Na42  1  0.43370080  0.73462662  0.42245137  1
  Na  Na43  1  0.23293016  0.32504455  0.45082201  1
  Na  Na44  1  0.08553638  0.56288501  0.41467237  1
  Na  Na45  1  0.91210234  0.23145738  0.47990178  1
  Na  Na46  1  0.74365333  0.72728473  0.48043643  1
  Na  Na47  1  0.87518094  0.06695995  0.40104348  1
  Na  Na48  1  0.11831694  0.44049067  0.58438780  1
  Na  Na49  1  0.91903647  0.10616236  0.49997677  1
  Na  Na50  1  0.61614020  0.83507031  0.55724474  1
  Na  Na51  1  0.64132659  0.22195675  0.58367909  1
  Na  Na52  1  0.87847888  0.73534063  0.58331894  1
  Na  Na53  1  0.73885120  0.31371430  0.54911606  1
  Na  Na54  1  0.17973353  0.49814659  0.48769530  1
  Na  Na55  1  0.95640307  0.88361547  0.58939576  1
  Na  Na56  1  0.27662511  0.70620020  0.50556895  1
  Na  Na57  1  0.29885779  0.06033137  0.58556687  1
  Na  Na58  1  0.51012444  0.57011485  0.60185243  1
  Na  Na59  1  0.58538580  0.22758041  0.51123627  1
  Na  Na60  1  0.47428560  0.07761139  0.70213086  1
  Na  Na61  1  0.28819852  0.77055454  0.61475848  1
  Na  Na62  1  0.71057138  0.65305484  0.64476796  1
  Na  Na63  1  0.92907043  0.90363485  0.71826211  1
  Na  Na64  1  0.20706700  0.40444761  0.71579263  1
  Na  Na65  1  0.02334967  0.04293225  0.65181558  1
  Na  Na66  1  0.13311180  0.25039360  0.62747638  1
  Na  Na67  1  0.30971755  0.57821392  0.70609574  1
  Na  Na68  1  0.46552723  0.39033181  0.65266037  1
  Na  Na69  1  0.63938440  0.72118758  0.73437344  1
  Na  Na70  1  0.86872701  0.22011576  0.69838288  1
  Na  Na71  1  0.69430294  0.89069900  0.65230343  1
  Na  Na72  1  0.89221146  0.70168258  0.85039069  1
  Na  Na73  1  0.64858887  0.40490991  0.76898116  1
  Na  Na74  1  0.09648345  0.22693292  0.78141412  1
  Na  Na75  1  0.38014747  0.51846896  0.86998067  1
  Na  Na76  1  0.56254029  0.98957769  0.88298813  1
  Na  Na77  1  0.37463599  0.68675524  0.79788100  1
  Na  Na78  1  0.49071597  0.91269618  0.76482776  1
  Na  Na79  1  0.64670383  0.09934153  0.84550114  1
  Na  Na80  1  0.80719849  0.04624212  0.76692604  1
  Na  Na81  1  0.98484849  0.37558441  0.84109365  1
  Na  Na82  1  0.22318405  0.87250857  0.83233657  1
  Na  Na83  1  0.05193049  0.54550517  0.79412639  1
  Na  Na84  1  0.08721468  0.43509273  0.95385401  1
  Na  Na85  1  0.04717834  0.04264714  0.91899790  1
  Na  Na86  1  0.42101303  0.88897777  0.91107322  1
  Na  Na87  1  0.43583407  0.21714108  0.96965189  1
  Na  Na88  1  0.86593807  0.68481995  0.00893919  1
  Na  Na89  1  0.75303226  0.32375224  0.91047734  1
  Na  Na90  1  0.82244479  0.53349399  0.91803688  1
  Na  Na91  1  0.97976445  0.95032341  0.94896713  1
  Na  Na92  1  0.16405442  0.70336858  0.91409782  1
  Na  Na93  1  0.38258415  0.04551553  0.97797779  1
  Na  Na94  1  0.51423668  0.54160718  0.96097597  1
  Na  Na95  1  0.38397414  0.19732462  0.89580435  1
  Zr  Zr96  1  0.27023820  0.62275954  0.02616838  1
  Zr  Zr97  1  0.92100135  0.35877174  0.09957308  1
  Zr  Zr98  1  0.66644139  0.59194260  0.06055610  1
  Zr  Zr99  1  0.86464732  0.93671372  0.02755977  1
  Zr  Zr100  1  0.35587354  0.40372739  0.02158960  1
  Zr  Zr101  1  0.19473524  0.08888537  0.06142360  1
  Zr  Zr102  1  0.43492713  0.84801691  0.09289690  1
  Zr  Zr103  1  0.59388882  0.21463889  0.04593891  1
  Zr  Zr104  1  0.74442345  0.02202058  0.16215533  1
  Zr  Zr105  1  0.57434342  0.69091738  0.22971388  1
  Zr  Zr106  1  0.35109589  0.92449352  0.20340091  1
  Zr  Zr107  1  0.52945732  0.25480044  0.14157353  1
  Zr  Zr108  1  0.01555457  0.74792716  0.13448623  1
  Zr  Zr109  1  0.83225159  0.42863444  0.20704452  1
  Zr  Zr110  1  0.08124482  0.19172334  0.23146979  1
  Zr  Zr111  1  0.25003894  0.52086932  0.16311410  1
  Zr  Zr112  1  0.40857006  0.35894712  0.29833783  1
  Zr  Zr113  1  0.24564646  0.03417265  0.36241020  1
  Zr  Zr114  1  0.01414614  0.26234472  0.34188451  1
  Zr  Zr115  1  0.18819001  0.59366678  0.27487807  1
  Zr  Zr116  1  0.67829330  0.09338706  0.27353272  1
  Zr  Zr117  1  0.51381838  0.76220779  0.34171991  1
  Zr  Zr118  1  0.74423952  0.52766628  0.36501027  1
  Zr  Zr119  1  0.92130545  0.86197891  0.29730187  1
  Zr  Zr120  1  0.09186017  0.69920327  0.43704444  1
  Zr  Zr121  1  0.89166733  0.36721228  0.48554222  1
  Zr  Zr122  1  0.72349568  0.59712778  0.47242109  1
  Zr  Zr123  1  0.86651398  0.93498615  0.40728950  1
  Zr  Zr124  1  0.35000169  0.42817421  0.40799888  1
  Zr  Zr125  1  0.23833809  0.10177649  0.47358879  1
  Zr  Zr126  1  0.45611646  0.86138389  0.47874527  1
  Zr  Zr127  1  0.57612933  0.18709233  0.43880341  1
  Zr  Zr128  1  0.01535703  0.63014303  0.52616267  1
  Zr  Zr129  1  0.29467610  0.92467659  0.59116841  1
  Zr  Zr130  1  0.58299282  0.68168515  0.55658420  1
  Zr  Zr131  1  0.33440114  0.35409868  0.53077341  1
  Zr  Zr132  1  0.89415496  0.85491470  0.51880156  1
  Zr  Zr133  1  0.01647379  0.18702741  0.55734890  1
  Zr  Zr134  1  0.75172738  0.43514527  0.58965195  1
  Zr  Zr135  1  0.59055837  0.09797861  0.52391327  1
  Zr  Zr136  1  0.46009739  0.25800061  0.65800227  1
  Zr  Zr137  1  0.64848626  0.58400758  0.72785494  1
  Zr  Zr138  1  0.86519603  0.35208334  0.70096509  1
  Zr  Zr139  1  0.68585912  0.02570603  0.63221650  1
  Zr  Zr140  1  0.19246449  0.53208102  0.63598919  1
  Zr  Zr141  1  0.38448841  0.84846499  0.70033911  1
  Zr  Zr142  1  0.12876152  0.08404427  0.72722235  1
  Zr  Zr143  1  0.97453326  0.75774442  0.66010920  1
  Zr  Zr144  1  0.82177206  0.91210819  0.79691982  1
  Zr  Zr145  1  0.98989834  0.23632592  0.86132923  1
  Zr  Zr146  1  0.21275271  0.00808027  0.83713539  1
  Zr  Zr147  1  0.03822733  0.68382051  0.77094015  1
  Zr  Zr148  1  0.54384000  0.18124732  0.76950185  1
  Zr  Zr149  1  0.72273333  0.50958211  0.83911081  1
  Zr  Zr150  1  0.48105031  0.74411470  0.86609659  1
  Zr  Zr151  1  0.30685065  0.41098054  0.79575620  1
  Zr  Zr152  1  0.14013883  0.57003847  0.93912136  1
  Zr  Zr153  1  0.31664221  0.91469481  0.98500766  1
  Zr  Zr154  1  0.55286051  0.66369232  0.97381918  1
  Zr  Zr155  1  0.37813757  0.33457772  0.90591568  1
  Zr  Zr156  1  0.88570179  0.83843522  0.90531578  1
  Zr  Zr157  1  0.06021422  0.16529316  0.96903652  1
  Zr  Zr158  1  0.78398270  0.40886975  0.97581608  1
  Zr  Zr159  1  0.65161102  0.07553870  0.93555772  1
  Si  Si160  1  0.80799828  0.80936264  0.05805799  1
  Si  Si161  1  0.79240244  0.12399199  0.10125803  1
  Si  Si162  1  0.96291565  0.44185149  0.03942705  1
  Si  Si163  1  0.14362393  0.95288528  0.04648528  1
  Si  Si164  1  0.01816285  0.61348480  0.09627129  1
  Si  Si165  1  0.63032931  0.31693867  0.07342590  1
  Si  Si166  1  0.64057868  0.49682595  0.13549133  1
  Si  Si167  1  0.47746377  0.15332569  0.20173981  1
  Si  Si168  1  0.44673805  0.46157949  0.23641836  1
  Si  Si169  1  0.61751636  0.79075569  0.16643930  1
  Si  Si170  1  0.83696728  0.29495414  0.17009003  1
  Si  Si171  1  0.67207681  0.96139266  0.23425119  1
  Si  Si172  1  0.25489212  0.65459166  0.19916839  1
  Si  Si173  1  0.42759157  0.98366455  0.12780780  1
  Si  Si174  1  0.31442567  0.82381916  0.26746928  1
  Si  Si175  1  0.14167550  0.49477995  0.33744825  1
  Si  Si176  1  0.12430166  0.79721549  0.37239824  1
  Si  Si177  1  0.28563723  0.13109204  0.30235046  1
  Si  Si178  1  0.50172220  0.63016501  0.30403922  1
  Si  Si179  1  0.34893314  0.29212220  0.37228336  1
  Si  Si180  1  0.92870089  0.99526567  0.33273025  1
  Si  Si181  1  0.07847762  0.32580072  0.27033685  1
  Si  Si182  1  0.98270535  0.16402621  0.40597829  1
  Si  Si183  1  0.77670292  0.83855693  0.45471393  1
  Si  Si184  1  0.95010964  0.46880426  0.43335602  1
  Si  Si185  1  0.14765120  0.98253556  0.44194987  1
  Si  Si186  1  0.57930601  0.32888855  0.46601462  1
  Si  Si187  1  0.76763881  0.66013145  0.40168563  1
  Si  Si188  1  0.34928176  0.49319864  0.55577970  1
  Si  Si189  1  0.41582861  0.15904666  0.59397283  1
  Si  Si190  1  0.28221237  0.82574626  0.53900722  1
  Si  Si191  1  0.05457030  0.33133822  0.54539607  1
  Si  Si192  1  0.21258866  0.66387523  0.59505032  1
  Si  Si193  1  0.61126424  0.96876304  0.56303802  1
  Si  Si194  1  0.58246022  0.79167901  0.62660547  1
  Si  Si195  1  0.73469963  0.12552035  0.69477731  1
  Si  Si196  1  0.77720306  0.81633057  0.73157517  1
  Si  Si197  1  0.58812079  0.48602505  0.66646314  1
  Si  Si198  1  0.37389030  0.98448088  0.66265491  1
  Si  Si199  1  0.54191397  0.31458172  0.73077544  1
  Si  Si200  1  0.95732145  0.62762676  0.69773762  1
  Si  Si201  1  0.77853794  0.29569062  0.62477873  1
  Si  Si202  1  0.91183096  0.45020090  0.76502016  1
  Si  Si203  1  0.09057132  0.77797696  0.83557277  1
  Si  Si204  1  0.11388490  0.47152232  0.87192082  1
  Si  Si205  1  0.93764838  0.14027566  0.80006159  1
  Si  Si206  1  0.72713475  0.64071888  0.80289634  1
  Si  Si207  1  0.89939684  0.97224100  0.86936345  1
  Si  Si208  1  0.30325678  0.27747880  0.83125240  1
  Si  Si209  1  0.14196279  0.94993315  0.76366822  1
  Si  Si210  1  0.27010045  0.10238934  0.89758303  1
  Si  Si211  1  0.45941126  0.42724993  0.95633450  1
  Si  Si212  1  0.28404857  0.79701543  0.93933135  1
  Si  Si213  1  0.09351521  0.29071346  0.93866418  1
  Si  Si214  1  0.65826384  0.93083127  0.96156778  1
  Si  Si215  1  0.48188916  0.61217799  0.90187862  1
  P  P216  1  0.25564869  0.22718628  0.08089928  1
  P  P217  1  0.33776896  0.72110207  0.07838930  1
  P  P218  1  0.09935865  0.88969287  0.14885924  1
  P  P219  1  0.92701586  0.55841370  0.22031921  1
  P  P220  1  0.00182085  0.06016356  0.21606722  1
  P  P221  1  0.17953808  0.38357011  0.15959541  1
  P  P222  1  0.75332090  0.22659851  0.28746026  1
  P  P223  1  0.60433806  0.89386826  0.35159782  1
  P  P224  1  0.66264214  0.39675054  0.34879889  1
  P  P225  1  0.83888774  0.72693447  0.28623634  1
  P  P226  1  0.43684618  0.55669267  0.42818148  1
  P  P227  1  0.51877371  0.06220364  0.40908519  1
  P  P228  1  0.94987029  0.04924384  0.57194298  1
  P  P229  1  0.87091806  0.55836621  0.58695486  1
  P  P230  1  0.10296814  0.38944435  0.64623204  1
  P  P231  1  0.29868288  0.71803351  0.71714107  1
  P  P232  1  0.21553955  0.21499403  0.71314059  1
  P  P233  1  0.04294352  0.89556170  0.65281667  1
  P  P234  1  0.46871509  0.04515346  0.78239952  1
  P  P235  1  0.62773168  0.37766305  0.84980738  1
  P  P236  1  0.57067513  0.87203433  0.84542428  1
  P  P237  1  0.38989341  0.54802710  0.78418946  1
  P  P238  1  0.81428451  0.70802670  0.92541458  1
  P  P239  1  0.72759685  0.20756320  0.91782057  1
  O  O240  1  0.91029428  0.79343163  0.09285913  1
  O  O241  1  0.85273607  0.40929842  0.02342573  1
  O  O242  1  0.69009250  0.13116383  0.06679660  1
  O  O243  1  0.12693327  0.60927147  0.06350052  1
  O  O244  1  0.09196533  0.94115096  0.00769729  1
  O  O245  1  0.68437320  0.63463532  0.01813239  1
  O  O246  1  0.52924244  0.32085033  0.10723186  1
  O  O247  1  0.26692725  0.70238495  0.04781506  1
  O  O248  1  0.09903038  0.35795797  0.13383519  1
  O  O249  1  0.47708941  0.56747204  0.04860535  1
  O  O250  1  0.34795388  0.23517588  0.11168934  1
  O  O251  1  0.24553281  0.71955116  0.11016822  1
  O  O252  1  0.38915674  0.05885928  0.03931762  1
  O  O253  1  0.21954478  0.88133652  0.12086612  1
  O  O254  1  0.35789522  0.22325753  0.04975188  1
  O  O255  1  0.09647744  0.28084647  0.07789091  1
  O  O256  1  0.51169051  0.67622963  0.08373603  1
  O  O257  1  0.71840296  0.01324159  0.03358860  1
  O  O258  1  0.35963145  0.44847443  0.05792557  1
  O  O259  1  0.22005807  0.16936333  0.08358342  1
  O  O260  1  0.33321936  0.78531655  0.07316248  1
  O  O261  1  0.89056862  0.76599184  0.02807960  1
  O  O262  1  0.77039143  0.43687835  0.11771298  1
  O  O263  1  0.84755879  0.51221904  0.04697243  1
  O  O264  1  0.70288535  0.18788319  0.12121392  1
  O  O265  1  0.97870646  0.67597998  0.11706494  1
  O  O266  1  0.11751191  0.02251875  0.04770632  1
  O  O267  1  0.48768587  0.91736321  0.10935357  1
  O  O268  1  0.75123920  0.24896515  0.06444023  1
  O  O269  1  0.72329458  0.36160591  0.07292335  1
  O  O270  1  0.13730064  0.60783421  0.98980032  1
  O  O271  1  0.01785942  0.93414545  0.06661876  1
  O  O272  1  0.84755763  0.61102032  0.08539345  1
  O  O273  1  0.97452429  0.11495709  0.09471418  1
  O  O274  1  0.11351730  0.43649249  0.01503191  1
  O  O275  1  0.64179422  0.18812942  0.00394638  1
  O  O276  1  0.63316625  0.80765168  0.06700312  1
  O  O277  1  0.77525032  0.06872205  0.12198733  1
  O  O278  1  0.03306036  0.40944823  0.07425071  1
  O  O279  1  0.63735885  0.55424245  0.11330198  1
  O  O280  1  0.78200051  0.88055010  0.05059445  1
  O  O281  1  0.49203956  0.32418695  0.04349940  1
  O  O282  1  0.30934821  0.03533431  0.10375064  1
  O  O283  1  0.32931363  0.90701617  0.04865711  1
  O  O284  1  0.11816894  0.55613371  0.12020216  1
  O  O285  1  0.55920100  0.15769235  0.23687391  1
  O  O286  1  0.70662783  0.49512509  0.17328650  1
  O  O287  1  0.53744106  0.78888376  0.13068167  1
  O  O288  1  0.37441853  0.46159173  0.19965856  1
  O  O289  1  0.75918692  0.95767265  0.19848532  1
  O  O290  1  0.89665456  0.29586410  0.13222518  1
  O  O291  1  0.33691525  0.98179892  0.16260173  1
  O  O292  1  0.17427747  0.65419719  0.23507283  1
  O  O293  1  0.91766456  0.04793748  0.18588701  1
  O  O294  1  0.75174784  0.71562535  0.25588764  1
  O  O295  1  0.17724514  0.89289706  0.18228266  1
  O  O296  1  0.00960830  0.56958251  0.25154959  1
  O  O297  1  0.90009112  0.07081224  0.24764104  1
  O  O298  1  0.07335669  0.40304617  0.19005830  1
  O  O299  1  0.86010681  0.21224724  0.25633786  1
  O  O300  1  0.04207346  0.54300008  0.19104128  1
  O  O301  1  0.95450967  0.94855413  0.14331353  1
  O  O302  1  0.78078086  0.61514921  0.21202938  1
  O  O303  1  0.15821786  0.00505729  0.22305561  1
  O  O304  1  0.34102238  0.33338534  0.16713340  1
  O  O305  1  0.04022249  0.83688835  0.14857834  1
  O  O306  1  0.87849079  0.50501284  0.22872232  1
  O  O307  1  0.04635657  0.11484447  0.20903731  1
  O  O308  1  0.20622897  0.43876070  0.14473763  1
  O  O309  1  0.56461898  0.08743632  0.18453988  1
  O  O310  1  0.39651286  0.75665588  0.25116819  1
  O  O311  1  0.53425981  0.85769928  0.18269907  1
  O  O312  1  0.36194549  0.52862877  0.25280736  1
  O  O313  1  0.64317640  0.02459936  0.25316254  1
  O  O314  1  0.78850586  0.36321029  0.18461644  1
  O  O315  1  0.12045479  0.25958630  0.25397249  1
  O  O316  1  0.29104780  0.59148312  0.17902357  1
  O  O317  1  0.42951234  0.65956859  0.20237134  1
  O  O318  1  0.59276950  0.99450895  0.13482324  1
  O  O319  1  0.67448837  0.28115954  0.17084180  1
  O  O320  1  0.49965566  0.95567534  0.22877361  1
  O  O321  1  0.63383474  0.45255294  0.23559309  1
  O  O322  1  0.80597883  0.77985106  0.16062640  1
  O  O323  1  0.46442362  0.49156028  0.13631437  1
  O  O324  1  0.28969115  0.16474562  0.20437830  1
  O  O325  1  0.41496430  0.41099625  0.25810037  1
  O  O326  1  0.61390764  0.73760843  0.19093634  1
  O  O327  1  0.33968672  0.87494420  0.24433780  1
  O  O328  1  0.48608227  0.20806898  0.17888061  1
  O  O329  1  0.12999020  0.70876264  0.17737748  1
  O  O330  1  0.95462620  0.38110725  0.24863955  1
  O  O331  1  0.97485347  0.24544680  0.19122067  1
  O  O332  1  0.78847812  0.90364442  0.25569963  1
  O  O333  1  0.20548961  0.49162107  0.37550052  1
  O  O334  1  0.39469386  0.82455006  0.30343432  1
  O  O335  1  0.20701118  0.13071727  0.26642642  1
  O  O336  1  0.02866958  0.81167795  0.33737425  1
  O  O337  1  0.41301363  0.30100158  0.33596146  1
  O  O338  1  0.58221368  0.62916848  0.26783172  1
  O  O339  1  0.00474425  0.32856857  0.30745351  1
  O  O340  1  0.87559444  0.98719435  0.37053143  1
  O  O341  1  0.59966675  0.38129515  0.31658045  1
  O  O342  1  0.46149604  0.04668270  0.37627222  1
  O  O343  1  0.83455305  0.24329009  0.31673205  1
  O  O344  1  0.70972690  0.90461148  0.37902532  1
  O  O345  1  0.53136565  0.41903541  0.37477366  1
  O  O346  1  0.73297757  0.74047398  0.31683807  1
  O  O347  1  0.54514513  0.54292017  0.39767898  1
  O  O348  1  0.68638441  0.88898136  0.31811845  1
  O  O349  1  0.59655296  0.27892162  0.27708780  1
  O  O350  1  0.43679077  0.94399275  0.35143198  1
  O  O351  1  0.79880093  0.34075687  0.36305278  1
  O  O352  1  0.98795001  0.67037596  0.29397345  1
  O  O353  1  0.71068907  0.17224496  0.29661198  1
  O  O354  1  0.58180612  0.83510165  0.36006117  1
  O  O355  1  0.72687798  0.44646154  0.34165443  1
  O  O356  1  0.88855388  0.78035035  0.27838557  1
  O  O357  1  0.23573500  0.42918501  0.32036414  1
  O  O358  1  0.08045278  0.10445483  0.38367290  1
  O  O359  1  0.18672565  0.19359271  0.32223835  1
  O  O360  1  0.04310250  0.85711378  0.39685242  1
  O  O361  1  0.31580194  0.35415614  0.39407823  1
  O  O362  1  0.47996719  0.69289076  0.32286422  1
  O  O363  1  0.77398673  0.59994239  0.38237121  1
  O  O364  1  0.96400909  0.93241350  0.31337371  1
  O  O365  1  0.10097960  0.00213245  0.33552005  1
  O  O366  1  0.24791083  0.33505278  0.27240288  1
  O  O367  1  0.32232567  0.63041488  0.30106781  1
  O  O368  1  0.17411626  0.28712953  0.36966553  1
  O  O369  1  0.30721224  0.79291739  0.36841840  1
  O  O370  1  0.46755791  0.12792937  0.30000518  1
  O  O371  1  0.12583127  0.83409894  0.26944632  1
  O  O372  1  0.95208310  0.50526122  0.33789854  1
  O  O373  1  0.11286943  0.73614506  0.38736037  1
  O  O374  1  0.27200255  0.07360077  0.32102713  1
  O  O375  1  0.97398917  0.22363396  0.38514050  1
  O  O376  1  0.15692318  0.55097039  0.31689678  1
  O  O377  1  0.79784494  0.05310392  0.31550136  1
  O  O378  1  0.64095680  0.71910085  0.38314968  1
  O  O379  1  0.61999853  0.57321792  0.32523399  1
  O  O380  1  0.48456586  0.23527960  0.39057456  1
  O  O381  1  0.73689569  0.82449461  0.49403787  1
  O  O382  1  0.07003766  0.16358708  0.44176492  1
  O  O383  1  0.89399786  0.45487074  0.39740489  1
  O  O384  1  0.65746684  0.13586267  0.48398677  1
  O  O385  1  0.22194792  0.98937486  0.40642631  1
  O  O386  1  0.69315849  0.66295400  0.44007164  1
  O  O387  1  0.40679162  0.34426544  0.48319736  1
  O  O388  1  0.22193052  0.73700949  0.45299242  1
  O  O389  1  0.52911403  0.56614157  0.45876246  1
  O  O390  1  0.37467729  0.08749512  0.43128156  1
  O  O391  1  0.36806837  0.22124385  0.45428259  1
  O  O392  1  0.28387828  0.61384631  0.42214058  1
  O  O393  1  0.97605523  0.31468385  0.45071599  1
  O  O394  1  0.64051473  0.00227980  0.42435641  1
  O  O395  1  0.37758914  0.50474737  0.43522015  1
  O  O396  1  0.46777874  0.78731677  0.46585289  1
  O  O397  1  0.59876906  0.10801014  0.40564837  1
  O  O398  1  0.86653099  0.77485080  0.43739606  1
  O  O399  1  0.87525114  0.54029349  0.43989500  1
  O  O400  1  0.14582570  0.03725615  0.46712789  1
  O  O401  1  0.64884927  0.25712446  0.45660622  1
  O  O402  1  0.70394038  0.34099362  0.49207123  1
  O  O403  1  0.94393258  0.66152152  0.40423769  1
  O  O404  1  0.97125337  0.98093313  0.43601760  1
  O  O405  1  0.92008944  0.58411663  0.49601136  1
  O  O406  1  0.12656833  0.14417418  0.51324229  1
  O  O407  1  0.14377589  0.44570495  0.43871031  1
  O  O408  1  0.80663095  0.16530892  0.41228321  1
  O  O409  1  0.59790538  0.87987031  0.44384367  1
  O  O410  1  0.86501827  0.44159772  0.46186859  1
  O  O411  1  0.87263809  0.88371629  0.45861511  1
  O  O412  1  0.55534881  0.37221499  0.43420345  1
  O  O413  1  0.25673961  0.91768014  0.45821399  1
  O  O414  1  0.28022927  0.49050452  0.59237600  1
  O  O415  1  0.39038618  0.86331644  0.52704435  1
  O  O416  1  0.50034869  0.16258447  0.55777852  1
  O  O417  1  0.11051669  0.66889773  0.56130857  1
  O  O418  1  0.11563108  0.34382904  0.50788509  1
  O  O419  1  0.58277591  0.63134015  0.51551698  1
  O  O420  1  0.70852992  0.95578851  0.59802566  1
  O  O421  1  0.97349886  0.57248984  0.56183296  1
  O  O422  1  0.12299344  0.92062627  0.62692796  1
  O  O423  1  0.78270590  0.69022946  0.53901765  1
  O  O424  1  0.86441066  0.04479608  0.60421572  1
  O  O425  1  0.95039719  0.55099750  0.62099058  1
  O  O426  1  0.82205237  0.20462003  0.53480329  1
  O  O427  1  0.97612324  0.40220021  0.61909044  1
  O  O428  1  0.83535288  0.06108476  0.54195169  1
  O  O429  1  0.09568830  0.99028734  0.56655811  1
  O  O430  1  0.70415970  0.60925728  0.59034537  1
  O  O431  1  0.51472990  0.30008415  0.54985782  1
  O  O432  1  0.88038333  0.81888166  0.55798545  1
  O  O433  1  0.01170030  0.10081517  0.57560587  1
  O  O434  1  0.84739427  0.50032235  0.57620392  1
  O  O435  1  0.26161487  0.55183506  0.53180629  1
  O  O436  1  0.48809298  0.85597364  0.60777038  1
  O  O437  1  0.39710413  0.75479446  0.54045077  1
  O  O438  1  0.51113361  0.09496213  0.61327283  1
  O  O439  1  0.23793853  0.60203672  0.61644934  1
  O  O440  1  0.03557645  0.26779708  0.54387694  1
  O  O441  1  0.72249825  0.36103391  0.60491756  1
  O  O442  1  0.54688919  0.03937587  0.55492956  1
  O  O443  1  0.46127082  0.94760161  0.56507203  1
  O  O444  1  0.05253665  0.67190623  0.48481666  1
  O  O445  1  0.18503452  0.34287444  0.56768578  1
  O  O446  1  0.38389702  0.66694798  0.58594595  1
  O  O447  1  0.23450475  0.16522672  0.58825687  1
  O  O448  1  0.13208594  0.83462995  0.51412406  1
  O  O449  1  0.45535817  0.07094591  0.49438919  1
  O  O450  1  0.54123704  0.48084818  0.56061865  1
  O  O451  1  0.43245691  0.21204956  0.61693907  1
  O  O452  1  0.21664329  0.85429497  0.57481913  1
  O  O453  1  0.59852071  0.73637044  0.60123561  1
  O  O454  1  0.31580578  0.43879194  0.53615562  1
  O  O455  1  0.73375813  0.93586012  0.53179253  1
  O  O456  1  0.88471141  0.24158345  0.60031538  1
  O  O457  1  0.87340160  0.38393752  0.54638634  1
  O  O458  1  0.10528836  0.72061768  0.61855591  1
  O  O459  1  0.64674911  0.12070788  0.72905275  1
  O  O460  1  0.48181794  0.79032637  0.65960786  1
  O  O461  1  0.65074211  0.48649538  0.62874306  1
  O  O462  1  0.85737996  0.82078277  0.69623103  1
  O  O463  1  0.44681381  0.32037390  0.69580050  1
  O  O464  1  0.29463474  0.98930512  0.62578623  1
  O  O465  1  0.87779745  0.29714121  0.65832598  1
  O  O466  1  0.04686778  0.62909772  0.73205463  1
  O  O467  1  0.29998909  0.22717536  0.68297995  1
  O  O468  1  0.47464766  0.55643951  0.75285992  1
  O  O469  1  0.02954407  0.38636057  0.68030624  1
  O  O470  1  0.21714517  0.71103575  0.74950169  1
  O  O471  1  0.31491667  0.20590602  0.74486952  1
  O  O472  1  0.14354984  0.87854622  0.68422492  1
  O  O473  1  0.36115519  0.05573784  0.75146607  1
  O  O474  1  0.18145111  0.73175769  0.68819546  1
  O  O475  1  0.24126905  0.32839181  0.64029234  1
  O  O476  1  0.43826344  0.65815312  0.70996878  1
  O  O477  1  0.05401843  0.26735728  0.71905854  1
  O  O478  1  0.87808972  0.94455872  0.66062295  1
  O  O479  1  0.17565876  0.43855388  0.64718829  1
  O  O480  1  0.36196094  0.76869796  0.72153555  1
  O  O481  1  0.18579680  0.15675419  0.70598236  1
  O  O482  1  0.02135067  0.83838688  0.63967122  1
  O  O483  1  0.64969268  0.19190731  0.67807028  1
  O  O484  1  0.82405247  0.51608035  0.74778745  1
  O  O485  1  0.67633827  0.41925026  0.68222037  1
  O  O486  1  0.86041238  0.75089178  0.74936322  1
  O  O487  1  0.57585532  0.25019234  0.74878846  1
  O  O488  1  0.42666450  0.91602041  0.67694400  1
  O  O489  1  0.07785127  0.01726303  0.74732214  1
  O  O490  1  0.91862185  0.68867674  0.67536602  1
  O  O491  1  0.78397311  0.62286978  0.70307498  1
  O  O492  1  0.61022897  0.28900950  0.63361204  1
  O  O493  1  0.53505900  0.99964626  0.66024566  1
  O  O494  1  0.71432198  0.31997057  0.72468993  1
  O  O495  1  0.59120925  0.82524046  0.72637079  1
  O  O496  1  0.39871297  0.49704305  0.66309659  1
  O  O497  1  0.76237961  0.78903520  0.63381154  1
  O  O498  1  0.92213955  0.11483953  0.69984818  1
  O  O499  1  0.78788102  0.87033507  0.75429222  1
  O  O500  1  0.60500532  0.53964083  0.68832985  1
  O  O501  1  0.88855583  0.39766871  0.74237383  1
  O  O502  1  0.72836634  0.07255643  0.67017043  1
  O  O503  1  0.08430841  0.57150437  0.67785008  1
  O  O504  1  0.26946208  0.90082066  0.73989169  1
  O  O505  1  0.24703348  0.03400386  0.68652238  1
  O  O506  1  0.43101211  0.37138459  0.75349073  1
  O  O507  1  0.02055696  0.77301182  0.87209887  1
  O  O508  1  0.83158063  0.44794400  0.80088803  1
  O  O509  1  0.02404580  0.14195913  0.76490368  1
  O  O510  1  0.20158261  0.46489784  0.83593077  1
  O  O511  1  0.80034380  0.96897612  0.83591998  1
  O  O512  1  0.62972655  0.64411704  0.76861114  1
  O  O513  1  0.23532832  0.94796422  0.79814142  1
  O  O514  1  0.37242847  0.28062826  0.86804340  1
  O  O515  1  0.63313020  0.88455390  0.81235677  1
  O  O516  1  0.81485070  0.21536484  0.88697178  1
  O  O517  1  0.38583705  0.03284436  0.81287355  1
  O  O518  1  0.52637057  0.36657510  0.87780367  1
  O  O519  1  0.70622708  0.85327336  0.87052135  1
  O  O520  1  0.49629310  0.54062421  0.81463026  1
  O  O521  1  0.70399181  0.72138014  0.89485668  1
  O  O522  1  0.54390835  0.38084918  0.81657187  1
  O  O523  1  0.62345863  0.98986290  0.77490080  1
  O  O524  1  0.79432797  0.32668015  0.85035173  1
  O  O525  1  0.43407793  0.92935365  0.85817138  1
  O  O526  1  0.23594668  0.60385032  0.78974648  1
  O  O527  1  0.51502687  0.09948148  0.78920647  1
  O  O528  1  0.64728447  0.43779096  0.85651074  1
  O  O529  1  0.50737977  0.82125297  0.84235140  1
  O  O530  1  0.34847261  0.49176442  0.77963472  1
  O  O531  1  0.99590711  0.84459238  0.81945734  1
  O  O532  1  0.16925100  0.16617002  0.87924418  1
  O  O533  1  0.03196276  0.07684462  0.81951655  1
  O  O534  1  0.19158518  0.40791147  0.89325687  1
  O  O535  1  0.91515120  0.91433648  0.89339744  1
  O  O536  1  0.78486999  0.57311386  0.81852771  1
  O  O537  1  0.42529408  0.67762769  0.88421018  1
  O  O538  1  0.26057844  0.34257177  0.81345737  1
  O  O539  1  0.13186297  0.26954715  0.83440421  1
  O  O540  1  0.97816678  0.93760320  0.76973036  1
  O  O541  1  0.89011613  0.65321611  0.79725610  1
  O  O542  1  0.07945697  0.96688148  0.86046891  1
  O  O543  1  0.92807696  0.47839674  0.86653009  1
  O  O544  1  0.75710649  0.14330536  0.79423435  1
  O  O545  1  0.09869385  0.44147962  0.76870100  1
  O  O546  1  0.27804703  0.76873809  0.83721010  1
  O  O547  1  0.13323104  0.52702195  0.89149434  1
  O  O548  1  0.94568453  0.19719277  0.82075528  1
  O  O549  1  0.24100460  0.04626473  0.88040394  1
  O  O550  1  0.07152592  0.72498557  0.81325742  1
  O  O551  1  0.42534477  0.22178252  0.81056301  1
  O  O552  1  0.59512371  0.55775799  0.87823413  1
  O  O553  1  0.61450323  0.69088594  0.82860160  1
  O  O554  1  0.79750065  0.03377430  0.88851630  1
  O  O555  1  0.52045485  0.42751738  0.99598213  1
  O  O556  1  0.19391432  0.10625094  0.93564040  1
  O  O557  1  0.36045331  0.80237790  0.90361300  1
  O  O558  1  0.48145355  0.11918821  0.96516005  1
  O  O559  1  0.01328833  0.28134801  0.90468093  1
  O  O560  1  0.59752130  0.61121101  0.93364544  1
  O  O561  1  0.83041709  0.91125504  0.98040673  1
  O  O562  1  0.00229562  0.53608401  0.95472202  1
  O  O563  1  0.73198414  0.69827025  0.95694008  1
  O  O564  1  0.84665475  0.18968178  0.94707738  1
  O  O565  1  0.84989524  0.05336986  0.95859981  1
  O  O566  1  0.96684117  0.65219975  0.91787784  1
  O  O567  1  0.23603809  0.96117604  0.94788484  1
  O  O568  1  0.59670992  0.26940206  0.92628072  1
  O  O569  1  0.87256288  0.75987916  0.93155958  1
  O  O570  1  0.77412007  0.48316855  0.96359629  1
  O  O571  1  0.65293923  0.16107236  0.91260095  1
  O  O572  1  0.34959310  0.49545498  0.94788349  1
  O  O573  1  0.36199894  0.72990883  0.95509100  1
  O  O574  1  0.10829965  0.23845534  0.96621339  1
  O  O575  1  0.60904466  0.99493961  0.94291874  1
  O  O576  1  0.51887015  0.93374102  0.98857646  1
  O  O577  1  0.32700149  0.60013415  0.91379901  1
  O  O578  1  0.27425347  0.28592904  0.93230567  1
  O  O579  1  0.41527762  0.62575264  0.99014253  1
  O  O580  1  0.08186045  0.13086587  0.01226631  1
  O  O581  1  0.09104967  0.81594389  0.93612167  1
  O  O582  1  0.45495200  0.09320130  0.89532679  1
  O  O583  1  0.63090495  0.40195622  0.93904423  1
  O  O584  1  0.33544168  0.83865745  0.96526280  1
  O  O585  1  0.36534252  0.38183502  0.95552874  1
  O  O586  1  0.68237545  0.87834129  0.93435653  1
  O  O587  1  0.98666425  0.35610018  0.95413996  1
