# generated using pymatgen
data_Na3Zr2Si2PO12
_symmetry_space_group_name_H-M   'P 1'
_cell_length_a   9.27295600
_cell_length_b   9.15937100
_cell_length_c   39.44042566
_cell_angle_alpha   90.00000000
_cell_angle_beta   90.00000000
_cell_angle_gamma   90.00000000
_symmetry_Int_Tables_number   1
_chemical_formula_structural   Na3Zr2Si2PO12
_chemical_formula_sum   'Na36 Zr24 Si24 P12 O144'
_cell_volume   3349.85063535
_cell_formula_units_Z   12
loop_
 _symmetry_equiv_pos_site_id
 _symmetry_equiv_pos_as_xyz
  1  'x, y, z'
loop_
 _atom_site_type_symbol
 _atom_site_label
 _atom_site_symmetry_multiplicity
 _atom_site_fract_x
 _atom_site_fract_y
 _atom_site_fract_z
 _atom_site_occupancy
  Na  Na0  1  0.73697189  0.75259383  0.02136450  1
  Na  Na1  1  0.23693965  0.99650237  0.02133631  1
  Na  Na2  1  0.58911069  0.48519231  0.08708018  1
  Na  Na3  1  0.08914780  0.26460899  0.08701339  1
  Na  Na4  1  0.21981737  0.23490830  0.18800198  1
  Na  Na5  1  0.85245086  0.95679978  0.14164860  1
  Na  Na6  1  0.35253309  0.79301357  0.14160915  1
  Na  Na7  1  0.71972164  0.51510878  0.18807378  1
  Na  Na8  1  0.07186555  0.98053225  0.25021506  1
  Na  Na9  1  0.57173171  0.76975213  0.25026407  1
  Na  Na10  1  0.71109927  0.74971314  0.35580648  1
  Na  Na11  1  0.40483505  0.49859408  0.31059896  1
  Na  Na12  1  0.90476067  0.25205018  0.31050070  1
  Na  Na13  1  0.21065478  0.00048470  0.35580242  1
  Na  Na14  1  0.54889167  0.48317716  0.41554483  1
  Na  Na15  1  0.04858842  0.26658728  0.41563000  1
  Na  Na16  1  0.90278833  0.98649915  0.47930499  1
  Na  Na17  1  0.40247854  0.76293491  0.47918218  1
  Na  Na18  1  0.91320445  0.49748838  0.52138414  1
  Na  Na19  1  0.41354351  0.25276556  0.52136355  1
  Na  Na20  1  0.06116529  0.76502480  0.58704746  1
  Na  Na21  1  0.56130087  0.98547742  0.58712599  1
  Na  Na22  1  0.43012733  0.01518073  0.68808064  1
  Na  Na23  1  0.79828433  0.29339157  0.64162548  1
  Na  Na24  1  0.29825080  0.45658654  0.64167380  1
  Na  Na25  1  0.92977328  0.73537168  0.68803521  1
  Na  Na26  1  0.57794277  0.26973414  0.75023060  1
  Na  Na27  1  0.07792513  0.48038743  0.75022763  1
  Na  Na28  1  0.93917194  0.50077096  0.85581724  1
  Na  Na29  1  0.24553486  0.75196821  0.81058281  1
  Na  Na30  1  0.74497865  0.99821127  0.81060857  1
  Na  Na31  1  0.43972904  0.24979919  0.85576605  1
  Na  Na32  1  0.10121098  0.76692472  0.91561555  1
  Na  Na33  1  0.60132193  0.98336487  0.91564492  1
  Na  Na34  1  0.74754943  0.26318044  0.97932270  1
  Na  Na35  1  0.24716617  0.48710468  0.97919893  1
  Zr  Zr36  1  0.32214460  0.62256176  0.04853563  1
  Zr  Zr37  1  0.39608023  0.13178567  0.11648285  1
  Zr  Zr38  1  0.89610822  0.61770516  0.11650690  1
  Zr  Zr39  1  0.82203087  0.12686335  0.04861002  1
  Zr  Zr40  1  0.78635959  0.12162970  0.21620784  1
  Zr  Zr41  1  0.86066270  0.62949551  0.28355552  1
  Zr  Zr42  1  0.36050752  0.12088968  0.28355164  1
  Zr  Zr43  1  0.28653540  0.62846406  0.21615805  1
  Zr  Zr44  1  0.25302339  0.62138343  0.38331262  1
  Zr  Zr45  1  0.32478409  0.12723082  0.45099108  1
  Zr  Zr46  1  0.82467640  0.62250299  0.45100019  1
  Zr  Zr47  1  0.75294654  0.12875775  0.38329829  1
  Zr  Zr48  1  0.32803950  0.62725750  0.54853750  1
  Zr  Zr49  1  0.25431497  0.11808276  0.61649567  1
  Zr  Zr50  1  0.75407394  0.63221758  0.61646550  1
  Zr  Zr51  1  0.82821308  0.12303689  0.54857586  1
  Zr  Zr52  1  0.86317981  0.12839901  0.71622182  1
  Zr  Zr53  1  0.78937414  0.62073432  0.78355176  1
  Zr  Zr54  1  0.28915076  0.12928382  0.78361633  1
  Zr  Zr55  1  0.36328436  0.62157312  0.71617723  1
  Zr  Zr56  1  0.39691668  0.62873028  0.88334044  1
  Zr  Zr57  1  0.32512723  0.12263064  0.95103799  1
  Zr  Zr58  1  0.82515739  0.62725051  0.95100188  1
  Zr  Zr59  1  0.89692187  0.12145448  0.88334890  1
  Si  Si60  1  0.95139433  0.49400016  0.03370405  1
  Si  Si61  1  0.45111446  0.25519783  0.03373827  1
  Si  Si62  1  0.42969633  0.98807538  0.20335901  1
  Si  Si63  1  0.74822094  0.26437068  0.12957844  1
  Si  Si64  1  0.24860475  0.48538219  0.12953363  1
  Si  Si65  1  0.92974308  0.76195192  0.20337479  1
  Si  Si66  1  0.89790613  0.48643275  0.37046184  1
  Si  Si67  1  0.21669794  0.76240181  0.29667532  1
  Si  Si68  1  0.71678004  0.98815787  0.29665134  1
  Si  Si69  1  0.39757050  0.26336344  0.37048878  1
  Si  Si70  1  0.69729227  0.25509413  0.46600684  1
  Si  Si71  1  0.19726125  0.49462202  0.46601471  1
  Si  Si72  1  0.69886954  0.75567100  0.53370463  1
  Si  Si73  1  0.19909711  0.99439758  0.53371268  1
  Si  Si74  1  0.22002302  0.26171127  0.70340445  1
  Si  Si75  1  0.90183789  0.98590846  0.62956792  1
  Si  Si76  1  0.40167052  0.76456468  0.62954727  1
  Si  Si77  1  0.71993260  0.48811701  0.70330175  1
  Si  Si78  1  0.75204578  0.76347792  0.87050113  1
  Si  Si79  1  0.43318878  0.48807433  0.79666045  1
  Si  Si80  1  0.93285176  0.26216495  0.79674057  1
  Si  Si81  1  0.25248428  0.98683503  0.87050382  1
  Si  Si82  1  0.95265855  0.99468788  0.96606519  1
  Si  Si83  1  0.45258138  0.75515332  0.96600651  1
  P  P84  1  0.61048273  0.83512420  0.08557563  1
  P  P85  1  0.11019395  0.91417222  0.08551661  1
  P  P86  1  0.07397215  0.33344945  0.24977661  1
  P  P87  1  0.57394989  0.41692570  0.24993930  1
  P  P88  1  0.53924819  0.83401798  0.41514491  1
  P  P89  1  0.03917910  0.91586113  0.41520795  1
  P  P90  1  0.03996275  0.41461927  0.58552496  1
  P  P91  1  0.54000753  0.33567996  0.58555814  1
  P  P92  1  0.57579767  0.91670729  0.74989779  1
  P  P93  1  0.07584125  0.83324363  0.74988648  1
  P  P94  1  0.11061434  0.41599499  0.91518118  1
  P  P95  1  0.61058006  0.33402234  0.91526582  1
  O  O96  1  0.86823981  0.57745049  0.06506327  1
  O  O97  1  0.84502927  0.18313452  0.10041074  1
  O  O98  1  0.34538706  0.56649678  0.10034634  1
  O  O99  1  0.36777046  0.17180254  0.06507042  1
  O  O100  1  0.21257617  0.81765631  0.06379439  1
  O  O101  1  0.50174736  0.92951980  0.10523122  1
  O  O102  1  0.00084756  0.82034664  0.10515549  1
  O  O103  1  0.71353750  0.93117736  0.06393226  1
  O  O104  1  0.53424870  0.72814834  0.06102090  1
  O  O105  1  0.19856755  0.00044660  0.11208569  1
  O  O106  1  0.69794142  0.74778906  0.11212737  1
  O  O107  1  0.03450733  0.02199416  0.06107833  1
  O  O108  1  0.12675723  0.53259696  0.03365570  1
  O  O109  1  0.57825658  0.24639270  0.11887453  1
  O  O110  1  0.07861643  0.50360487  0.11887236  1
  O  O111  1  0.62643546  0.21621247  0.03373818  1
  O  O112  1  0.43214814  0.43323381  0.03800483  1
  O  O113  1  0.93206502  0.31604105  0.03798786  1
  O  O114  1  0.86699164  0.54553093  0.99878521  1
  O  O115  1  0.36670841  0.20378570  0.99884001  1
  O  O116  1  0.32601704  0.06486839  0.23212313  1
  O  O117  1  0.31897051  0.68494032  0.26776905  1
  O  O118  1  0.81924771  0.06566443  0.26779486  1
  O  O119  1  0.82605871  0.68516027  0.23212843  1
  O  O120  1  0.68530388  0.32386843  0.23037823  1
  O  O121  1  0.96290225  0.42921051  0.26874404  1
  O  O122  1  0.46269278  0.32144428  0.26892123  1
  O  O123  1  0.18547224  0.42616882  0.23017659  1
  O  O124  1  0.99850126  0.23341578  0.22322592  1
  O  O125  1  0.64828021  0.51508964  0.27694672  1
  O  O126  1  0.14821286  0.23535278  0.27681883  1
  O  O127  1  0.49868111  0.51702251  0.22335674  1
  O  O128  1  0.60008365  0.01319994  0.21277002  1
  O  O129  1  0.04585778  0.73767680  0.28737112  1
  O  O130  1  0.54595795  0.01304046  0.28732026  1
  O  O131  1  0.10023128  0.73703003  0.21273117  1
  O  O132  1  0.90517041  0.94030493  0.20199214  1
  O  O133  1  0.27102054  0.30739897  0.13092638  1
  O  O134  1  0.77092788  0.44224712  0.13100336  1
  O  O135  1  0.40544267  0.80967207  0.20197383  1
  O  O136  1  0.78458650  0.18991636  0.16615460  1
  O  O137  1  0.38846348  0.05701749  0.16635100  1
  O  O138  1  0.88863278  0.69275485  0.16636920  1
  O  O139  1  0.28514793  0.55979374  0.16611072  1
  O  O140  1  0.79646213  0.56572534  0.39924474  1
  O  O141  1  0.78202966  0.17260805  0.43486864  1
  O  O142  1  0.28188854  0.57771288  0.43492511  1
  O  O143  1  0.29621560  0.18382949  0.39925449  1
  O  O144  1  0.15082057  0.82311261  0.39584265  1
  O  O145  1  0.43153952  0.93052474  0.43512020  1
  O  O146  1  0.93169517  0.81887898  0.43513652  1
  O  O147  1  0.65073112  0.92708744  0.39582882  1
  O  O148  1  0.46215809  0.73775869  0.38833439  1
  O  O149  1  0.11385195  0.01794806  0.44127509  1
  O  O150  1  0.61406485  0.73177711  0.44114623  1
  O  O151  1  0.96191447  0.01213940  0.38843196  1
  O  O152  1  0.06731347  0.51039140  0.38100645  1
  O  O153  1  0.52168826  0.21690460  0.46543142  1
  O  O154  1  0.02157556  0.53252123  0.46544341  1
  O  O155  1  0.56696695  0.23950551  0.38105909  1
  O  O156  1  0.37635540  0.44185491  0.36960435  1
  O  O157  1  0.73834593  0.80923948  0.29792793  1
  O  O158  1  0.23822294  0.94126684  0.29793433  1
  O  O159  1  0.87647069  0.30801992  0.36955008  1
  O  O160  1  0.25747951  0.69105797  0.33339599  1
  O  O161  1  0.85719471  0.55441929  0.33327550  1
  O  O162  1  0.35666998  0.19554054  0.33330323  1
  O  O163  1  0.75740613  0.05950077  0.33338150  1
  O  O164  1  0.21639112  0.31641854  0.46211011  1
  O  O165  1  0.71628638  0.43340439  0.46220696  1
  O  O166  1  0.77816810  0.20216435  0.50125649  1
  O  O167  1  0.27817365  0.54741231  0.50128645  1
  O  O168  1  0.78194239  0.67184084  0.56501932  1
  O  O169  1  0.80517030  0.06754518  0.60043726  1
  O  O170  1  0.30503730  0.68362211  0.60031804  1
  O  O171  1  0.28258131  0.07759758  0.56507225  1
  O  O172  1  0.43732399  0.43195245  0.56385354  1
  O  O173  1  0.14899380  0.32041202  0.60515419  1
  O  O174  1  0.64907698  0.42972297  0.60519793  1
  O  O175  1  0.93739168  0.31843587  0.56377539  1
  O  O176  1  0.11589772  0.52222959  0.56107690  1
  O  O177  1  0.45209390  0.24901813  0.61215378  1
  O  O178  1  0.95188076  0.50115660  0.61210443  1
  O  O179  1  0.61583288  0.22819803  0.56105573  1
  O  O180  1  0.52343142  0.71729311  0.53363920  1
  O  O181  1  0.07187266  0.00406759  0.61893329  1
  O  O182  1  0.57174627  0.74648430  0.61892397  1
  O  O183  1  0.02378173  0.03341617  0.53372555  1
  O  O184  1  0.21772143  0.81634647  0.53794449  1
  O  O185  1  0.71838147  0.93356312  0.53813284  1
  O  O186  1  0.78339762  0.70456164  0.49877322  1
  O  O187  1  0.28351173  0.04580123  0.49880013  1
  O  O188  1  0.32352514  0.18490014  0.73218048  1
  O  O189  1  0.33085579  0.56586742  0.76782193  1
  O  O190  1  0.83054635  0.18489913  0.76781679  1
  O  O191  1  0.82349566  0.56493350  0.73210519  1
  O  O192  1  0.96429397  0.92626547  0.73037575  1
  O  O193  1  0.68724324  0.82130873  0.76884740  1
  O  O194  1  0.18701286  0.92877480  0.76887005  1
  O  O195  1  0.46465427  0.82366506  0.73026611  1
  O  O196  1  0.65094104  0.01715615  0.72335626  1
  O  O197  1  0.00165780  0.73486531  0.77688465  1
  O  O198  1  0.50128926  0.01455560  0.77693361  1
  O  O199  1  0.15103260  0.73329584  0.72326243  1
  O  O200  1  0.04954686  0.23680157  0.71274190  1
  O  O201  1  0.60401634  0.51270950  0.78731498  1
  O  O202  1  0.10366947  0.23687290  0.78747277  1
  O  O203  1  0.54948859  0.51294888  0.71265591  1
  O  O204  1  0.74459689  0.30972860  0.70192323  1
  O  O205  1  0.37926568  0.94253117  0.63100504  1
  O  O206  1  0.87925893  0.80791884  0.63082352  1
  O  O207  1  0.24459220  0.44012858  0.70205516  1
  O  O208  1  0.86513775  0.05969920  0.66618826  1
  O  O209  1  0.26153159  0.19288018  0.66639164  1
  O  O210  1  0.76138017  0.55734894  0.66632959  1
  O  O211  1  0.36504635  0.68991701  0.66609257  1
  O  O212  1  0.85337955  0.68385771  0.89925551  1
  O  O213  1  0.86827404  0.07776532  0.93494905  1
  O  O214  1  0.36778097  0.67232398  0.93491801  1
  O  O215  1  0.35381197  0.06605657  0.89930656  1
  O  O216  1  0.49902457  0.42698837  0.89594485  1
  O  O217  1  0.21800755  0.31916440  0.93517730  1
  O  O218  1  0.71825950  0.43071922  0.93519766  1
  O  O219  1  0.99906555  0.32316351  0.89582607  1
  O  O220  1  0.18780789  0.51227031  0.88839308  1
  O  O221  1  0.53591779  0.23190417  0.94130732  1
  O  O222  1  0.03581584  0.51818239  0.94119066  1
  O  O223  1  0.68764290  0.23772980  0.88845506  1
  O  O224  1  0.58267251  0.73988767  0.88109561  1
  O  O225  1  0.12834093  0.03247557  0.96549224  1
  O  O226  1  0.62818804  0.71696219  0.96546725  1
  O  O227  1  0.08300703  0.01096821  0.88093877  1
  O  O228  1  0.27363191  0.80829594  0.86962617  1
  O  O229  1  0.91182382  0.44114311  0.79795260  1
  O  O230  1  0.41147800  0.30916146  0.79787990  1
  O  O231  1  0.77379798  0.94186989  0.86964522  1
  O  O232  1  0.39276352  0.55915865  0.83342971  1
  O  O233  1  0.79272595  0.69564892  0.83329450  1
  O  O234  1  0.29374380  0.05455889  0.83333646  1
  O  O235  1  0.89182657  0.19111007  0.83345775  1
  O  O236  1  0.43358823  0.93338462  0.96213258  1
  O  O237  1  0.93341775  0.81652661  0.96212710  1
  O  O238  1  0.87163333  0.04730666  0.00132278  1
  O  O239  1  0.37157155  0.70249537  0.00126959  1
