# generated using pymatgen
data_Na11Zr6Si6P3O37
_symmetry_space_group_name_H-M   'P 1'
_cell_length_a   9.07514300
_cell_length_b   9.06848800
_cell_length_c   43.57593682
_cell_angle_alpha   90.00000000
_cell_angle_beta   90.00000000
_cell_angle_gamma   90.00000000
_symmetry_Int_Tables_number   1
_chemical_formula_structural   Na11Zr6Si6P3O37
_chemical_formula_sum   'Na44 Zr24 Si24 P12 O148'
_cell_volume   3586.20484007
_cell_formula_units_Z   4
loop_
 _symmetry_equiv_pos_site_id
 _symmetry_equiv_pos_as_xyz
  1  'x, y, z'
loop_
 _atom_site_type_symbol
 _atom_site_label
 _atom_site_symmetry_multiplicity
 _atom_site_fract_x
 _atom_site_fract_y
 _atom_site_fract_z
 _atom_site_occupancy
  Na  Na0  1  0.89607318  0.75881688  0.04006424  1
  Na  Na1  1  0.28830681  0.30368543  0.02360583  1
  Na  Na2  1  0.96844387  0.37103254  0.99250525  1
  Na  Na3  1  0.04924258  0.98031645  0.97921427  1
  Na  Na4  1  0.74097479  0.43729351  0.09363197  1
  Na  Na5  1  0.21126337  0.25140947  0.09945757  1
  Na  Na6  1  0.35382355  0.21635416  0.19524315  1
  Na  Na7  1  0.06816955  0.97561481  0.15073543  1
  Na  Na8  1  0.57782760  0.72754453  0.15541062  1
  Na  Na9  1  0.85970527  0.47705085  0.19367867  1
  Na  Na10  1  0.20164715  0.95234805  0.25029551  1
  Na  Na11  1  0.70050028  0.75124320  0.25042707  1
  Na  Na12  1  0.82147911  0.72951621  0.34532160  1
  Na  Na13  1  0.52301838  0.46715581  0.30630169  1
  Na  Na14  1  0.04434628  0.22579951  0.30306965  1
  Na  Na15  1  0.33322703  0.98763473  0.34728033  1
  Na  Na16  1  0.67253535  0.45327922  0.40290523  1
  Na  Na17  1  0.19987959  0.24950853  0.39961460  1
  Na  Na18  1  0.35491654  0.46547247  0.52911605  1
  Na  Na19  1  0.17092482  0.11720004  0.47464901  1
  Na  Na20  1  0.50903555  0.78893116  0.47815869  1
  Na  Na21  1  0.00021379  0.38083845  0.49862608  1
  Na  Na22  1  0.80376089  0.66634759  0.54025289  1
  Na  Na23  1  0.41099154  0.12032041  0.52346079  1
  Na  Na24  1  0.73192863  0.05453187  0.49254293  1
  Na  Na25  1  0.65182478  0.44442401  0.47910192  1
  Na  Na26  1  0.95827466  0.98744852  0.59373724  1
  Na  Na27  1  0.48798181  0.17359827  0.59951879  1
  Na  Na28  1  0.34580395  0.20827698  0.69541308  1
  Na  Na29  1  0.63138545  0.44965299  0.65078266  1
  Na  Na30  1  0.12112584  0.69776167  0.65565941  1
  Na  Na31  1  0.83955528  0.94797048  0.69386705  1
  Na  Na32  1  0.49810079  0.47274790  0.75048740  1
  Na  Na33  1  0.99900309  0.67350860  0.75049850  1
  Na  Na34  1  0.87917968  0.69514097  0.84549022  1
  Na  Na35  1  0.17637738  0.95748891  0.80653932  1
  Na  Na36  1  0.65497521  0.19969062  0.80331944  1
  Na  Na37  1  0.36759942  0.43709648  0.84747351  1
  Na  Na38  1  0.02836142  0.97188140  0.90315354  1
  Na  Na39  1  0.50116396  0.17562617  0.89985100  1
  Na  Na40  1  0.34543179  0.95909041  0.02930367  1
  Na  Na41  1  0.52944697  0.30842760  0.97492662  1
  Na  Na42  1  0.19189141  0.63622999  0.97830208  1
  Na  Na43  1  0.69951148  0.04374494  0.99857136  1
  Zr  Zr44  1  0.43951598  0.58835178  0.07385660  1
  Zr  Zr45  1  0.50888030  0.10648303  0.12844102  1
  Zr  Zr46  1  0.00801258  0.60230592  0.12746790  1
  Zr  Zr47  1  0.93484348  0.10833270  0.06122102  1
  Zr  Zr48  1  0.91733441  0.10073390  0.21781821  1
  Zr  Zr49  1  0.99069293  0.61104298  0.27961789  1
  Zr  Zr50  1  0.48829904  0.10106440  0.28107212  1
  Zr  Zr51  1  0.41687952  0.60639360  0.22061977  1
  Zr  Zr52  1  0.39082587  0.61092964  0.37504017  1
  Zr  Zr53  1  0.47581657  0.11338672  0.43664183  1
  Zr  Zr54  1  0.98955244  0.58834835  0.42153721  1
  Zr  Zr55  1  0.89598725  0.11360940  0.36964723  1
  Zr  Zr56  1  0.25985819  0.83658237  0.57397030  1
  Zr  Zr57  1  0.19054531  0.31848162  0.62856004  1
  Zr  Zr58  1  0.69092294  0.82296188  0.62757777  1
  Zr  Zr59  1  0.76465107  0.31671848  0.56131893  1
  Zr  Zr60  1  0.78243246  0.32426640  0.71797235  1
  Zr  Zr61  1  0.70942053  0.81405858  0.77980318  1
  Zr  Zr62  1  0.21168161  0.32383809  0.78129973  1
  Zr  Zr63  1  0.28263167  0.81842094  0.72084740  1
  Zr  Zr64  1  0.30999354  0.81418017  0.87528933  1
  Zr  Zr65  1  0.22507557  0.31190006  0.93686422  1
  Zr  Zr66  1  0.71151210  0.83679217  0.92178041  1
  Zr  Zr67  1  0.80477955  0.31166471  0.86985597  1
  Si  Si68  1  0.06916750  0.48248486  0.05230329  1
  Si  Si69  1  0.56455826  0.24133505  0.05385751  1
  Si  Si70  1  0.55139866  0.96614680  0.20722675  1
  Si  Si71  1  0.87698501  0.23837965  0.13926180  1
  Si  Si72  1  0.37003584  0.45983901  0.14341875  1
  Si  Si73  1  0.05293908  0.74177395  0.20610350  1
  Si  Si74  1  0.02999765  0.46595805  0.35772701  1
  Si  Si75  1  0.34819971  0.74077648  0.29410088  1
  Si  Si76  1  0.85298567  0.96687234  0.29178172  1
  Si  Si77  1  0.52869285  0.24306845  0.35946042  1
  Si  Si78  1  0.85520589  0.25276308  0.44344865  1
  Si  Si79  1  0.33683689  0.47887779  0.45002364  1
  Si  Si80  1  0.63019801  0.94261299  0.55234908  1
  Si  Si81  1  0.13467536  0.18323423  0.55392694  1
  Si  Si82  1  0.14842089  0.45871261  0.70739253  1
  Si  Si83  1  0.82241259  0.18663050  0.63938997  1
  Si  Si84  1  0.32896360  0.96505550  0.64357369  1
  Si  Si85  1  0.64623631  0.68313824  0.70626450  1
  Si  Si86  1  0.67136310  0.95908410  0.85793908  1
  Si  Si87  1  0.35176333  0.68408085  0.79437891  1
  Si  Si88  1  0.84661675  0.45815886  0.79199865  1
  Si  Si89  1  0.17213435  0.18180494  0.85965101  1
  Si  Si90  1  0.84574842  0.17240810  0.94370942  1
  Si  Si91  1  0.36443207  0.94636884  0.95026059  1
  P  P92  1  0.71839295  0.81287516  0.09709472  1
  P  P93  1  0.22569977  0.89691817  0.09358021  1
  P  P94  1  0.20340617  0.31100875  0.24950378  1
  P  P95  1  0.70539648  0.39621791  0.25046848  1
  P  P96  1  0.69119576  0.81477273  0.40501918  1
  P  P97  1  0.18224409  0.90639188  0.40392547  1
  P  P98  1  0.98102998  0.61214687  0.59735974  1
  P  P99  1  0.47358097  0.52810454  0.59352782  1
  P  P100  1  0.49674026  0.11377717  0.74964971  1
  P  P101  1  0.99463081  0.02885964  0.75065896  1
  P  P102  1  0.00943042  0.61045723  0.90532111  1
  P  P103  1  0.51840891  0.51882218  0.90410338  1
  O  O104  1  0.97317242  0.53702260  0.08206156  1
  O  O105  1  0.97734055  0.16787110  0.11200465  1
  O  O106  1  0.48204751  0.52807334  0.11634119  1
  O  O107  1  0.47155736  0.18908035  0.08448632  1
  O  O108  1  0.33939215  0.80082744  0.07542153  1
  O  O109  1  0.59831849  0.89964487  0.11454648  1
  O  O110  1  0.11053892  0.79866875  0.10990652  1
  O  O111  1  0.82943793  0.91298250  0.08119771  1
  O  O112  1  0.15573058  0.00083037  0.06944741  1
  O  O113  1  0.79281279  0.71171312  0.12137921  1
  O  O114  1  0.29846622  0.98914537  0.11938502  1
  O  O115  1  0.64447877  0.71201852  0.07201230  1
  O  O116  1  0.24829654  0.49939248  0.06110268  1
  O  O117  1  0.74103220  0.21866765  0.05988953  1
  O  O118  1  0.54417902  0.42609158  0.05134827  1
  O  O119  1  0.05307464  0.29994454  0.04771455  1
  O  O120  1  0.02942699  0.57216793  0.02146790  1
  O  O121  1  0.50036921  0.16278382  0.02322832  1
  O  O122  1  0.92302588  0.00230504  0.02330869  1
  O  O123  1  0.44878176  0.03973910  0.23418947  1
  O  O124  1  0.45282398  0.66266130  0.26781525  1
  O  O125  1  0.95563044  0.03805386  0.26464269  1
  O  O126  1  0.94845225  0.66843735  0.23279340  1
  O  O127  1  0.81915273  0.30146614  0.23302596  1
  O  O128  1  0.09027505  0.40996397  0.26583219  1
  O  O129  1  0.58795379  0.30153080  0.26665026  1
  O  O130  1  0.32328750  0.40179459  0.23316782  1
  O  O131  1  0.63451723  0.49900235  0.22609675  1
  O  O132  1  0.27125927  0.21016588  0.27453657  1
  O  O133  1  0.77927775  0.49117327  0.27577700  1
  O  O134  1  0.13019170  0.21469599  0.22444132  1
  O  O135  1  0.72541071  0.99917034  0.21427793  1
  O  O136  1  0.70153459  0.20629999  0.13250987  1
  O  O137  1  0.20428508  0.50260108  0.13217767  1
  O  O138  1  0.22518371  0.70584028  0.21463887  1
  O  O139  1  0.04326634  0.92247859  0.20483229  1
  O  O140  1  0.37786450  0.28029346  0.14439924  1
  O  O141  1  0.88912454  0.42045966  0.14095861  1
  O  O142  1  0.53993998  0.78511301  0.20723848  1
  O  O143  1  0.92565422  0.17354913  0.17295793  1
  O  O144  1  0.50054388  0.02736852  0.17359601  1
  O  O145  1  0.00444875  0.67850672  0.17236565  1
  O  O146  1  0.42433426  0.53250964  0.17537171  1
  O  O147  1  0.89663714  0.52620239  0.38047156  1
  O  O148  1  0.93744447  0.20721455  0.41155919  1
  O  O149  1  0.42026490  0.54620820  0.41916420  1
  O  O150  1  0.43605659  0.15787654  0.38597062  1
  O  O151  1  0.30232863  0.81678867  0.38670989  1
  O  O152  1  0.58793148  0.90612678  0.42536627  1
  O  O153  1  0.07161604  0.80011965  0.41922587  1
  O  O154  1  0.79425783  0.91415616  0.38527429  1
  O  O155  1  0.10672663  0.00050104  0.37863933  1
  O  O156  1  0.78282652  0.71026932  0.42605586  1
  O  O157  1  0.25234873  0.00608734  0.42844391  1
  O  O158  1  0.60522861  0.71765163  0.38110505  1
  O  O159  1  0.17169723  0.52012967  0.37955369  1
  O  O160  1  0.17733517  0.72338414  0.28245141  1
  O  O161  1  0.67962259  0.99902961  0.28406710  1
  O  O162  1  0.70633815  0.22303331  0.36500872  1
  O  O163  1  0.49719992  0.42305835  0.36010354  1
  O  O164  1  0.86209443  0.78571915  0.29331312  1
  O  O165  1  0.37192956  0.92033788  0.29584845  1
  O  O166  1  0.03532985  0.28736807  0.35362651  1
  O  O167  1  0.37955217  0.66766388  0.32786568  1
  O  O168  1  0.00805971  0.54546373  0.32479132  1
  O  O169  1  0.48055832  0.18459696  0.32514900  1
  O  O170  1  0.90281295  0.03387939  0.32493403  1
  O  O171  1  0.67340474  0.22632176  0.44141327  1
  O  O172  1  0.15834840  0.52164599  0.44864971  1
  O  O173  1  0.34441828  0.29698457  0.44635591  1
  O  O174  1  0.86417714  0.43826340  0.44607973  1
  O  O175  1  0.92659281  0.17516887  0.47295696  1
  O  O176  1  0.45856646  0.03875681  0.47741129  1
  O  O177  1  0.41784502  0.54041252  0.48075679  1
  O  O178  1  0.72578347  0.88823426  0.58217842  1
  O  O179  1  0.72192802  0.25709087  0.61213711  1
  O  O180  1  0.21716855  0.89669988  0.61647991  1
  O  O181  1  0.22725879  0.23556982  0.58460322  1
  O  O182  1  0.35965428  0.62376524  0.57533142  1
  O  O183  1  0.10129839  0.52576002  0.61483095  1
  O  O184  1  0.58834162  0.62678224  0.60987294  1
  O  O185  1  0.87022488  0.51171773  0.58146359  1
  O  O186  1  0.54403040  0.42440100  0.56942244  1
  O  O187  1  0.90631553  0.71327202  0.62161848  1
  O  O188  1  0.40097354  0.43555419  0.61931220  1
  O  O189  1  0.05464799  0.71312320  0.57225517  1
  O  O190  1  0.45093936  0.92537264  0.56105611  1
  O  O191  1  0.95810863  0.20580886  0.55988385  1
  O  O192  1  0.15497735  0.99845603  0.55142231  1
  O  O193  1  0.64598872  0.12525115  0.54778171  1
  O  O194  1  0.67064048  0.85320330  0.52152092  1
  O  O195  1  0.19925716  0.26153193  0.52329091  1
  O  O196  1  0.77697668  0.42281003  0.52340062  1
  O  O197  1  0.25078861  0.38533401  0.73440640  1
  O  O198  1  0.24708955  0.76197852  0.76805105  1
  O  O199  1  0.74423826  0.38676968  0.76483739  1
  O  O200  1  0.75102550  0.75672896  0.73290431  1
  O  O201  1  0.88096530  0.12364962  0.73319805  1
  O  O202  1  0.60980683  0.01521438  0.76609072  1
  O  O203  1  0.11235317  0.12330668  0.76680789  1
  O  O204  1  0.37701357  0.02266737  0.73334094  1
  O  O205  1  0.06525901  0.92584477  0.72629160  1
  O  O206  1  0.42868258  0.21500457  0.77458188  1
  O  O207  1  0.92070324  0.93401354  0.77597219  1
  O  O208  1  0.56998403  0.20970754  0.72452734  1
  O  O209  1  0.97441805  0.42572272  0.71445746  1
  O  O210  1  0.99781247  0.21872117  0.63260878  1
  O  O211  1  0.49474183  0.92274970  0.63224884  1
  O  O212  1  0.47407855  0.71851401  0.71494037  1
  O  O213  1  0.65640924  0.50246883  0.70500369  1
  O  O214  1  0.32107926  0.14460193  0.64455438  1
  O  O215  1  0.81006630  0.00452902  0.64111014  1
  O  O216  1  0.15952957  0.63980406  0.70739356  1
  O  O217  1  0.77408233  0.25157604  0.67310082  1
  O  O218  1  0.19945032  0.39753586  0.67375832  1
  O  O219  1  0.69385493  0.74656922  0.67248769  1
  O  O220  1  0.27510561  0.89232902  0.67554944  1
  O  O221  1  0.80452376  0.89881770  0.88074192  1
  O  O222  1  0.76392759  0.21774593  0.91174877  1
  O  O223  1  0.28090875  0.87883879  0.91941774  1
  O  O224  1  0.26485711  0.26702895  0.88615401  1
  O  O225  1  0.39849602  0.60828346  0.88680741  1
  O  O226  1  0.11269540  0.51911476  0.92567913  1
  O  O227  1  0.62901976  0.62519373  0.91937303  1
  O  O228  1  0.90651049  0.51108915  0.88554967  1
  O  O229  1  0.59391776  0.42425824  0.87890464  1
  O  O230  1  0.91771199  0.71470799  0.92640511  1
  O  O231  1  0.44806637  0.41949044  0.92865265  1
  O  O232  1  0.09534621  0.70780289  0.88145962  1
  O  O233  1  0.52930009  0.90500339  0.87968798  1
  O  O234  1  0.52277794  0.70181810  0.78281559  1
  O  O235  1  0.02005602  0.42508986  0.78448996  1
  O  O236  1  0.99452212  0.20269422  0.86510031  1
  O  O237  1  0.20294831  0.00172060  0.86037076  1
  O  O238  1  0.83818783  0.63935080  0.79338229  1
  O  O239  1  0.32833974  0.50444898  0.79608084  1
  O  O240  1  0.66594381  0.13766142  0.85382127  1
  O  O241  1  0.32036628  0.75713551  0.82813128  1
  O  O242  1  0.69380450  0.87960378  0.82501408  1
  O  O243  1  0.22055022  0.23982482  0.82533115  1
  O  O244  1  0.79627952  0.39226558  0.82520967  1
  O  O245  1  0.02749260  0.19904670  0.94172891  1
  O  O246  1  0.54291681  0.90377369  0.94891812  1
  O  O247  1  0.35647522  0.12819939  0.94656438  1
  O  O248  1  0.83677870  0.98690989  0.94633863  1
  O  O249  1  0.77368868  0.25005339  0.97314334  1
  O  O250  1  0.24221428  0.38647354  0.97762305  1
  O  O251  1  0.28338233  0.88446385  0.98095683  1
