# generated using pymatgen
data_Na3Zr2Si2PO12
_symmetry_space_group_name_H-M   'P 1'
_cell_length_a   9.27295600
_cell_length_b   9.15937100
_cell_length_c   39.43988850
_cell_angle_alpha   90.00000000
_cell_angle_beta   90.00000000
_cell_angle_gamma   90.00000000
_symmetry_Int_Tables_number   1
_chemical_formula_structural   Na3Zr2Si2PO12
_chemical_formula_sum   'Na36 Zr24 Si24 P12 O144'
_cell_volume   3349.80501193
_cell_formula_units_Z   12
loop_
 _symmetry_equiv_pos_site_id
 _symmetry_equiv_pos_as_xyz
  1  'x, y, z'
loop_
 _atom_site_type_symbol
 _atom_site_label
 _atom_site_symmetry_multiplicity
 _atom_site_fract_x
 _atom_site_fract_y
 _atom_site_fract_z
 _atom_site_occupancy
  Na  Na0  1  0.79141729  0.80538683  0.02161898  1
  Na  Na1  1  0.29112834  0.04599796  0.02177738  1
  Na  Na2  1  0.64143271  0.53592481  0.08714595  1
  Na  Na3  1  0.14130123  0.31505383  0.08715210  1
  Na  Na4  1  0.27321743  0.28610477  0.18821347  1
  Na  Na5  1  0.90346540  0.00686654  0.14191447  1
  Na  Na6  1  0.40359476  0.84390639  0.14187966  1
  Na  Na7  1  0.77283364  0.56501478  0.18816618  1
  Na  Na8  1  0.12608103  0.02942768  0.25002545  1
  Na  Na9  1  0.62599727  0.82162954  0.25006380  1
  Na  Na10  1  0.84669603  0.84351190  0.35821416  1
  Na  Na11  1  0.47813469  0.56436764  0.31178233  1
  Na  Na12  1  0.97804697  0.28691828  0.31178941  1
  Na  Na13  1  0.34704517  0.00765749  0.35819891  1
  Na  Na14  1  0.61032876  0.53628190  0.41269353  1
  Na  Na15  1  0.11068268  0.31512798  0.41264060  1
  Na  Na16  1  0.96039705  0.04790466  0.47819558  1
  Na  Na17  1  0.46019214  0.80378720  0.47827715  1
  Na  Na18  1  0.95901499  0.54447490  0.52153239  1
  Na  Na19  1  0.45924920  0.30430952  0.52163803  1
  Na  Na20  1  0.10866606  0.81407304  0.58712454  1
  Na  Na21  1  0.60867954  0.03501672  0.58707586  1
  Na  Na22  1  0.47659042  0.06319684  0.68821195  1
  Na  Na23  1  0.84556481  0.34271837  0.64183713  1
  Na  Na24  1  0.34607400  0.50639771  0.64184419  1
  Na  Na25  1  0.97746856  0.78493586  0.68816513  1
  Na  Na26  1  0.62427837  0.32033925  0.75003721  1
  Na  Na27  1  0.12426315  0.52800112  0.75009047  1
  Na  Na28  1  0.90266007  0.50603361  0.85817682  1
  Na  Na29  1  0.27166172  0.78528562  0.81172740  1
  Na  Na30  1  0.77203058  0.06256541  0.81178512  1
  Na  Na31  1  0.40193695  0.34257468  0.85823377  1
  Na  Na32  1  0.13909005  0.81359920  0.91261291  1
  Na  Na33  1  0.63843602  0.03501801  0.91245651  1
  Na  Na34  1  0.78945095  0.30155136  0.97810873  1
  Na  Na35  1  0.28991081  0.54713077  0.97819452  1
  Zr  Zr36  1  0.37393579  0.67277144  0.04866804  1
  Zr  Zr37  1  0.87400501  0.17773046  0.04872018  1
  Zr  Zr38  1  0.83950510  0.17234414  0.21643626  1
  Zr  Zr39  1  0.44795411  0.18233367  0.11653199  1
  Zr  Zr40  1  0.94796034  0.66836516  0.11650653  1
  Zr  Zr41  1  0.33945634  0.67878932  0.21640706  1
  Zr  Zr42  1  0.30340756  0.66867714  0.38349973  1
  Zr  Zr43  1  0.91298011  0.67878607  0.28359261  1
  Zr  Zr44  1  0.41296017  0.17233004  0.28359006  1
  Zr  Zr45  1  0.80334083  0.18263127  0.38351807  1
  Zr  Zr46  1  0.37685426  0.17787944  0.45132434  1
  Zr  Zr47  1  0.87703291  0.67301629  0.45130578  1
  Zr  Zr48  1  0.37624075  0.67768709  0.54866377  1
  Zr  Zr49  1  0.87606608  0.17244943  0.54869946  1
  Zr  Zr50  1  0.91069233  0.17754509  0.71639220  1
  Zr  Zr51  1  0.30209264  0.16788115  0.61650916  1
  Zr  Zr52  1  0.80226912  0.68170169  0.61650621  1
  Zr  Zr53  1  0.41071915  0.67101241  0.71635990  1
  Zr  Zr54  1  0.44626430  0.68138689  0.88346198  1
  Zr  Zr55  1  0.83740212  0.67090303  0.78359468  1
  Zr  Zr56  1  0.33743617  0.17769594  0.78362579  1
  Zr  Zr57  1  0.94630419  0.16719814  0.88358167  1
  Zr  Zr58  1  0.37295748  0.17232215  0.95136960  1
  Zr  Zr59  1  0.87283702  0.67693529  0.95134675  1
  Si  Si60  1  0.00325231  0.54410638  0.03373744  1
  Si  Si61  1  0.50338255  0.30636425  0.03376815  1
  Si  Si62  1  0.48294266  0.03892037  0.20338818  1
  Si  Si63  1  0.80056766  0.31478096  0.12973011  1
  Si  Si64  1  0.30073579  0.53595669  0.12970349  1
  Si  Si65  1  0.98281656  0.81186626  0.20338712  1
  Si  Si66  1  0.95120226  0.53637126  0.37034347  1
  Si  Si67  1  0.26927510  0.81237176  0.29663950  1
  Si  Si68  1  0.76929576  0.03887206  0.29664188  1
  Si  Si69  1  0.45129119  0.31485152  0.37033450  1
  Si  Si70  1  0.74737926  0.30650076  0.46620528  1
  Si  Si71  1  0.24748061  0.54459586  0.46616896  1
  Si  Si72  1  0.74713213  0.80586744  0.53375263  1
  Si  Si73  1  0.24681412  0.04431217  0.53379250  1
  Si  Si74  1  0.26727131  0.31084053  0.70339469  1
  Si  Si75  1  0.94957776  0.03536786  0.62965818  1
  Si  Si76  1  0.44973726  0.81391061  0.62967141  1
  Si  Si77  1  0.76759477  0.53799854  0.70334990  1
  Si  Si78  1  0.79870981  0.81341299  0.87032862  1
  Si  Si79  1  0.48078522  0.53757602  0.79660815  1
  Si  Si80  1  0.98092566  0.31047442  0.79665832  1
  Si  Si81  1  0.29829185  0.03488394  0.87032834  1
  Si  Si82  1  0.00278165  0.04339990  0.96629309  1
  Si  Si83  1  0.50277442  0.80604970  0.96617532  1
  P  P84  1  0.66165028  0.88548761  0.08560426  1
  P  P85  1  0.16158576  0.96507638  0.08561013  1
  P  P86  1  0.12618125  0.38357701  0.25002893  1
  P  P87  1  0.62618783  0.46755902  0.25003504  1
  P  P88  1  0.58924982  0.88597822  0.41446119  1
  P  P89  1  0.08915247  0.96514885  0.41441254  1
  P  P90  1  0.08834639  0.46467212  0.58558282  1
  P  P91  1  0.58821092  0.38525907  0.58550711  1
  P  P92  1  0.62367094  0.96605042  0.75003747  1
  P  P93  1  0.12398161  0.88251507  0.75000690  1
  P  P94  1  0.16037145  0.46400226  0.91448310  1
  P  P95  1  0.66037373  0.38503251  0.91441127  1
  O  O96  1  0.92003077  0.62794156  0.06502220  1
  O  O97  1  0.89717418  0.23392895  0.10047375  1
  O  O98  1  0.39744555  0.61683697  0.10045733  1
  O  O99  1  0.41984057  0.22276151  0.06504690  1
  O  O100  1  0.26441017  0.86803678  0.06413542  1
  O  O101  1  0.55227162  0.97926444  0.10523691  1
  O  O102  1  0.05181184  0.87157308  0.10517832  1
  O  O103  1  0.76487947  0.98239808  0.06421906  1
  O  O104  1  0.58607493  0.77876570  0.06085084  1
  O  O105  1  0.08636221  0.07242916  0.06095576  1
  O  O106  1  0.17865410  0.58283035  0.03374772  1
  O  O107  1  0.67871471  0.26739694  0.03384163  1
  O  O108  1  0.48451959  0.48422341  0.03805679  1
  O  O109  1  0.98436950  0.36623543  0.03804006  1
  O  O110  1  0.92053673  0.59646672  0.99869927  1
  O  O111  1  0.42116653  0.25364721  0.99868001  1
  O  O112  1  0.37977597  0.11718118  0.23202008  1
  O  O113  1  0.37234633  0.73421135  0.26797741  1
  O  O114  1  0.87241948  0.11719547  0.26801573  1
  O  O115  1  0.87981478  0.73339357  0.23201536  1
  O  O116  1  0.73702555  0.37393732  0.23049554  1
  O  O117  1  0.01521049  0.47712753  0.26953433  1
  O  O118  1  0.51527439  0.37387763  0.26952614  1
  O  O119  1  0.23684776  0.47735145  0.23047869  1
  O  O120  1  0.05133530  0.28368507  0.22333880  1
  O  O121  1  0.24939800  0.05219539  0.11215505  1
  O  O122  1  0.74903803  0.79773562  0.11211397  1
  O  O123  1  0.55125945  0.56729700  0.22333342  1
  O  O124  1  0.65343586  0.06331699  0.21273361  1
  O  O125  1  0.63043146  0.29623880  0.11913660  1
  O  O126  1  0.13066656  0.55482145  0.11906845  1
  O  O127  1  0.15342788  0.78778898  0.21266058  1
  O  O128  1  0.95743888  0.99020639  0.20229619  1
  O  O129  1  0.32292082  0.35795686  0.13102219  1
  O  O130  1  0.82302456  0.49274071  0.13100875  1
  O  O131  1  0.45776039  0.86058159  0.20224760  1
  O  O132  1  0.83749043  0.24066450  0.16630427  1
  O  O133  1  0.44135525  0.10724120  0.16631851  1
  O  O134  1  0.94124227  0.74366466  0.16630415  1
  O  O135  1  0.33745767  0.61009452  0.16628810  1
  O  O136  1  0.85415996  0.61805347  0.39941323  1
  O  O137  1  0.83109560  0.22209504  0.43507547  1
  O  O138  1  0.33116233  0.62894701  0.43503749  1
  O  O139  1  0.35445686  0.23311070  0.39943355  1
  O  O140  1  0.19836383  0.87137687  0.39474296  1
  O  O141  1  0.48631195  0.98243001  0.43602621  1
  O  O142  1  0.98670018  0.86852240  0.43606194  1
  O  O143  1  0.69816666  0.98002643  0.39477881  1
  O  O144  1  0.50162044  0.79847445  0.38796306  1
  O  O145  1  0.70123868  0.56700422  0.27678205  1
  O  O146  1  0.20144967  0.28424617  0.27676292  1
  O  O147  1  0.00109398  0.05211064  0.38790545  1
  O  O148  1  0.12104172  0.55441004  0.38113641  1
  O  O149  1  0.09879914  0.78824371  0.28720188  1
  O  O150  1  0.59882638  0.06296207  0.28720707  1
  O  O151  1  0.62117545  0.29721496  0.38112200  1
  O  O152  1  0.42808642  0.49276025  0.36904439  1
  O  O153  1  0.79474789  0.86062276  0.29781378  1
  O  O154  1  0.29461041  0.99064868  0.29784911  1
  O  O155  1  0.92841190  0.35837355  0.36910143  1
  O  O156  1  0.31022335  0.74360936  0.33370056  1
  O  O157  1  0.91524345  0.61015299  0.33368344  1
  O  O158  1  0.41537865  0.24085064  0.33369604  1
  O  O159  1  0.81006286  0.10769805  0.33371381  1
  O  O160  1  0.16485806  0.07275127  0.43892567  1
  O  O161  1  0.66517006  0.77886781  0.43904480  1
  O  O162  1  0.57201885  0.26778879  0.46622608  1
  O  O163  1  0.07210073  0.58297308  0.46617112  1
  O  O164  1  0.26663303  0.36681028  0.46169867  1
  O  O165  1  0.76644656  0.48422057  0.46166575  1
  O  O166  1  0.82955252  0.25513516  0.50140599  1
  O  O167  1  0.32959051  0.59626768  0.50132952  1
  O  O168  1  0.83042357  0.72225437  0.56503837  1
  O  O169  1  0.85247120  0.11625037  0.60047471  1
  O  O170  1  0.35297780  0.73260889  0.60048861  1
  O  O171  1  0.33030964  0.12831007  0.56498911  1
  O  O172  1  0.48567950  0.48219150  0.56395649  1
  O  O173  1  0.19745881  0.37087017  0.60529185  1
  O  O174  1  0.69783530  0.47885881  0.60511474  1
  O  O175  1  0.98515911  0.36780079  0.56417979  1
  O  O176  1  0.16411954  0.57123054  0.56082468  1
  O  O177  1  0.66369854  0.27780404  0.56091408  1
  O  O178  1  0.57162232  0.76760565  0.53381287  1
  O  O179  1  0.07146217  0.08300182  0.53377291  1
  O  O180  1  0.26584305  0.86649916  0.53822609  1
  O  O181  1  0.76625981  0.98375916  0.53798784  1
  O  O182  1  0.82934700  0.75323045  0.49868536  1
  O  O183  1  0.32901731  0.09639014  0.49864643  1
  O  O184  1  0.37047883  0.23294036  0.73206186  1
  O  O185  1  0.37755865  0.61535377  0.76791596  1
  O  O186  1  0.87796358  0.23203513  0.76802431  1
  O  O187  1  0.87066178  0.61606462  0.73202129  1
  O  O188  1  0.01290443  0.97584589  0.73046606  1
  O  O189  1  0.73447821  0.87217025  0.76950736  1
  O  O190  1  0.23464271  0.97638655  0.76951433  1
  O  O191  1  0.51263410  0.87263141  0.73051794  1
  O  O192  1  0.69880568  0.06576515  0.72334948  1
  O  O193  1  0.50030164  0.29831002  0.61206060  1
  O  O194  1  0.00091505  0.55250826  0.61205198  1
  O  O195  1  0.19921910  0.78295461  0.72330611  1
  O  O196  1  0.09674224  0.28660407  0.71273415  1
  O  O197  1  0.11947998  0.05394535  0.61889319  1
  O  O198  1  0.61979019  0.79578864  0.61902732  1
  O  O199  1  0.59697543  0.56247596  0.71258009  1
  O  O200  1  0.79255220  0.35956194  0.70229086  1
  O  O201  1  0.42682717  0.99188459  0.63091759  1
  O  O202  1  0.92704433  0.85741722  0.63104546  1
  O  O203  1  0.29246555  0.48918971  0.70217427  1
  O  O204  1  0.91296371  0.10952850  0.66624831  1
  O  O205  1  0.30872896  0.24222458  0.66635026  1
  O  O206  1  0.80939613  0.60611499  0.66628070  1
  O  O207  1  0.41297366  0.73984496  0.66626212  1
  O  O208  1  0.89548442  0.73181556  0.89943700  1
  O  O209  1  0.91910060  0.12794233  0.93516807  1
  O  O210  1  0.41912188  0.72161333  0.93502709  1
  O  O211  1  0.39498020  0.11625005  0.89950659  1
  O  O212  1  0.55114721  0.47873610  0.89472560  1
  O  O213  1  0.26354035  0.36764377  0.93601022  1
  O  O214  1  0.76308952  0.48149740  0.93603369  1
  O  O215  1  0.05125658  0.37003825  0.89483293  1
  O  O216  1  0.24791112  0.55154931  0.88796269  1
  O  O217  1  0.04911900  0.78282791  0.77675090  1
  O  O218  1  0.54865782  0.06548147  0.77679556  1
  O  O219  1  0.74821394  0.29761037  0.88792154  1
  O  O220  1  0.62861862  0.79550646  0.88092909  1
  O  O221  1  0.65124523  0.56205110  0.78723771  1
  O  O222  1  0.15151843  0.28713535  0.78728171  1
  O  O223  1  0.12836565  0.05246272  0.88113294  1
  O  O224  1  0.32143050  0.85699833  0.86894525  1
  O  O225  1  0.95510693  0.48880128  0.79783485  1
  O  O226  1  0.45588739  0.35923655  0.79785019  1
  O  O227  1  0.82128640  0.99150120  0.86916170  1
  O  O228  1  0.43922685  0.60625468  0.83364907  1
  O  O229  1  0.83526524  0.73990409  0.83367656  1
  O  O230  1  0.33442882  0.10936489  0.83375635  1
  O  O231  1  0.93992637  0.24191085  0.83374221  1
  O  O232  1  0.58447468  0.27772472  0.93894933  1
  O  O233  1  0.08468510  0.57113509  0.93909544  1
  O  O234  1  0.17803563  0.08248266  0.96635517  1
  O  O235  1  0.67807527  0.76722767  0.96618337  1
  O  O236  1  0.48386290  0.98380376  0.96172992  1
  O  O237  1  0.98375361  0.86568512  0.96168560  1
  O  O238  1  0.92032240  0.09457621  0.00146917  1
  O  O239  1  0.42054247  0.75454259  0.00134720  1
