# generated using pymatgen
data_Na3Zr2Si2PO12
_symmetry_space_group_name_H-M   'P 1'
_cell_length_a   9.27295600
_cell_length_b   9.15937100
_cell_length_c   39.43640213
_cell_angle_alpha   90.00000000
_cell_angle_beta   90.00000000
_cell_angle_gamma   90.00000000
_symmetry_Int_Tables_number   1
_chemical_formula_structural   Na3Zr2Si2PO12
_chemical_formula_sum   'Na36 Zr24 Si24 P12 O144'
_cell_volume   3349.50889856
_cell_formula_units_Z   12
loop_
 _symmetry_equiv_pos_site_id
 _symmetry_equiv_pos_as_xyz
  1  'x, y, z'
loop_
 _atom_site_type_symbol
 _atom_site_label
 _atom_site_symmetry_multiplicity
 _atom_site_fract_x
 _atom_site_fract_y
 _atom_site_fract_z
 _atom_site_occupancy
  Na  Na0  1  0.66533088  0.61034077  0.02193214  1
  Na  Na1  1  0.16514978  0.16454855  0.02187649  1
  Na  Na2  1  0.58067566  0.50190594  0.09555929  1
  Na  Na3  1  0.08074582  0.27277226  0.09545669  1
  Na  Na4  1  0.23813895  0.24774941  0.18919411  1
  Na  Na5  1  0.86208265  0.96588874  0.14132987  1
  Na  Na6  1  0.36207057  0.80855157  0.14134270  1
  Na  Na7  1  0.73840551  0.52673707  0.18916443  1
  Na  Na8  1  0.08768629  0.99105531  0.24998713  1
  Na  Na9  1  0.58770853  0.78387552  0.25004999  1
  Na  Na10  1  0.81272573  0.80911995  0.35861796  1
  Na  Na11  1  0.43654796  0.52668133  0.31080322  1
  Na  Na12  1  0.93692585  0.24849586  0.31083479  1
  Na  Na13  1  0.31260769  0.96652751  0.35866083  1
  Na  Na14  1  0.59368287  0.50223935  0.40454935  1
  Na  Na15  1  0.09391172  0.27324456  0.40453206  1
  Na  Na16  1  0.01016244  0.16519657  0.47818829  1
  Na  Na17  1  0.50998252  0.61061241  0.47815176  1
  Na  Na18  1  0.01011842  0.66504839  0.52181850  1
  Na  Na19  1  0.50995953  0.11060849  0.52184961  1
  Na  Na20  1  0.09385669  0.77305151  0.59546059  1
  Na  Na21  1  0.59375525  0.00214549  0.59545771  1
  Na  Na22  1  0.43659501  0.02658203  0.68920041  1
  Na  Na23  1  0.81275256  0.30899425  0.64138678  1
  Na  Na24  1  0.31256528  0.46644905  0.64133320  1
  Na  Na25  1  0.93698555  0.74830847  0.68916505  1
  Na  Na26  1  0.58778014  0.28372713  0.74996487  1
  Na  Na27  1  0.08771775  0.49092329  0.75001300  1
  Na  Na28  1  0.86209054  0.46580955  0.85866610  1
  Na  Na29  1  0.23820282  0.74765268  0.81080568  1
  Na  Na30  1  0.73844302  0.02665633  0.81082767  1
  Na  Na31  1  0.36202376  0.30845974  0.85865801  1
  Na  Na32  1  0.08079754  0.77267996  0.90454075  1
  Na  Na33  1  0.58064742  0.00183527  0.90443919  1
  Na  Na34  1  0.66528818  0.11017143  0.97807643  1
  Na  Na35  1  0.16516001  0.66450076  0.97811697  1
  Zr  Zr36  1  0.33447495  0.63887858  0.04797476  1
  Zr  Zr37  1  0.40500570  0.14487657  0.11623454  1
  Zr  Zr38  1  0.90506888  0.62969167  0.11616236  1
  Zr  Zr39  1  0.83442080  0.13569529  0.04801738  1
  Zr  Zr40  1  0.80109790  0.13375086  0.21633776  1
  Zr  Zr41  1  0.87449955  0.64153682  0.28360089  1
  Zr  Zr42  1  0.37426348  0.13389303  0.28360901  1
  Zr  Zr43  1  0.30125921  0.64119938  0.21634293  1
  Zr  Zr44  1  0.26957228  0.63028014  0.38378130  1
  Zr  Zr45  1  0.34056993  0.13634459  0.45199774  1
  Zr  Zr46  1  0.84050610  0.63928128  0.45195446  1
  Zr  Zr47  1  0.76958341  0.14532684  0.38382986  1
  Zr  Zr48  1  0.34055557  0.63628062  0.54800016  1
  Zr  Zr49  1  0.26960535  0.13019370  0.61621219  1
  Zr  Zr50  1  0.76956790  0.64525023  0.61616451  1
  Zr  Zr51  1  0.84048247  0.13920032  0.54804562  1
  Zr  Zr52  1  0.87449180  0.14141569  0.71639535  1
  Zr  Zr53  1  0.80112980  0.63363306  0.78367362  1
  Zr  Zr54  1  0.30129878  0.14110591  0.78364915  1
  Zr  Zr55  1  0.37426827  0.63375497  0.71638755  1
  Zr  Zr56  1  0.40502592  0.64475443  0.88376982  1
  Zr  Zr57  1  0.33448381  0.13886949  0.95202290  1
  Zr  Zr58  1  0.83441125  0.63567707  0.95198040  1
  Zr  Zr59  1  0.90509023  0.12958855  0.88383900  1
  Si  Si60  1  0.96988100  0.49796049  0.03414866  1
  Si  Si61  1  0.46991258  0.27660492  0.03420720  1
  Si  Si62  1  0.44407387  0.00016027  0.20315128  1
  Si  Si63  1  0.75545202  0.27748173  0.13031478  1
  Si  Si64  1  0.25530914  0.49704836  0.13030947  1
  Si  Si65  1  0.94432822  0.77427986  0.20312700  1
  Si  Si66  1  0.91918037  0.49747676  0.36968449  1
  Si  Si67  1  0.23133431  0.77494332  0.29681450  1
  Si  Si68  1  0.73126625  0.00109871  0.29680297  1
  Si  Si69  1  0.41918892  0.27781793  0.36970322  1
  Si  Si70  1  0.70536334  0.27695112  0.46584892  1
  Si  Si71  1  0.20539426  0.49880968  0.46580581  1
  Si  Si72  1  0.70534969  0.77689736  0.53415130  1
  Si  Si73  1  0.20538269  0.99878563  0.53419180  1
  Si  Si74  1  0.23131658  0.27479627  0.70318394  1
  Si  Si75  1  0.91929936  0.99734498  0.63031024  1
  Si  Si76  1  0.41918064  0.77779589  0.63030102  1
  Si  Si77  1  0.73131097  0.50104054  0.70320949  1
  Si  Si78  1  0.75547422  0.77743118  0.86968837  1
  Si  Si79  1  0.44415010  0.50003663  0.79685056  1
  Si  Si80  1  0.94434911  0.27414707  0.79687186  1
  Si  Si81  1  0.25529678  0.99694283  0.86968580  1
  Si  Si82  1  0.96988788  0.99794442  0.96584790  1
  Si  Si83  1  0.46988027  0.77654737  0.96578733  1
  P  P84  1  0.62372296  0.85058606  0.08459069  1
  P  P85  1  0.12397092  0.92401703  0.08452448  1
  P  P86  1  0.08765684  0.34613463  0.24998899  1
  P  P87  1  0.58766445  0.42902668  0.25000451  1
  P  P88  1  0.55051431  0.85089269  0.41544806  1
  P  P89  1  0.05059612  0.92471629  0.41546989  1
  P  P90  1  0.05057114  0.42463269  0.58453210  1
  P  P91  1  0.55052019  0.35080953  0.58455885  1
  P  P92  1  0.58770005  0.92883244  0.74999796  1
  P  P93  1  0.08768983  0.84600523  0.75001473  1
  P  P94  1  0.12395724  0.42397457  0.91547543  1
  P  P95  1  0.62377357  0.35049196  0.91540342  1
  O  O96  1  0.87859255  0.57064737  0.06570648  1
  O  O97  1  0.84560945  0.19684570  0.09990620  1
  O  O98  1  0.34549276  0.57773623  0.09991392  1
  O  O99  1  0.37864487  0.20401324  0.06577507  1
  O  O100  1  0.22531552  0.83082594  0.06246084  1
  O  O101  1  0.51585872  0.94704014  0.10426210  1
  O  O102  1  0.01572682  0.82752093  0.10410490  1
  O  O103  1  0.72562112  0.94381173  0.06265898  1
  O  O104  1  0.54262639  0.73926671  0.06218159  1
  O  O105  1  0.21154927  0.01023649  0.11149463  1
  O  O106  1  0.71079298  0.76333283  0.11148660  1
  O  O107  1  0.04312192  0.03619742  0.06229099  1
  O  O108  1  0.14190690  0.54997025  0.03342124  1
  O  O109  1  0.64186903  0.22443973  0.03346281  1
  O  O110  1  0.46720909  0.45583409  0.03866644  1
  O  O111  1  0.96709413  0.31872613  0.03861503  1
  O  O112  1  0.88891127  0.55311418  0.99908080  1
  O  O113  1  0.38893765  0.22145050  0.99912589  1
  O  O114  1  0.34156270  0.07791808  0.23203451  1
  O  O115  1  0.33369628  0.69691680  0.26796031  1
  O  O116  1  0.83368109  0.07928369  0.26798911  1
  O  O117  1  0.84200334  0.69579256  0.23194295  1
  O  O118  1  0.69845345  0.33531187  0.23047069  1
  O  O119  1  0.97678751  0.43970727  0.26953096  1
  O  O120  1  0.47679553  0.33538932  0.26953113  1
  O  O121  1  0.19857006  0.43976949  0.23047550  1
  O  O122  1  0.01254415  0.24646654  0.22329414  1
  O  O123  1  0.66293139  0.52879186  0.27664627  1
  O  O124  1  0.16297964  0.24657122  0.27666393  1
  O  O125  1  0.51218251  0.52836270  0.22331067  1
  O  O126  1  0.61462996  0.02569042  0.21236228  1
  O  O127  1  0.58402999  0.26264997  0.12133808  1
  O  O128  1  0.08390131  0.51151710  0.12126851  1
  O  O129  1  0.11493437  0.74959914  0.21234372  1
  O  O130  1  0.91969861  0.95266591  0.20229139  1
  O  O131  1  0.27928768  0.31906052  0.13222956  1
  O  O132  1  0.77942829  0.45542050  0.13222435  1
  O  O133  1  0.42037048  0.82172881  0.20219220  1
  O  O134  1  0.79984222  0.20084195  0.16611665  1
  O  O135  1  0.39992611  0.06698631  0.16612257  1
  O  O136  1  0.90056380  0.70760889  0.16605572  1
  O  O137  1  0.29939115  0.57369147  0.16612955  1
  O  O138  1  0.82867590  0.57821042  0.40002491  1
  O  O139  1  0.79660428  0.20425145  0.43429241  1
  O  O140  1  0.29660727  0.57146967  0.43423889  1
  O  O141  1  0.32886191  0.19697375  0.40004726  1
  O  O142  1  0.15859689  0.82815354  0.39582566  1
  O  O143  1  0.44895183  0.94421100  0.43742944  1
  O  O144  1  0.94876608  0.83143568  0.43739135  1
  O  O145  1  0.65871287  0.94738257  0.39583304  1
  O  O146  1  0.46332744  0.76425566  0.38848283  1
  O  O147  1  0.13179441  0.03617109  0.43783823  1
  O  O148  1  0.63154389  0.73912152  0.43775924  1
  O  O149  1  0.96359977  0.01176980  0.38854297  1
  O  O150  1  0.09052945  0.51235461  0.37883201  1
  O  O151  1  0.06076030  0.74987126  0.28751340  1
  O  O152  1  0.56068495  0.02583316  0.28753858  1
  O  O153  1  0.59057401  0.26330716  0.37886951  1
  O  O154  1  0.39501700  0.45574374  0.36774055  1
  O  O155  1  0.75584870  0.82263814  0.29764511  1
  O  O156  1  0.25544312  0.95327289  0.29777991  1
  O  O157  1  0.89529727  0.31951903  0.36776303  1
  O  O158  1  0.27470293  0.70802823  0.33388535  1
  O  O159  1  0.87566012  0.57412427  0.33382320  1
  O  O160  1  0.37569624  0.20114964  0.33384887  1
  O  O161  1  0.77469856  0.06770249  0.33390001  1
  O  O162  1  0.53331557  0.22486095  0.46656660  1
  O  O163  1  0.03330666  0.55071029  0.46651158  1
  O  O164  1  0.20825177  0.31954129  0.46136854  1
  O  O165  1  0.70805963  0.45618960  0.46138889  1
  O  O166  1  0.78625136  0.22192490  0.50095052  1
  O  O167  1  0.28618458  0.55401846  0.50088741  1
  O  O168  1  0.79661396  0.70422216  0.56570651  1
  O  O169  1  0.82873703  0.07805755  0.59997270  1
  O  O170  1  0.32882687  0.69700666  0.59995025  1
  O  O171  1  0.29663236  0.07142461  0.56575562  1
  O  O172  1  0.44899640  0.44415994  0.56257144  1
  O  O173  1  0.15851855  0.32804834  0.60418240  1
  O  O174  1  0.65875485  0.44729385  0.60416911  1
  O  O175  1  0.94864249  0.33145072  0.56261710  1
  O  O176  1  0.13183277  0.53601909  0.56215132  1
  O  O177  1  0.46329393  0.26425116  0.61152414  1
  O  O178  1  0.96362257  0.51175301  0.61145504  1
  O  O179  1  0.63154645  0.23900543  0.56225479  1
  O  O180  1  0.53330539  0.72477967  0.53343041  1
  O  O181  1  0.03330524  0.05073914  0.53348663  1
  O  O182  1  0.20825162  0.81949968  0.53862648  1
  O  O183  1  0.70799325  0.95613856  0.53860888  1
  O  O184  1  0.78626017  0.72192973  0.49905156  1
  O  O185  1  0.28613934  0.05405716  0.49910901  1
  O  O186  1  0.33374778  0.19678798  0.73202946  1
  O  O187  1  0.34171700  0.57782528  0.76796429  1
  O  O188  1  0.84209602  0.19555426  0.76806356  1
  O  O189  1  0.83374121  0.57924675  0.73201897  1
  O  O190  1  0.97685778  0.93956748  0.73045653  1
  O  O191  1  0.69840312  0.83508496  0.76954799  1
  O  O192  1  0.19863844  0.93964743  0.76951216  1
  O  O193  1  0.47677155  0.83523774  0.73047474  1
  O  O194  1  0.66309423  0.02842850  0.72334125  1
  O  O195  1  0.01253986  0.74642778  0.77672132  1
  O  O196  1  0.51228307  0.02833043  0.77666511  1
  O  O197  1  0.16298144  0.74631959  0.72335553  1
  O  O198  1  0.06073129  0.24981264  0.71249119  1
  O  O199  1  0.09061797  0.01214435  0.62114864  1
  O  O200  1  0.59056393  0.76323220  0.62112275  1
  O  O201  1  0.56072666  0.52578455  0.71245751  1
  O  O202  1  0.75586924  0.32257165  0.70238046  1
  O  O203  1  0.39507728  0.95573536  0.63226940  1
  O  O204  1  0.89532554  0.81940237  0.63222982  1
  O  O205  1  0.25545666  0.45313194  0.70221750  1
  O  O206  1  0.87581732  0.07404351  0.66617061  1
  O  O207  1  0.27466026  0.20789067  0.66611265  1
  O  O208  1  0.77470522  0.56757717  0.66609831  1
  O  O209  1  0.37570997  0.70111625  0.66615477  1
  O  O210  1  0.84567041  0.69684281  0.90009100  1
  O  O211  1  0.87855701  0.07057797  0.93428824  1
  O  O212  1  0.37860593  0.70390333  0.93422845  1
  O  O213  1  0.34546860  0.07770760  0.90007869  1
  O  O214  1  0.51585035  0.44689809  0.89573638  1
  O  O215  1  0.22535858  0.33083488  0.93753580  1
  O  O216  1  0.72562730  0.44378014  0.93733029  1
  O  O217  1  0.01577713  0.32742092  0.89589181  1
  O  O218  1  0.21149713  0.51025035  0.88850616  1
  O  O219  1  0.54270704  0.23915172  0.93782142  1
  O  O220  1  0.04306075  0.53608136  0.93771777  1
  O  O221  1  0.71086620  0.26327200  0.88850591  1
  O  O222  1  0.58407520  0.76249170  0.87868252  1
  O  O223  1  0.61471452  0.52544352  0.78765634  1
  O  O224  1  0.11499437  0.24950519  0.78765392  1
  O  O225  1  0.08388002  0.01135618  0.87873284  1
  O  O226  1  0.27935478  0.81898593  0.86776894  1
  O  O227  1  0.91973130  0.45253910  0.79769722  1
  O  O228  1  0.42039721  0.32159205  0.79781484  1
  O  O229  1  0.77937580  0.95538475  0.86776871  1
  O  O230  1  0.39998172  0.56685212  0.83388028  1
  O  O231  1  0.79984063  0.70073879  0.83389273  1
  O  O232  1  0.29938228  0.07361313  0.83386896  1
  O  O233  1  0.90061998  0.20750101  0.83394568  1
  O  O234  1  0.14189797  0.05000801  0.96657237  1
  O  O235  1  0.64185098  0.72443447  0.96653536  1
  O  O236  1  0.46714948  0.95578342  0.96132689  1
  O  O237  1  0.96711827  0.81871171  0.96139082  1
  O  O238  1  0.88893481  0.05312587  0.00091828  1
  O  O239  1  0.38893588  0.72144356  0.00087298  1
