# generated using pymatgen
data_Na3Zr2Si2PO12
_symmetry_space_group_name_H-M   'P 1'
_cell_length_a   9.27295600
_cell_length_b   9.15937100
_cell_length_c   39.44066958
_cell_angle_alpha   90.00000000
_cell_angle_beta   90.00000000
_cell_angle_gamma   90.00000000
_symmetry_Int_Tables_number   1
_chemical_formula_structural   Na3Zr2Si2PO12
_chemical_formula_sum   'Na36 Zr24 Si24 P12 O144'
_cell_volume   3349.87135202
_cell_formula_units_Z   12
loop_
 _symmetry_equiv_pos_site_id
 _symmetry_equiv_pos_as_xyz
  1  'x, y, z'
loop_
 _atom_site_type_symbol
 _atom_site_label
 _atom_site_symmetry_multiplicity
 _atom_site_fract_x
 _atom_site_fract_y
 _atom_site_fract_z
 _atom_site_occupancy
  Na  Na0  1  0.65291106  0.66672164  0.02176353  1
  Na  Na1  1  0.76501265  0.86898739  0.14184895  1
  Na  Na2  1  0.26480366  0.70571248  0.14183688  1
  Na  Na3  1  0.15317690  0.90776257  0.02168192  1
  Na  Na4  1  0.50282367  0.39797289  0.08719987  1
  Na  Na5  1  0.00310694  0.17683678  0.08711030  1
  Na  Na6  1  0.13494464  0.14844253  0.18819652  1
  Na  Na7  1  0.34045002  0.42570147  0.31177479  1
  Na  Na8  1  0.84057694  0.14833275  0.31177458  1
  Na  Na9  1  0.63523824  0.42561866  0.18819696  1
  Na  Na10  1  0.98771131  0.89090282  0.24997599  1
  Na  Na11  1  0.48767249  0.68322019  0.24998050  1
  Na  Na12  1  0.71021341  0.70546419  0.35817711  1
  Na  Na13  1  0.82342640  0.90872783  0.47830229  1
  Na  Na14  1  0.32367167  0.66507881  0.47823664  1
  Na  Na15  1  0.21017478  0.86879487  0.35817531  1
  Na  Na16  1  0.47323570  0.39760498  0.41267620  1
  Na  Na17  1  0.97312062  0.17646002  0.41265686  1
  Na  Na18  1  0.82317553  0.40883560  0.52172336  1
  Na  Na19  1  0.70995594  0.20596384  0.64186272  1
  Na  Na20  1  0.21003893  0.36909887  0.64183976  1
  Na  Na21  1  0.32314126  0.16650472  0.52165070  1
  Na  Na22  1  0.97282102  0.67710090  0.58728447  1
  Na  Na23  1  0.47276369  0.89804454  0.58726939  1
  Na  Na24  1  0.34051436  0.92682004  0.68821335  1
  Na  Na25  1  0.13520742  0.64989293  0.81176364  1
  Na  Na26  1  0.63489513  0.92621932  0.81174221  1
  Na  Na27  1  0.84030434  0.64874519  0.68822779  1
  Na  Na28  1  0.48722188  0.18385055  0.75010494  1
  Na  Na29  1  0.98738132  0.39163553  0.75012646  1
  Na  Na30  1  0.76426956  0.36983046  0.85823226  1
  Na  Na31  1  0.65244639  0.16611224  0.97818972  1
  Na  Na32  1  0.15172396  0.41028550  0.97813264  1
  Na  Na33  1  0.26472487  0.20587998  0.85823923  1
  Na  Na34  1  0.00140985  0.67730963  0.91259274  1
  Na  Na35  1  0.50164639  0.89863918  0.91265749  1
  Zr  Zr36  1  0.23572695  0.53519985  0.04868844  1
  Zr  Zr37  1  0.30947698  0.04433477  0.11651587  1
  Zr  Zr38  1  0.80948937  0.53046431  0.11651761  1
  Zr  Zr39  1  0.73559612  0.04010923  0.04864059  1
  Zr  Zr40  1  0.70094245  0.03395180  0.21636071  1
  Zr  Zr41  1  0.77442227  0.54055565  0.28359523  1
  Zr  Zr42  1  0.27445510  0.03363784  0.28358246  1
  Zr  Zr43  1  0.20088905  0.54043159  0.21637637  1
  Zr  Zr44  1  0.16593894  0.53006475  0.38348088  1
  Zr  Zr45  1  0.23989182  0.03959714  0.45130398  1
  Zr  Zr46  1  0.73983773  0.53493061  0.45129360  1
  Zr  Zr47  1  0.66596994  0.04422091  0.38345938  1
  Zr  Zr48  1  0.23962946  0.53979390  0.54868656  1
  Zr  Zr49  1  0.16569816  0.03045164  0.61657241  1
  Zr  Zr50  1  0.66570472  0.54456567  0.61656577  1
  Zr  Zr51  1  0.73969482  0.03507401  0.54869868  1
  Zr  Zr52  1  0.77379993  0.04108325  0.71642144  1
  Zr  Zr53  1  0.70022951  0.53444516  0.78363383  1
  Zr  Zr54  1  0.20003510  0.04129960  0.78364317  1
  Zr  Zr55  1  0.27387528  0.53421986  0.71639994  1
  Zr  Zr56  1  0.30872112  0.54483556  0.88348961  1
  Zr  Zr57  1  0.23511606  0.03559660  0.95134398  1
  Zr  Zr58  1  0.73512845  0.54034559  0.95134673  1
  Zr  Zr59  1  0.80865557  0.03092799  0.88350213  1
  Si  Si60  1  0.86531001  0.40664044  0.03378081  1
  Si  Si61  1  0.66224006  0.17648625  0.12963978  1
  Si  Si62  1  0.16214259  0.39820481  0.12966950  1
  Si  Si63  1  0.36509820  0.16879690  0.03375190  1
  Si  Si64  1  0.34412530  0.90059894  0.20332631  1
  Si  Si65  1  0.13113313  0.67343594  0.29661919  1
  Si  Si66  1  0.63114916  0.90075552  0.29659922  1
  Si  Si67  1  0.84411410  0.67374923  0.20335588  1
  Si  Si68  1  0.81362139  0.39788837  0.37032320  1
  Si  Si69  1  0.61050242  0.16821023  0.46612728  1
  Si  Si70  1  0.11035905  0.40621540  0.46615591  1
  Si  Si71  1  0.31361880  0.17630862  0.37032083  1
  Si  Si72  1  0.61037194  0.66827770  0.53384645  1
  Si  Si73  1  0.81321203  0.89834407  0.62970158  1
  Si  Si74  1  0.31327901  0.67671487  0.62966809  1
  Si  Si75  1  0.11038127  0.90648522  0.53384776  1
  Si  Si76  1  0.13052168  0.17407152  0.70339579  1
  Si  Si77  1  0.34357734  0.40115592  0.79667167  1
  Si  Si78  1  0.84336508  0.17466785  0.79669978  1
  Si  Si79  1  0.63059978  0.40128086  0.70343768  1
  Si  Si80  1  0.66099108  0.67720347  0.87030841  1
  Si  Si81  1  0.86502321  0.90665241  0.96619451  1
  Si  Si82  1  0.36476091  0.66901528  0.96622975  1
  Si  Si83  1  0.16108808  0.89873526  0.87034945  1
  P  P84  1  0.52310307  0.74793787  0.08555582  1
  P  P85  1  0.02311696  0.82721311  0.08561561  1
  P  P86  1  0.98755277  0.24530212  0.24999460  1
  P  P87  1  0.48760585  0.32894637  0.24998893  1
  P  P88  1  0.45194295  0.74760343  0.41438000  1
  P  P89  1  0.95197362  0.82689854  0.41435003  1
  P  P90  1  0.95174364  0.32723113  0.58565505  1
  P  P91  1  0.45181195  0.24787069  0.58562882  1
  P  P92  1  0.48691756  0.82949792  0.75002551  1
  P  P93  1  0.98696124  0.74591601  0.75003874  1
  P  P94  1  0.02258659  0.32739541  0.91438054  1
  P  P95  1  0.52264360  0.24836094  0.91444970  1
  O  O96  1  0.78181080  0.49063618  0.06499290  1
  O  O97  1  0.75899378  0.09536703  0.10045688  1
  O  O98  1  0.25887429  0.47940822  0.10048330  1
  O  O99  1  0.28180408  0.08477230  0.06500114  1
  O  O100  1  0.12606051  0.73017865  0.06418903  1
  O  O101  1  0.41364050  0.84116842  0.10530306  1
  O  O102  1  0.91396262  0.73366383  0.10537888  1
  O  O103  1  0.62577968  0.84502989  0.06407365  1
  O  O104  1  0.44766648  0.64090995  0.06086801  1
  O  O105  1  0.11097199  0.91483628  0.11205259  1
  O  O106  1  0.61115381  0.66051721  0.11199057  1
  O  O107  1  0.94759635  0.93396662  0.06087979  1
  O  O108  1  0.04066228  0.44525097  0.03374059  1
  O  O109  1  0.49219335  0.15787984  0.11904713  1
  O  O110  1  0.99210543  0.41667578  0.11903537  1
  O  O111  1  0.54051559  0.13009756  0.03369443  1
  O  O112  1  0.34629958  0.34668621  0.03813971  1
  O  O113  1  0.18483750  0.22028200  0.13092980  1
  O  O114  1  0.68466709  0.35451498  0.13085597  1
  O  O115  1  0.84619264  0.22880141  0.03818166  1
  O  O116  1  0.78306732  0.45885047  0.99865168  1
  O  O117  1  0.28250758  0.11674980  0.99867328  1
  O  O118  1  0.24119245  0.97846073  0.23206268  1
  O  O119  1  0.23424827  0.59547502  0.26793401  1
  O  O120  1  0.73429049  0.97866591  0.26791725  1
  O  O121  1  0.74117588  0.59571381  0.23206606  1
  O  O122  1  0.59874482  0.23545879  0.23050709  1
  O  O123  1  0.87675750  0.33897122  0.26951653  1
  O  O124  1  0.37689929  0.23515462  0.26950601  1
  O  O125  1  0.09850668  0.33892774  0.23048937  1
  O  O126  1  0.91244212  0.14589610  0.22325193  1
  O  O127  1  0.56250236  0.42878911  0.27669801  1
  O  O128  1  0.06260462  0.14557942  0.27670382  1
  O  O129  1  0.41240935  0.42823352  0.22323660  1
  O  O130  1  0.51474533  0.92510919  0.21255349  1
  O  O131  1  0.96063029  0.64953516  0.28720124  1
  O  O132  1  0.46068693  0.92472473  0.28715771  1
  O  O133  1  0.01470205  0.64942392  0.21263533  1
  O  O134  1  0.81896590  0.85205182  0.20213119  1
  O  O135  1  0.65651944  0.72242661  0.29786111  1
  O  O136  1  0.15659168  0.85176066  0.29787234  1
  O  O137  1  0.31907163  0.72225928  0.20212813  1
  O  O138  1  0.69905147  0.10289534  0.16627562  1
  O  O139  1  0.30218638  0.96944623  0.16633756  1
  O  O140  1  0.80234805  0.60494929  0.16634645  1
  O  O141  1  0.19875424  0.47199789  0.16628794  1
  O  O142  1  0.71680004  0.47931878  0.39945772  1
  O  O143  1  0.69425193  0.08395973  0.43498843  1
  O  O144  1  0.19406090  0.49058600  0.43502220  1
  O  O145  1  0.21682258  0.09481904  0.39945095  1
  O  O146  1  0.06087568  0.73287409  0.39464335  1
  O  O147  1  0.34927615  0.84414422  0.43600232  1
  O  O148  1  0.84892099  0.73044005  0.43589153  1
  O  O149  1  0.56101132  0.84141936  0.39466709  1
  O  O150  1  0.36401389  0.66045183  0.38787015  1
  O  O151  1  0.02792321  0.93380733  0.43897015  1
  O  O152  1  0.52780576  0.64035087  0.43893590  1
  O  O153  1  0.86438070  0.91441320  0.38783570  1
  O  O154  1  0.98353680  0.41583065  0.38113153  1
  O  O155  1  0.43512221  0.12960206  0.46606430  1
  O  O156  1  0.93507952  0.44519059  0.46614584  1
  O  O157  1  0.48354361  0.15836719  0.38110307  1
  O  O158  1  0.29071916  0.35425381  0.36905605  1
  O  O159  1  0.12938277  0.22846200  0.46164586  1
  O  O160  1  0.62959283  0.34602721  0.46170536  1
  O  O161  1  0.79072612  0.21997316  0.36900970  1
  O  O162  1  0.17240293  0.60452292  0.33364148  1
  O  O163  1  0.77730695  0.47183789  0.33369673  1
  O  O164  1  0.27735616  0.10240986  0.33368878  1
  O  O165  1  0.67241654  0.96961981  0.33363021  1
  O  O166  1  0.69244464  0.11637445  0.50132976  1
  O  O167  1  0.19245258  0.45781429  0.50136074  1
  O  O168  1  0.69396451  0.58403453  0.56501454  1
  O  O169  1  0.71658882  0.97969111  0.60052165  1
  O  O170  1  0.21649998  0.59542593  0.60049569  1
  O  O171  1  0.19390351  0.99037812  0.56507457  1
  O  O172  1  0.34897983  0.34446925  0.56406877  1
  O  O173  1  0.06083324  0.23329990  0.60533631  1
  O  O174  1  0.56079111  0.34171556  0.60536534  1
  O  O175  1  0.84887321  0.23060054  0.56410339  1
  O  O176  1  0.02756825  0.43428707  0.56104235  1
  O  O177  1  0.36400553  0.16050062  0.61212599  1
  O  O178  1  0.86404958  0.41453631  0.61218949  1
  O  O179  1  0.52772486  0.14090839  0.56101929  1
  O  O180  1  0.43499642  0.62961853  0.53389888  1
  O  O181  1  0.98322343  0.91638292  0.61901528  1
  O  O182  1  0.48322735  0.65863427  0.61892508  1
  O  O183  1  0.93503438  0.94524965  0.53390084  1
  O  O184  1  0.12940983  0.72863381  0.53819767  1
  O  O185  1  0.29051948  0.85467505  0.63102297  1
  O  O186  1  0.79044634  0.72039185  0.63097096  1
  O  O187  1  0.62951755  0.84611018  0.53827449  1
  O  O188  1  0.69235365  0.61636859  0.49865221  1
  O  O189  1  0.19247284  0.95878512  0.49870065  1
  O  O190  1  0.23362134  0.09647018  0.73213200  1
  O  O191  1  0.24058955  0.47890667  0.76793081  1
  O  O192  1  0.74047254  0.09683714  0.76795082  1
  O  O193  1  0.73394450  0.47900990  0.73211854  1
  O  O194  1  0.87603753  0.83948165  0.73051780  1
  O  O195  1  0.59783721  0.73585015  0.76953199  1
  O  O196  1  0.09777094  0.83976706  0.76952821  1
  O  O197  1  0.37618272  0.73584138  0.73047731  1
  O  O198  1  0.56210749  0.92918602  0.72333369  1
  O  O199  1  0.91193693  0.64648862  0.77678688  1
  O  O200  1  0.41177684  0.92900811  0.77674197  1
  O  O201  1  0.06214078  0.64634254  0.72332982  1
  O  O202  1  0.96002807  0.14989124  0.71272572  1
  O  O203  1  0.51419700  0.42520075  0.78736659  1
  O  O204  1  0.01394318  0.15037557  0.78734456  1
  O  O205  1  0.46017234  0.42540846  0.71285844  1
  O  O206  1  0.65585323  0.22290538  0.70215480  1
  O  O207  1  0.81841009  0.35294410  0.79800437  1
  O  O208  1  0.31837309  0.22283927  0.79798620  1
  O  O209  1  0.15587857  0.35241206  0.70214169  1
  O  O210  1  0.77648184  0.97228208  0.66630947  1
  O  O211  1  0.17230904  0.10513330  0.66640232  1
  O  O212  1  0.67210738  0.47018578  0.66642180  1
  O  O213  1  0.27684065  0.60257169  0.66626968  1
  O  O214  1  0.75747377  0.59580109  0.89950235  1
  O  O215  1  0.78137129  0.99110946  0.93506100  1
  O  O216  1  0.28147993  0.58437337  0.93506664  1
  O  O217  1  0.25783507  0.98039585  0.89946147  1
  O  O218  1  0.41346653  0.34197253  0.89471928  1
  O  O219  1  0.12514235  0.23066072  0.93597703  1
  O  O220  1  0.62562967  0.34503648  0.93595710  1
  O  O221  1  0.91329332  0.23388403  0.89466170  1
  O  O222  1  0.11077561  0.41452049  0.88791510  1
  O  O223  1  0.44703837  0.14134699  0.93909857  1
  O  O224  1  0.94695974  0.43475579  0.93894719  1
  O  O225  1  0.61039223  0.16084494  0.88797478  1
  O  O226  1  0.49091972  0.65923827  0.88091109  1
  O  O227  1  0.04029369  0.94544383  0.96626559  1
  O  O228  1  0.54017223  0.63034925  0.96633169  1
  O  O229  1  0.99104049  0.91685684  0.88096037  1
  O  O230  1  0.18390084  0.72078018  0.86918791  1
  O  O231  1  0.34575298  0.84676451  0.96164928  1
  O  O232  1  0.84616916  0.72889825  0.96165958  1
  O  O233  1  0.68387521  0.85517598  0.86907762  1
  O  O234  1  0.30195072  0.47035538  0.83364753  1
  O  O235  1  0.69783630  0.60344994  0.83370538  1
  O  O236  1  0.19765002  0.97221136  0.83369773  1
  O  O237  1  0.80169940  0.10559639  0.83368173  1
  O  O238  1  0.78266354  0.95810271  0.00135903  1
  O  O239  1  0.28222160  0.61770115  0.00137807  1
