# generated using pymatgen
data_Na3Zr2Si2PO12
_symmetry_space_group_name_H-M   'P 1'
_cell_length_a   9.27295600
_cell_length_b   9.15937100
_cell_length_c   39.43343199
_cell_angle_alpha   90.00000000
_cell_angle_beta   90.00000000
_cell_angle_gamma   90.00000000
_symmetry_Int_Tables_number   1
_chemical_formula_structural   Na3Zr2Si2PO12
_chemical_formula_sum   'Na36 Zr24 Si24 P12 O144'
_cell_volume   3349.25663168
_cell_formula_units_Z   12
loop_
 _symmetry_equiv_pos_site_id
 _symmetry_equiv_pos_as_xyz
  1  'x, y, z'
loop_
 _atom_site_type_symbol
 _atom_site_label
 _atom_site_symmetry_multiplicity
 _atom_site_fract_x
 _atom_site_fract_y
 _atom_site_fract_z
 _atom_site_occupancy
  Na  Na0  1  0.69045650  0.63495135  0.02178974  1
  Na  Na1  1  0.19077872  0.18954505  0.02185004  1
  Na  Na2  1  0.60695438  0.52696945  0.09541712  1
  Na  Na3  1  0.10686110  0.29793325  0.09548810  1
  Na  Na4  1  0.26368546  0.27302464  0.18921610  1
  Na  Na5  1  0.88766112  0.99118820  0.14133904  1
  Na  Na6  1  0.38781420  0.83393431  0.14133229  1
  Na  Na7  1  0.76375102  0.55174632  0.18922131  1
  Na  Na8  1  0.11253751  0.01611207  0.24999121  1
  Na  Na9  1  0.61250010  0.80881537  0.24997253  1
  Na  Na10  1  0.83698811  0.83364733  0.35863427  1
  Na  Na11  1  0.46120627  0.55178581  0.31083231  1
  Na  Na12  1  0.96131313  0.27306335  0.31078213  1
  Na  Na13  1  0.33774023  0.99083329  0.35861161  1
  Na  Na14  1  0.61768635  0.52663407  0.40460553  1
  Na  Na15  1  0.11821674  0.29799159  0.40455527  1
  Na  Na16  1  0.03420096  0.18941444  0.47816266  1
  Na  Na17  1  0.53410799  0.63517671  0.47812378  1
  Na  Na18  1  0.03420498  0.68942831  0.52182272  1
  Na  Na19  1  0.53406115  0.13522900  0.52186532  1
  Na  Na20  1  0.11814760  0.79811977  0.59543684  1
  Na  Na21  1  0.61760608  0.02668993  0.59538106  1
  Na  Na22  1  0.46113762  0.05199118  0.68917412  1
  Na  Na23  1  0.83693235  0.33379782  0.64137513  1
  Na  Na24  1  0.33762960  0.49098639  0.64138425  1
  Na  Na25  1  0.96125421  0.77315796  0.68921715  1
  Na  Na26  1  0.61246640  0.30900015  0.75004533  1
  Na  Na27  1  0.11248035  0.51634130  0.75000966  1
  Na  Na28  1  0.88759972  0.49135677  0.85866243  1
  Na  Na29  1  0.26368556  0.77326689  0.81078529  1
  Na  Na30  1  0.76372068  0.05193566  0.81078013  1
  Na  Na31  1  0.38780788  0.33410410  0.85866929  1
  Na  Na32  1  0.10683834  0.79813785  0.90452715  1
  Na  Na33  1  0.60699037  0.02718093  0.90458197  1
  Na  Na34  1  0.69046006  0.13505527  0.97820489  1
  Na  Na35  1  0.19077155  0.68969378  0.97816671  1
  Zr  Zr36  1  0.36019387  0.66402724  0.04803345  1
  Zr  Zr37  1  0.86020157  0.16099992  0.04801673  1
  Zr  Zr38  1  0.82615690  0.15884473  0.21641259  1
  Zr  Zr39  1  0.43108391  0.17022836  0.11618853  1
  Zr  Zr40  1  0.93103508  0.65500926  0.11621740  1
  Zr  Zr41  1  0.32593266  0.66642596  0.21636118  1
  Zr  Zr42  1  0.29409403  0.65487447  0.38380210  1
  Zr  Zr43  1  0.89874641  0.66621916  0.28361172  1
  Zr  Zr44  1  0.39896744  0.15863451  0.28358092  1
  Zr  Zr45  1  0.79426521  0.17000333  0.38379106  1
  Zr  Zr46  1  0.36481679  0.16055826  0.45196426  1
  Zr  Zr47  1  0.86484896  0.66352774  0.45197324  1
  Zr  Zr48  1  0.36478887  0.66059476  0.54803153  1
  Zr  Zr49  1  0.86478749  0.16353769  0.54801268  1
  Zr  Zr50  1  0.89866811  0.16637401  0.71638162  1
  Zr  Zr51  1  0.29396668  0.15496594  0.61620174  1
  Zr  Zr52  1  0.79416657  0.67004699  0.61620616  1
  Zr  Zr53  1  0.39891435  0.65881756  0.71641801  1
  Zr  Zr54  1  0.43106595  0.67040413  0.88381579  1
  Zr  Zr55  1  0.82611351  0.65913033  0.78358874  1
  Zr  Zr56  1  0.32586604  0.16673580  0.78364011  1
  Zr  Zr57  1  0.93099631  0.15519260  0.88377775  1
  Zr  Zr58  1  0.36016311  0.16406254  0.95197721  1
  Zr  Zr59  1  0.86022436  0.66103969  0.95198909  1
  Si  Si60  1  0.99547158  0.52323215  0.03420266  1
  Si  Si61  1  0.49536338  0.30174343  0.03417123  1
  Si  Si62  1  0.46957514  0.02563282  0.20316485  1
  Si  Si63  1  0.78131399  0.30287978  0.13033511  1
  Si  Si64  1  0.28132917  0.52230475  0.13033497  1
  Si  Si65  1  0.96927125  0.79962898  0.20319102  1
  Si  Si66  1  0.94347567  0.52219868  0.36966494  1
  Si  Si67  1  0.25561248  0.79939075  0.29679400  1
  Si  Si68  1  0.75594612  0.02547608  0.29680781  1
  Si  Si69  1  0.44366390  0.30241191  0.36966204  1
  Si  Si70  1  0.72954505  0.30145041  0.46584717  1
  Si  Si71  1  0.22963124  0.52294922  0.46579896  1
  Si  Si72  1  0.72950761  0.80145543  0.53413783  1
  Si  Si73  1  0.22956524  0.02294722  0.53418837  1
  Si  Si74  1  0.25546848  0.29965244  0.70319840  1
  Si  Si75  1  0.94332718  0.02226237  0.63033208  1
  Si  Si76  1  0.44357533  0.80253712  0.63032918  1
  Si  Si77  1  0.75584842  0.52561173  0.70319738  1
  Si  Si78  1  0.78128338  0.80301857  0.86967544  1
  Si  Si79  1  0.46958483  0.52586352  0.79684189  1
  Si  Si80  1  0.96916566  0.29989149  0.79681000  1
  Si  Si81  1  0.28134280  0.02252005  0.86966413  1
  Si  Si82  1  0.99543679  0.02327945  0.96579295  1
  Si  Si83  1  0.49539844  0.80183168  0.96583965  1
  P  P84  1  0.65004728  0.87580299  0.08453747  1
  P  P85  1  0.15008671  0.94946386  0.08454731  1
  P  P86  1  0.11241041  0.37114691  0.24999605  1
  P  P87  1  0.61210693  0.45394183  0.24999692  1
  P  P88  1  0.57553575  0.87544399  0.41543330  1
  P  P89  1  0.07540679  0.94911894  0.41546679  1
  P  P90  1  0.07532251  0.44917007  0.58452683  1
  P  P91  1  0.57546274  0.37546850  0.58456999  1
  P  P92  1  0.61204195  0.95414431  0.75000733  1
  P  P93  1  0.11238420  0.87137271  0.74999532  1
  P  P94  1  0.15010390  0.44953832  0.91546032  1
  P  P95  1  0.64993843  0.37595112  0.91547992  1
  O  O96  1  0.90410310  0.59575122  0.06577576  1
  O  O97  1  0.87161160  0.22206100  0.09995932  1
  O  O98  1  0.37174644  0.60256125  0.09991770  1
  O  O99  1  0.40386776  0.22937257  0.06574649  1
  O  O100  1  0.25191989  0.85616384  0.06260558  1
  O  O101  1  0.54179591  0.97230618  0.10411574  1
  O  O102  1  0.04222553  0.85287881  0.10422823  1
  O  O103  1  0.75175366  0.96898673  0.06255835  1
  O  O104  1  0.56910011  0.76397075  0.06221876  1
  O  O105  1  0.23718258  0.03646216  0.11145699  1
  O  O106  1  0.73737934  0.78927609  0.11150069  1
  O  O107  1  0.06884569  0.06083978  0.06217895  1
  O  O108  1  0.16746541  0.57553410  0.03348211  1
  O  O109  1  0.66738369  0.24959312  0.03348225  1
  O  O110  1  0.49264493  0.48097398  0.03860888  1
  O  O111  1  0.99298123  0.34397128  0.03868297  1
  O  O112  1  0.91451846  0.57822463  0.99910901  1
  O  O113  1  0.41452374  0.24660898  0.99909393  1
  O  O114  1  0.36694321  0.10395561  0.23194167  1
  O  O115  1  0.35813078  0.72112795  0.26800249  1
  O  O116  1  0.85874683  0.10364314  0.26804855  1
  O  O117  1  0.86679035  0.72142023  0.23200160  1
  O  O118  1  0.72305982  0.36010423  0.23054552  1
  O  O119  1  0.00133137  0.46462522  0.26949819  1
  O  O120  1  0.50104510  0.36055386  0.26951619  1
  O  O121  1  0.22328004  0.46484755  0.23048768  1
  O  O122  1  0.03728473  0.27156881  0.22328949  1
  O  O123  1  0.68736147  0.55364731  0.27666309  1
  O  O124  1  0.18746862  0.27147353  0.27668422  1
  O  O125  1  0.53717206  0.55347006  0.22326224  1
  O  O126  1  0.64003562  0.05045010  0.21244805  1
  O  O127  1  0.61000946  0.28821236  0.12117175  1
  O  O128  1  0.10996134  0.53688014  0.12117964  1
  O  O129  1  0.13984854  0.77506907  0.21245715  1
  O  O130  1  0.94484578  0.97799857  0.20225054  1
  O  O131  1  0.30539648  0.34437469  0.13240485  1
  O  O132  1  0.80532124  0.48081667  0.13228536  1
  O  O133  1  0.44502623  0.84721103  0.20230684  1
  O  O134  1  0.82481276  0.22620811  0.16619243  1
  O  O135  1  0.42625847  0.09226229  0.16606942  1
  O  O136  1  0.92591824  0.73256974  0.16613987  1
  O  O137  1  0.32474909  0.59956816  0.16612568  1
  O  O138  1  0.85274296  0.60222653  0.40007249  1
  O  O139  1  0.82100555  0.22933346  0.43422663  1
  O  O140  1  0.32106611  0.59551898  0.43424167  1
  O  O141  1  0.35335581  0.22162950  0.40003428  1
  O  O142  1  0.18399502  0.85298454  0.39588086  1
  O  O143  1  0.47336803  0.96868994  0.43727818  1
  O  O144  1  0.97399753  0.85535174  0.43738581  1
  O  O145  1  0.68363140  0.97196223  0.39582135  1
  O  O146  1  0.48875681  0.78806830  0.38850357  1
  O  O147  1  0.15601226  0.06090212  0.43784543  1
  O  O148  1  0.65650212  0.76424091  0.43789829  1
  O  O149  1  0.98802484  0.03576045  0.38853009  1
  O  O150  1  0.11468118  0.53745754  0.37890929  1
  O  O151  1  0.08505024  0.77458559  0.28756410  1
  O  O152  1  0.58548807  0.05072788  0.28745637  1
  O  O153  1  0.61507017  0.28782268  0.37877449  1
  O  O154  1  0.41928965  0.48029700  0.36771814  1
  O  O155  1  0.77988000  0.84703209  0.29768408  1
  O  O156  1  0.28022796  0.97774035  0.29765902  1
  O  O157  1  0.92002485  0.34412548  0.36763841  1
  O  O158  1  0.29902995  0.73274212  0.33389226  1
  O  O159  1  0.89973127  0.59908785  0.33385099  1
  O  O160  1  0.40018529  0.22562862  0.33381367  1
  O  O161  1  0.79902725  0.09208711  0.33391621  1
  O  O162  1  0.55766176  0.24896138  0.46652896  1
  O  O163  1  0.05754522  0.57477965  0.46651196  1
  O  O164  1  0.23245383  0.34369929  0.46132305  1
  O  O165  1  0.73195236  0.48074276  0.46141981  1
  O  O166  1  0.81064018  0.24618252  0.50088761  1
  O  O167  1  0.31045436  0.57808599  0.50088604  1
  O  O168  1  0.82090332  0.72941064  0.56577131  1
  O  O169  1  0.85263698  0.10218411  0.59990386  1
  O  O170  1  0.35324240  0.72177009  0.59996212  1
  O  O171  1  0.32090071  0.09553545  0.56576343  1
  O  O172  1  0.47330858  0.46877318  0.56273144  1
  O  O173  1  0.18389820  0.35302334  0.60411793  1
  O  O174  1  0.68361783  0.47194881  0.60417519  1
  O  O175  1  0.97391046  0.35537298  0.56260622  1
  O  O176  1  0.15596040  0.56092526  0.56215199  1
  O  O177  1  0.48867090  0.28812350  0.61150408  1
  O  O178  1  0.98794268  0.53582469  0.61145895  1
  O  O179  1  0.65639630  0.26425150  0.56209809  1
  O  O180  1  0.55760707  0.74896012  0.53343628  1
  O  O181  1  0.05744070  0.07472591  0.53346989  1
  O  O182  1  0.23240346  0.84370609  0.53867187  1
  O  O183  1  0.73185875  0.98075770  0.53854258  1
  O  O184  1  0.81064106  0.74610439  0.49910382  1
  O  O185  1  0.31045728  0.07812180  0.49911272  1
  O  O186  1  0.35796160  0.22141418  0.73200224  1
  O  O187  1  0.36693240  0.60419337  0.76807107  1
  O  O188  1  0.86670092  0.22154990  0.76800503  1
  O  O189  1  0.85860777  0.60390822  0.73194662  1
  O  O190  1  0.00139901  0.96485428  0.73046000  1
  O  O191  1  0.72300381  0.86035658  0.76946868  1
  O  O192  1  0.22324487  0.96509869  0.76949911  1
  O  O193  1  0.50098136  0.86070480  0.73049831  1
  O  O194  1  0.68731416  0.05376184  0.72332965  1
  O  O195  1  0.03714978  0.77193513  0.77671014  1
  O  O196  1  0.53707996  0.05371923  0.77672956  1
  O  O197  1  0.18740964  0.77157174  0.72332879  1
  O  O198  1  0.08490184  0.27483545  0.71242072  1
  O  O199  1  0.11456102  0.03750664  0.62110873  1
  O  O200  1  0.61496626  0.78786485  0.62122006  1
  O  O201  1  0.58538624  0.55086919  0.71253630  1
  O  O202  1  0.77980239  0.34718189  0.70232737  1
  O  O203  1  0.41925717  0.98043805  0.63228372  1
  O  O204  1  0.91990973  0.84416790  0.63236347  1
  O  O205  1  0.28005868  0.47800454  0.70234470  1
  O  O206  1  0.89957963  0.09923340  0.66613546  1
  O  O207  1  0.29891321  0.23296860  0.66610590  1
  O  O208  1  0.79894400  0.59212646  0.66608052  1
  O  O209  1  0.40007821  0.72577897  0.66618333  1
  O  O210  1  0.87161405  0.72220266  0.90004937  1
  O  O211  1  0.90410015  0.09576684  0.93421250  1
  O  O212  1  0.40385924  0.72945284  0.93426558  1
  O  O213  1  0.37175194  0.10273912  0.90008550  1
  O  O214  1  0.54174342  0.47248813  0.89589015  1
  O  O215  1  0.25189291  0.35617402  0.93739478  1
  O  O216  1  0.75167819  0.46912493  0.93745050  1
  O  O217  1  0.04213779  0.35303207  0.89578459  1
  O  O218  1  0.23725125  0.53648322  0.88854556  1
  O  O219  1  0.56894915  0.26418907  0.93781095  1
  O  O220  1  0.06888200  0.56092062  0.93782922  1
  O  O221  1  0.73722733  0.28932843  0.88852751  1
  O  O222  1  0.60999330  0.78847000  0.87885768  1
  O  O223  1  0.64002596  0.55061795  0.78754976  1
  O  O224  1  0.13972523  0.27524864  0.78754001  1
  O  O225  1  0.10996580  0.03713729  0.87880798  1
  O  O226  1  0.30540088  0.84458223  0.86760079  1
  O  O227  1  0.94483561  0.47827146  0.79771869  1
  O  O228  1  0.44500586  0.34743689  0.79769490  1
  O  O229  1  0.80537466  0.98094769  0.86769760  1
  O  O230  1  0.42625654  0.59243195  0.83393608  1
  O  O231  1  0.82473623  0.72628693  0.83382258  1
  O  O232  1  0.32478670  0.09972339  0.83386934  1
  O  O233  1  0.92580296  0.23293865  0.83386795  1
  O  O234  1  0.16742907  0.07552836  0.96652313  1
  O  O235  1  0.66741012  0.74963113  0.96652863  1
  O  O236  1  0.49266194  0.98105671  0.96140508  1
  O  O237  1  0.99293977  0.84402311  0.96133049  1
  O  O238  1  0.91445714  0.07827379  0.00088406  1
  O  O239  1  0.41459606  0.74665073  0.00092272  1
