# generated using pymatgen
data_Na3Zr2Si2PO12
_symmetry_space_group_name_H-M   'P 1'
_cell_length_a   9.27295600
_cell_length_b   9.15937100
_cell_length_c   39.43506555
_cell_angle_alpha   90.00000000
_cell_angle_beta   90.00000000
_cell_angle_gamma   90.00000000
_symmetry_Int_Tables_number   1
_chemical_formula_structural   Na3Zr2Si2PO12
_chemical_formula_sum   'Na36 Zr24 Si24 P12 O144'
_cell_volume   3349.39537733
_cell_formula_units_Z   12
loop_
 _symmetry_equiv_pos_site_id
 _symmetry_equiv_pos_as_xyz
  1  'x, y, z'
loop_
 _atom_site_type_symbol
 _atom_site_label
 _atom_site_symmetry_multiplicity
 _atom_site_fract_x
 _atom_site_fract_y
 _atom_site_fract_z
 _atom_site_occupancy
  Na  Na0  1  0.74025614  0.69798106  0.02184536  1
  Na  Na1  1  0.24020266  0.25220939  0.02182970  1
  Na  Na2  1  0.65633068  0.58961089  0.09543039  1
  Na  Na3  1  0.15666619  0.36049656  0.09538813  1
  Na  Na4  1  0.31353751  0.33561692  0.18920298  1
  Na  Na5  1  0.93742692  0.05384994  0.14134878  1
  Na  Na6  1  0.43743271  0.89632508  0.14134756  1
  Na  Na7  1  0.81330903  0.61430219  0.18917650  1
  Na  Na8  1  0.16242171  0.07864292  0.25000390  1
  Na  Na9  1  0.66248721  0.87123773  0.24998827  1
  Na  Na10  1  0.88724461  0.89603667  0.35863769  1
  Na  Na11  1  0.51159769  0.61441858  0.31080330  1
  Na  Na12  1  0.01115275  0.33590333  0.31076951  1
  Na  Na13  1  0.38760305  0.05373985  0.35868380  1
  Na  Na14  1  0.66846266  0.58952173  0.40458190  1
  Na  Na15  1  0.16854169  0.36049166  0.40457096  1
  Na  Na16  1  0.08465911  0.25210084  0.47816990  1
  Na  Na17  1  0.58478112  0.69769213  0.47816996  1
  Na  Na18  1  0.08465848  0.75212856  0.52183881  1
  Na  Na19  1  0.58481571  0.19771707  0.52183664  1
  Na  Na20  1  0.16865170  0.86053154  0.59543926  1
  Na  Na21  1  0.66854212  0.08956380  0.59542384  1
  Na  Na22  1  0.51188845  0.11440533  0.68918574  1
  Na  Na23  1  0.88740203  0.39612118  0.64136444  1
  Na  Na24  1  0.38767948  0.55379429  0.64132136  1
  Na  Na25  1  0.01131970  0.83601791  0.68922602  1
  Na  Na26  1  0.66275201  0.37126450  0.75000032  1
  Na  Na27  1  0.16268202  0.57869890  0.74997555  1
  Na  Na28  1  0.93753922  0.55383634  0.85863623  1
  Na  Na29  1  0.31380745  0.83562881  0.81079202  1
  Na  Na30  1  0.81347162  0.11440570  0.81081290  1
  Na  Na31  1  0.43752488  0.39632835  0.85865556  1
  Na  Na32  1  0.15678265  0.86051604  0.90461256  1
  Na  Na33  1  0.65641562  0.08961904  0.90455927  1
  Na  Na34  1  0.74025315  0.19795505  0.97816114  1
  Na  Na35  1  0.24021249  0.75218488  0.97817158  1
  Zr  Zr36  1  0.40962911  0.72660931  0.04800923  1
  Zr  Zr37  1  0.90958261  0.22354309  0.04802153  1
  Zr  Zr38  1  0.87581071  0.22106915  0.21636728  1
  Zr  Zr39  1  0.48048030  0.23267407  0.11621998  1
  Zr  Zr40  1  0.98042792  0.71761100  0.11615963  1
  Zr  Zr41  1  0.37565378  0.72871947  0.21637554  1
  Zr  Zr42  1  0.34459142  0.71755832  0.38379877  1
  Zr  Zr43  1  0.94895832  0.72849168  0.28361201  1
  Zr  Zr44  1  0.44893418  0.22090708  0.28367980  1
  Zr  Zr45  1  0.84450894  0.23255054  0.38378496  1
  Zr  Zr46  1  0.41520220  0.22349856  0.45201065  1
  Zr  Zr47  1  0.91519902  0.72662152  0.45196472  1
  Zr  Zr48  1  0.41524831  0.72354703  0.54799251  1
  Zr  Zr49  1  0.91522868  0.22663283  0.54804108  1
  Zr  Zr50  1  0.94926831  0.22858062  0.71639224  1
  Zr  Zr51  1  0.34467814  0.21756941  0.61619425  1
  Zr  Zr52  1  0.84460669  0.73258522  0.61620805  1
  Zr  Zr53  1  0.44921353  0.72098061  0.71632974  1
  Zr  Zr54  1  0.48066027  0.73266503  0.88379270  1
  Zr  Zr55  1  0.87607760  0.72109028  0.78363189  1
  Zr  Zr56  1  0.37596642  0.22867408  0.78362903  1
  Zr  Zr57  1  0.98052696  0.21761136  0.88382979  1
  Zr  Zr58  1  0.40965532  0.22659042  0.95198677  1
  Zr  Zr59  1  0.90962382  0.72354026  0.95197447  1
  Si  Si60  1  0.04500857  0.58571945  0.03413235  1
  Si  Si61  1  0.54486115  0.36431027  0.03419364  1
  Si  Si62  1  0.51899133  0.08778019  0.20320553  1
  Si  Si63  1  0.83086159  0.36539257  0.13029776  1
  Si  Si64  1  0.33074140  0.58488878  0.13029217  1
  Si  Si65  1  0.01875208  0.86192542  0.20316982  1
  Si  Si66  1  0.99413948  0.58476231  0.36968882  1
  Si  Si67  1  0.30578684  0.86171781  0.29684838  1
  Si  Si68  1  0.80589406  0.08767589  0.29684785  1
  Si  Si69  1  0.49404456  0.36524074  0.36970900  1
  Si  Si70  1  0.77990223  0.36417486  0.46582083  1
  Si  Si71  1  0.27995516  0.58573911  0.46581296  1
  Si  Si72  1  0.77994165  0.86420415  0.53418610  1
  Si  Si73  1  0.27998598  0.08574700  0.53419306  1
  Si  Si74  1  0.30613172  0.36173152  0.70315597  1
  Si  Si75  1  0.99423094  0.08478989  0.63031613  1
  Si  Si76  1  0.49421497  0.86527384  0.63029600  1
  Si  Si77  1  0.80609410  0.58776685  0.70316358  1
  Si  Si78  1  0.83100302  0.86546320  0.86969079  1
  Si  Si79  1  0.51923841  0.58779353  0.79681669  1
  Si  Si80  1  0.01902049  0.36197365  0.79683046  1
  Si  Si81  1  0.33088261  0.08486701  0.86969663  1
  Si  Si82  1  0.04503370  0.08567348  0.96586437  1
  Si  Si83  1  0.54490389  0.86432952  0.96580660  1
  P  P84  1  0.69921829  0.93829394  0.08456091  1
  P  P85  1  0.19932295  0.01204149  0.08455132  1
  P  P86  1  0.16272984  0.43342613  0.25000056  1
  P  P87  1  0.66221580  0.51611694  0.24998339  1
  P  P88  1  0.62555325  0.93828379  0.41544823  1
  P  P89  1  0.12559681  0.01192855  0.41544500  1
  P  P90  1  0.12565818  0.51192094  0.58455786  1
  P  P91  1  0.62562088  0.43832079  0.58455345  1
  P  P92  1  0.66257969  0.01608544  0.75000416  1
  P  P93  1  0.16298935  0.93346687  0.75000119  1
  P  P94  1  0.19942467  0.51205589  0.91544471  1
  P  P95  1  0.69935753  0.43825163  0.91544348  1
  O  O96  1  0.95363610  0.65840383  0.06570117  1
  O  O97  1  0.45348529  0.29196521  0.06576614  1
  O  O98  1  0.30102492  0.91860152  0.06262590  1
  O  O99  1  0.80093544  0.03160963  0.06261494  1
  O  O100  1  0.61830117  0.82657521  0.06220900  1
  O  O101  1  0.11823000  0.12349569  0.06217102  1
  O  O102  1  0.21702726  0.63784603  0.03342399  1
  O  O103  1  0.71686605  0.31224551  0.03347498  1
  O  O104  1  0.54216875  0.54362316  0.03861527  1
  O  O105  1  0.04227884  0.40646116  0.03858284  1
  O  O106  1  0.96396426  0.64082830  0.99905935  1
  O  O107  1  0.46391086  0.30915006  0.99911366  1
  O  O108  1  0.41658246  0.16609713  0.23201135  1
  O  O109  1  0.92140058  0.28468743  0.09995722  1
  O  O110  1  0.42123894  0.66557376  0.09994992  1
  O  O111  1  0.91622144  0.78378619  0.23198007  1
  O  O112  1  0.77300151  0.42252952  0.23042091  1
  O  O113  1  0.59099949  0.03484673  0.10412445  1
  O  O114  1  0.09123188  0.91560765  0.10419017  1
  O  O115  1  0.27365388  0.52694312  0.23047961  1
  O  O116  1  0.08740463  0.33376138  0.22334197  1
  O  O117  1  0.28644719  0.09901630  0.11146464  1
  O  O118  1  0.78634413  0.85159533  0.11152519  1
  O  O119  1  0.58694996  0.61586542  0.22333695  1
  O  O120  1  0.68964112  0.11243494  0.21243911  1
  O  O121  1  0.65955098  0.35062638  0.12112791  1
  O  O122  1  0.15943354  0.59963620  0.12112837  1
  O  O123  1  0.18929419  0.83701332  0.21249243  1
  O  O124  1  0.99447877  0.04031917  0.20221948  1
  O  O125  1  0.35481608  0.40696233  0.13228867  1
  O  O126  1  0.85475954  0.54340222  0.13222943  1
  O  O127  1  0.49447924  0.90944081  0.20230046  1
  O  O128  1  0.87442603  0.28883187  0.16616916  1
  O  O129  1  0.47577377  0.15468521  0.16611358  1
  O  O130  1  0.97551208  0.79513108  0.16608378  1
  O  O131  1  0.37420151  0.66174775  0.16613202  1
  O  O132  1  0.90360062  0.66557816  0.40002171  1
  O  O133  1  0.40808237  0.78359591  0.26801183  1
  O  O134  1  0.90823018  0.16599797  0.26799593  1
  O  O135  1  0.40361713  0.28471097  0.40008011  1
  O  O136  1  0.23391598  0.91548689  0.39588326  1
  O  O137  1  0.05178703  0.52730536  0.26945749  1
  O  O138  1  0.55147521  0.42247315  0.26953125  1
  O  O139  1  0.73362689  0.03466293  0.39579723  1
  O  O140  1  0.53828256  0.85155247  0.38851506  1
  O  O141  1  0.73770635  0.61568214  0.27664530  1
  O  O142  1  0.23779733  0.33400017  0.27673748  1
  O  O143  1  0.03841920  0.09862973  0.38848503  1
  O  O144  1  0.16541982  0.59977055  0.37882503  1
  O  O145  1  0.13516652  0.83688285  0.28768546  1
  O  O146  1  0.63528880  0.11263141  0.28764076  1
  O  O147  1  0.66536766  0.35044351  0.37888056  1
  O  O148  1  0.47009272  0.54320953  0.36768503  1
  O  O149  1  0.83024154  0.90933779  0.29775223  1
  O  O150  1  0.33010805  0.04019407  0.29773421  1
  O  O151  1  0.97035480  0.40675900  0.36775172  1
  O  O152  1  0.34962498  0.79536623  0.33393204  1
  O  O153  1  0.95004519  0.66106161  0.33381922  1
  O  O154  1  0.45050747  0.28833457  0.33387636  1
  O  O155  1  0.84941234  0.15463695  0.33390048  1
  O  O156  1  0.87123761  0.29156578  0.43424409  1
  O  O157  1  0.37131745  0.65807109  0.43422264  1
  O  O158  1  0.52396356  0.03164234  0.43741356  1
  O  O159  1  0.02382690  0.91856304  0.43737602  1
  O  O160  1  0.20640371  0.12370204  0.43780614  1
  O  O161  1  0.70646282  0.82657464  0.43779353  1
  O  O162  1  0.60792549  0.31206597  0.46654871  1
  O  O163  1  0.10797762  0.63798370  0.46650954  1
  O  O164  1  0.28275930  0.40644101  0.46142684  1
  O  O165  1  0.78267224  0.54343270  0.46136288  1
  O  O166  1  0.86083818  0.30888373  0.50089947  1
  O  O167  1  0.36095390  0.64081373  0.50088813  1
  O  O168  1  0.87132159  0.79155397  0.56574886  1
  O  O169  1  0.37143796  0.15807169  0.56576718  1
  O  O170  1  0.52403538  0.53165936  0.56258191  1
  O  O171  1  0.02388717  0.41860909  0.56261733  1
  O  O172  1  0.20650409  0.62369574  0.56220712  1
  O  O173  1  0.70656171  0.32661608  0.56220979  1
  O  O174  1  0.60796500  0.81210359  0.53345473  1
  O  O175  1  0.10800077  0.13798531  0.53348375  1
  O  O176  1  0.28274629  0.90644987  0.53858604  1
  O  O177  1  0.78271344  0.04345124  0.53865698  1
  O  O178  1  0.86081470  0.80894293  0.49909819  1
  O  O179  1  0.36095604  0.14080041  0.49911322  1
  O  O180  1  0.40847376  0.28360048  0.73198902  1
  O  O181  1  0.90365618  0.16557438  0.59998079  1
  O  O182  1  0.40372675  0.78476563  0.59992633  1
  O  O183  1  0.90845602  0.66617971  0.73199439  1
  O  O184  1  0.05211633  0.02740283  0.73054279  1
  O  O185  1  0.23396631  0.41546145  0.60412499  1
  O  O186  1  0.73368948  0.53470314  0.60420813  1
  O  O187  1  0.55174891  0.92252770  0.73046321  1
  O  O188  1  0.73810839  0.11561595  0.72334285  1
  O  O189  1  0.53836362  0.35155840  0.61148411  1
  O  O190  1  0.03850410  0.59863049  0.61151712  1
  O  O191  1  0.23800959  0.83403773  0.72325991  1
  O  O192  1  0.13552358  0.33691001  0.71234385  1
  O  O193  1  0.16550974  0.09978841  0.62115965  1
  O  O194  1  0.66551565  0.85053636  0.62111018  1
  O  O195  1  0.63548381  0.61254840  0.71238296  1
  O  O196  1  0.83057803  0.40943114  0.70226227  1
  O  O197  1  0.47017937  0.04321635  0.63231453  1
  O  O198  1  0.97042479  0.90679415  0.63224676  1
  O  O199  1  0.33040832  0.54022830  0.70228690  1
  O  O200  1  0.95020586  0.16110035  0.66618414  1
  O  O201  1  0.34982825  0.29537164  0.66607222  1
  O  O202  1  0.84950012  0.65467533  0.66609469  1
  O  O203  1  0.45079056  0.78834783  0.66613079  1
  O  O204  1  0.92148200  0.78476021  0.90004308  1
  O  O205  1  0.41700588  0.66622883  0.76799467  1
  O  O206  1  0.91648128  0.28389084  0.76801932  1
  O  O207  1  0.42127405  0.16557893  0.90004974  1
  O  O208  1  0.59115090  0.53484413  0.89588719  1
  O  O209  1  0.77341156  0.92250599  0.76955359  1
  O  O210  1  0.27397129  0.02695307  0.76952125  1
  O  O211  1  0.09132092  0.41563388  0.89580678  1
  O  O212  1  0.28662423  0.59898338  0.88853443  1
  O  O213  1  0.08768918  0.83381980  0.77666431  1
  O  O214  1  0.58732491  0.11584199  0.77664988  1
  O  O215  1  0.78645071  0.35157730  0.88846839  1
  O  O216  1  0.65968572  0.85067176  0.87885956  1
  O  O217  1  0.68990563  0.61254780  0.78758824  1
  O  O218  1  0.18959877  0.33691930  0.78752724  1
  O  O219  1  0.15955221  0.09965341  0.87883570  1
  O  O220  1  0.35495743  0.90693328  0.86771552  1
  O  O221  1  0.99487085  0.54038475  0.79775821  1
  O  O222  1  0.49474437  0.40946512  0.79770532  1
  O  O223  1  0.85479591  0.04347986  0.86774217  1
  O  O224  1  0.47601724  0.65465772  0.83390886  1
  O  O225  1  0.87473097  0.78883947  0.83383166  1
  O  O226  1  0.37456313  0.16167952  0.83386634  1
  O  O227  1  0.97572465  0.29527224  0.83391917  1
  O  O228  1  0.95375394  0.15830000  0.93427408  1
  O  O229  1  0.45352175  0.79197505  0.93423361  1
  O  O230  1  0.30108999  0.41860571  0.93737831  1
  O  O231  1  0.80108344  0.53155055  0.93739057  1
  O  O232  1  0.61845022  0.32651965  0.93779081  1
  O  O233  1  0.11831711  0.62353108  0.93781663  1
  O  O234  1  0.21707265  0.13779068  0.96658056  1
  O  O235  1  0.71688410  0.81223442  0.96651621  1
  O  O236  1  0.54223369  0.04362441  0.96138760  1
  O  O237  1  0.04233781  0.90643036  0.96142496  1
  O  O238  1  0.96395965  0.14087880  0.00092508  1
  O  O239  1  0.46393683  0.80915199  0.00088360  1
