# generated using pymatgen
data_Na3Zr2Si2PO12
_symmetry_space_group_name_H-M   'P 1'
_cell_length_a   9.27295600
_cell_length_b   9.15937100
_cell_length_c   39.43600171
_cell_angle_alpha   90.00000000
_cell_angle_beta   90.00000000
_cell_angle_gamma   90.00000000
_symmetry_Int_Tables_number   1
_chemical_formula_structural   Na3Zr2Si2PO12
_chemical_formula_sum   'Na36 Zr24 Si24 P12 O144'
_cell_volume   3349.47488970
_cell_formula_units_Z   12
loop_
 _symmetry_equiv_pos_site_id
 _symmetry_equiv_pos_as_xyz
  1  'x, y, z'
loop_
 _atom_site_type_symbol
 _atom_site_label
 _atom_site_symmetry_multiplicity
 _atom_site_fract_x
 _atom_site_fract_y
 _atom_site_fract_z
 _atom_site_occupancy
  Na  Na0  1  0.70358570  0.71662223  0.02170506  1
  Na  Na1  1  0.20334063  0.95850258  0.02172546  1
  Na  Na2  1  0.55342407  0.44821575  0.08724808  1
  Na  Na3  1  0.05335375  0.22709377  0.08722483  1
  Na  Na4  1  0.18628339  0.19931513  0.18829557  1
  Na  Na5  1  0.81659907  0.91979582  0.14177842  1
  Na  Na6  1  0.31646462  0.75570941  0.14180610  1
  Na  Na7  1  0.68589838  0.47670519  0.18827219  1
  Na  Na8  1  0.03823685  0.94184447  0.24998276  1
  Na  Na9  1  0.53831877  0.73401704  0.24996148  1
  Na  Na10  1  0.75947226  0.75600430  0.35823727  1
  Na  Na11  1  0.39097507  0.47738275  0.31183075  1
  Na  Na12  1  0.89074389  0.19906106  0.31184883  1
  Na  Na13  1  0.25958229  0.91955527  0.35818925  1
  Na  Na14  1  0.52222327  0.44866479  0.41266707  1
  Na  Na15  1  0.02243429  0.22727383  0.41268253  1
  Na  Na16  1  0.87241749  0.95963638  0.47819446  1
  Na  Na17  1  0.37215933  0.71596588  0.47827292  1
  Na  Na18  1  0.87172562  0.45832411  0.52171543  1
  Na  Na19  1  0.37174217  0.21613926  0.52174613  1
  Na  Na20  1  0.02162351  0.72675172  0.58722940  1
  Na  Na21  1  0.52157040  0.94806479  0.58731537  1
  Na  Na22  1  0.38976956  0.97668977  0.68822931  1
  Na  Na23  1  0.75889213  0.25550050  0.64181530  1
  Na  Na24  1  0.25858768  0.41918485  0.64182679  1
  Na  Na25  1  0.88912379  0.69865423  0.68825510  1
  Na  Na26  1  0.53688817  0.23347503  0.75002147  1
  Na  Na27  1  0.03689680  0.44140305  0.75001970  1
  Na  Na28  1  0.81590208  0.41926077  0.85819447  1
  Na  Na29  1  0.18458552  0.69866431  0.81179466  1
  Na  Na30  1  0.68438016  0.97650293  0.81177721  1
  Na  Na31  1  0.31545986  0.25540913  0.85821655  1
  Na  Na32  1  0.05258482  0.72673266  0.91270145  1
  Na  Na33  1  0.55238586  0.94808416  0.91258380  1
  Na  Na34  1  0.70270402  0.21523507  0.97815215  1
  Na  Na35  1  0.20265585  0.45938694  0.97819780  1
  Zr  Zr36  1  0.28668977  0.58496313  0.04864363  1
  Zr  Zr37  1  0.36036523  0.09450004  0.11651150  1
  Zr  Zr38  1  0.86041748  0.58059160  0.11649582  1
  Zr  Zr39  1  0.78658425  0.09012685  0.04867237  1
  Zr  Zr40  1  0.75159193  0.08453801  0.21641188  1
  Zr  Zr41  1  0.82472654  0.59121265  0.28360963  1
  Zr  Zr42  1  0.32484925  0.08457989  0.28361235  1
  Zr  Zr43  1  0.25148782  0.59121866  0.21636644  1
  Zr  Zr44  1  0.21515522  0.58074835  0.38348811  1
  Zr  Zr45  1  0.28866345  0.09010349  0.45135071  1
  Zr  Zr46  1  0.78874883  0.58515151  0.45136201  1
  Zr  Zr47  1  0.71516175  0.09469118  0.38350055  1
  Zr  Zr48  1  0.28851860  0.58974757  0.54870025  1
  Zr  Zr49  1  0.21456839  0.08019430  0.61653057  1
  Zr  Zr50  1  0.71456755  0.59408870  0.61651632  1
  Zr  Zr51  1  0.78836959  0.08467389  0.54867540  1
  Zr  Zr52  1  0.82343138  0.09063759  0.71638737  1
  Zr  Zr53  1  0.75013556  0.58392597  0.78360566  1
  Zr  Zr54  1  0.25027092  0.09057462  0.78360253  1
  Zr  Zr55  1  0.32345237  0.58399742  0.71642128  1
  Zr  Zr56  1  0.35974754  0.59414379  0.88347900  1
  Zr  Zr57  1  0.28613536  0.08483726  0.95133566  1
  Zr  Zr58  1  0.78610177  0.58981498  0.95131738  1
  Zr  Zr59  1  0.85974545  0.08022155  0.88347938  1
  Si  Si60  1  0.91608501  0.45659926  0.03375573  1
  Si  Si61  1  0.71262373  0.22702637  0.12966663  1
  Si  Si62  1  0.21281274  0.44812241  0.12962607  1
  Si  Si63  1  0.41595869  0.21835464  0.03378215  1
  Si  Si64  1  0.39517875  0.95121613  0.20338339  1
  Si  Si65  1  0.18126442  0.72451317  0.29659628  1
  Si  Si66  1  0.68155603  0.95123375  0.29662103  1
  Si  Si67  1  0.89523218  0.72459567  0.20332075  1
  Si  Si68  1  0.86261064  0.44858349  0.37038587  1
  Si  Si69  1  0.65923136  0.21825895  0.46617622  1
  Si  Si70  1  0.15917333  0.45654571  0.46622641  1
  Si  Si71  1  0.36295861  0.22720749  0.37035567  1
  Si  Si72  1  0.65911563  0.71798302  0.53384554  1
  Si  Si73  1  0.86198545  0.94783087  0.62965861  1
  Si  Si74  1  0.36225183  0.72667196  0.62968700  1
  Si  Si75  1  0.15895921  0.95620699  0.53378543  1
  Si  Si76  1  0.17993794  0.22396263  0.70337870  1
  Si  Si77  1  0.39346519  0.45061585  0.79659456  1
  Si  Si78  1  0.89387399  0.22387565  0.79660308  1
  Si  Si79  1  0.68008677  0.45069232  0.70341450  1
  Si  Si80  1  0.71194916  0.72669053  0.87033311  1
  Si  Si81  1  0.91574169  0.95624536  0.96620362  1
  Si  Si82  1  0.41567961  0.71815324  0.96613204  1
  Si  Si83  1  0.21211444  0.94791527  0.87035861  1
  P  P84  1  0.57445263  0.79795611  0.08561320  1
  P  P85  1  0.07432687  0.87707236  0.08557933  1
  P  P86  1  0.03803154  0.29621431  0.25002167  1
  P  P87  1  0.53781868  0.37974522  0.25000868  1
  P  P88  1  0.50104745  0.79829598  0.41441014  1
  P  P89  1  0.00122197  0.87713825  0.41444448  1
  P  P90  1  0.00083751  0.37671314  0.58555141  1
  P  P91  1  0.50065062  0.29752054  0.58562759  1
  P  P92  1  0.53687019  0.87918269  0.75001535  1
  P  P93  1  0.03677972  0.79560614  0.75002936  1
  P  P94  1  0.07368389  0.37667535  0.91444165  1
  P  P95  1  0.57389981  0.29779289  0.91435664  1
  O  O96  1  0.83252012  0.54068188  0.06495664  1
  O  O97  1  0.80949425  0.14575432  0.10050716  1
  O  O98  1  0.30998942  0.52933601  0.10050785  1
  O  O99  1  0.33242349  0.13437223  0.06498610  1
  O  O100  1  0.17699731  0.78012863  0.06404569  1
  O  O101  1  0.46513692  0.89175107  0.10524935  1
  O  O102  1  0.96477663  0.78358109  0.10522045  1
  O  O103  1  0.67745210  0.89464454  0.06410937  1
  O  O104  1  0.49880157  0.69093393  0.06094624  1
  O  O105  1  0.16232631  0.96398121  0.11212266  1
  O  O106  1  0.66199824  0.71047243  0.11213929  1
  O  O107  1  0.99891442  0.98449925  0.06097043  1
  O  O108  1  0.09147881  0.49523067  0.03373012  1
  O  O109  1  0.54270876  0.20887367  0.11889889  1
  O  O110  1  0.04297775  0.46654454  0.11881042  1
  O  O111  1  0.59135726  0.17977146  0.03376684  1
  O  O112  1  0.39686202  0.39617167  0.03814874  1
  O  O113  1  0.23527461  0.27011915  0.13095326  1
  O  O114  1  0.73538378  0.40500927  0.13098655  1
  O  O115  1  0.89708518  0.27876867  0.03816904  1
  O  O116  1  0.83374579  0.50869202  0.99863901  1
  O  O117  1  0.33369395  0.16612090  0.99866299  1
  O  O118  1  0.29207187  0.02944146  0.23203652  1
  O  O119  1  0.28448139  0.64657470  0.26793831  1
  O  O120  1  0.78503328  0.02896859  0.26796549  1
  O  O121  1  0.79218008  0.64669142  0.23204083  1
  O  O122  1  0.64881815  0.28580546  0.23060587  1
  O  O123  1  0.92698307  0.38968826  0.26952060  1
  O  O124  1  0.42681228  0.28643629  0.26956862  1
  O  O125  1  0.14908882  0.38995907  0.23060233  1
  O  O126  1  0.96300261  0.19699597  0.22322578  1
  O  O127  1  0.61281312  0.47972217  0.27666334  1
  O  O128  1  0.11295860  0.19649070  0.27672910  1
  O  O129  1  0.46295097  0.47895945  0.22319078  1
  O  O130  1  0.56564838  0.97523282  0.21278562  1
  O  O131  1  0.01070422  0.70040327  0.28726743  1
  O  O132  1  0.51106900  0.97580332  0.28723973  1
  O  O133  1  0.06576160  0.70083583  0.21268694  1
  O  O134  1  0.86980281  0.90287478  0.20205467  1
  O  O135  1  0.70632358  0.77283799  0.29788109  1
  O  O136  1  0.20653857  0.90282092  0.29781591  1
  O  O137  1  0.36997776  0.77285999  0.20214142  1
  O  O138  1  0.74901366  0.15315564  0.16630157  1
  O  O139  1  0.35373112  0.01974116  0.16632620  1
  O  O140  1  0.85389640  0.65550099  0.16631542  1
  O  O141  1  0.24901875  0.52200115  0.16628308  1
  O  O142  1  0.76560380  0.53027552  0.39944951  1
  O  O143  1  0.74294960  0.13369718  0.43507523  1
  O  O144  1  0.24280554  0.54065832  0.43503794  1
  O  O145  1  0.26617563  0.14594805  0.39952518  1
  O  O146  1  0.11080631  0.78371499  0.39478100  1
  O  O147  1  0.39799227  0.89473418  0.43594871  1
  O  O148  1  0.89880728  0.78027248  0.43606107  1
  O  O149  1  0.60989617  0.89215312  0.39464743  1
  O  O150  1  0.41352876  0.71041154  0.38795573  1
  O  O151  1  0.07666987  0.98473028  0.43900194  1
  O  O152  1  0.57714140  0.69165120  0.43907973  1
  O  O153  1  0.91305370  0.96394370  0.38792306  1
  O  O154  1  0.03254220  0.46686455  0.38114384  1
  O  O155  1  0.48391708  0.17966149  0.46624418  1
  O  O156  1  0.98387426  0.49528463  0.46626859  1
  O  O157  1  0.53292899  0.20924496  0.38110076  1
  O  O158  1  0.34016322  0.40514470  0.36900749  1
  O  O159  1  0.17817371  0.27877470  0.46178924  1
  O  O160  1  0.67848375  0.39602961  0.46160735  1
  O  O161  1  0.84014919  0.27052623  0.36917038  1
  O  O162  1  0.22236747  0.65586987  0.33367601  1
  O  O163  1  0.82647558  0.52209487  0.33369835  1
  O  O164  1  0.32664038  0.15304949  0.33374871  1
  O  O165  1  0.72264246  0.01995240  0.33368165  1
  O  O166  1  0.74128511  0.16658705  0.50136490  1
  O  O167  1  0.24151539  0.50833689  0.50136884  1
  O  O168  1  0.74278376  0.63365691  0.56498275  1
  O  O169  1  0.76511534  0.02938245  0.60054756  1
  O  O170  1  0.26530624  0.64552696  0.60052100  1
  O  O171  1  0.24257192  0.04011648  0.56501275  1
  O  O172  1  0.39760262  0.39418838  0.56413102  1
  O  O173  1  0.11036951  0.28319057  0.60520460  1
  O  O174  1  0.60978941  0.39132763  0.60531463  1
  O  O175  1  0.89831260  0.27971768  0.56399449  1
  O  O176  1  0.07628593  0.48410679  0.56094617  1
  O  O177  1  0.41313329  0.20983442  0.61211372  1
  O  O178  1  0.91272066  0.46358388  0.61208047  1
  O  O179  1  0.57651049  0.19076773  0.56094470  1
  O  O180  1  0.48383554  0.67914949  0.53380894  1
  O  O181  1  0.03193874  0.96627440  0.61892955  1
  O  O182  1  0.53217381  0.70843945  0.61888878  1
  O  O183  1  0.98357806  0.99470823  0.53378754  1
  O  O184  1  0.17821754  0.77844785  0.53817006  1
  O  O185  1  0.33963954  0.90460560  0.63104735  1
  O  O186  1  0.83952888  0.76982158  0.63092360  1
  O  O187  1  0.67810053  0.89578923  0.53830396  1
  O  O188  1  0.74120184  0.66615156  0.49868665  1
  O  O189  1  0.24114038  0.00860113  0.49866899  1
  O  O190  1  0.28314711  0.14606423  0.73205216  1
  O  O191  1  0.28995100  0.52849690  0.76797190  1
  O  O192  1  0.79049322  0.14596604  0.76795852  1
  O  O193  1  0.78346028  0.52861976  0.73205748  1
  O  O194  1  0.92577703  0.88932598  0.73058136  1
  O  O195  1  0.64794870  0.78560683  0.76948323  1
  O  O196  1  0.14795711  0.88917663  0.76946010  1
  O  O197  1  0.42578254  0.78556517  0.73056401  1
  O  O198  1  0.61175516  0.97872262  0.72325756  1
  O  O199  1  0.96174988  0.69622137  0.77679074  1
  O  O200  1  0.46197711  0.97878946  0.77676082  1
  O  O201  1  0.11165719  0.69601349  0.72328722  1
  O  O202  1  0.00938355  0.19978739  0.71267884  1
  O  O203  1  0.56397153  0.47501018  0.78718415  1
  O  O204  1  0.06433817  0.19985390  0.78720138  1
  O  O205  1  0.50958623  0.47498947  0.71283217  1
  O  O206  1  0.70503457  0.27234339  0.70214492  1
  O  O207  1  0.86852174  0.40219564  0.79785805  1
  O  O208  1  0.36854818  0.27229165  0.79787053  1
  O  O209  1  0.20510890  0.40232201  0.70215155  1
  O  O210  1  0.82544230  0.02150816  0.66631492  1
  O  O211  1  0.22150611  0.15535964  0.66633335  1
  O  O212  1  0.72143316  0.51937484  0.66635985  1
  O  O213  1  0.32585010  0.65252904  0.66630015  1
  O  O214  1  0.80894916  0.64543724  0.89947105  1
  O  O215  1  0.83197294  0.04044569  0.93504385  1
  O  O216  1  0.33193321  0.63359695  0.93503801  1
  O  O217  1  0.30905775  0.02964734  0.89942559  1
  O  O218  1  0.46479426  0.39154776  0.89465261  1
  O  O219  1  0.17621528  0.27993232  0.93605625  1
  O  O220  1  0.67674747  0.39437160  0.93591641  1
  O  O221  1  0.96424968  0.28310437  0.89478085  1
  O  O222  1  0.16179751  0.46354354  0.88791711  1
  O  O223  1  0.49798864  0.19079911  0.93897595  1
  O  O224  1  0.99812642  0.48419129  0.93899310  1
  O  O225  1  0.66161985  0.21030586  0.88786688  1
  O  O226  1  0.54202758  0.70857731  0.88112264  1
  O  O227  1  0.09110769  0.99483780  0.96623522  1
  O  O228  1  0.59102052  0.67960036  0.96620562  1
  O  O229  1  0.04217596  0.96606094  0.88113001  1
  O  O230  1  0.23476984  0.76993331  0.86910604  1
  O  O231  1  0.39654147  0.89589862  0.96158822  1
  O  O232  1  0.89672759  0.77849896  0.96175239  1
  O  O233  1  0.73458280  0.90465442  0.86899639  1
  O  O234  1  0.35238974  0.51938594  0.83365318  1
  O  O235  1  0.74814209  0.65255519  0.83371755  1
  O  O236  1  0.24822016  0.02163714  0.83368850  1
  O  O237  1  0.85285974  0.15510335  0.83366382  1
  O  O238  1  0.83358364  0.00816318  0.00136677  1
  O  O239  1  0.33354920  0.66667060  0.00131979  1
