# generated using pymatgen
data_Na9Zr6Si5P3O34
_symmetry_space_group_name_H-M   'P 1'
_cell_length_a   9.15937100
_cell_length_b   16.04975191
_cell_length_c   54.83816308
_cell_angle_alpha   90.00000000
_cell_angle_beta   90.00000000
_cell_angle_gamma   55.20191359
_symmetry_Int_Tables_number   1
_chemical_formula_structural   Na9Zr6Si5P3O34
_chemical_formula_sum   'Na72 Zr48 Si40 P24 O272'
_cell_volume   6619.86346815
_cell_formula_units_Z   8
loop_
 _symmetry_equiv_pos_site_id
 _symmetry_equiv_pos_as_xyz
  1  'x, y, z'
loop_
 _atom_site_type_symbol
 _atom_site_label
 _atom_site_symmetry_multiplicity
 _atom_site_fract_x
 _atom_site_fract_y
 _atom_site_fract_z
 _atom_site_occupancy
  Na  Na0  1  0.77319317  0.80934172  0.08578472  1
  Na  Na1  1  0.64723239  0.23139172  0.01726124  1
  Na  Na2  1  0.12965363  0.18830243  0.04750138  1
  Na  Na3  1  0.18031169  0.67776929  0.14666930  1
  Na  Na4  1  0.46336869  0.17803957  0.14655955  1
  Na  Na5  1  0.49269575  0.68830799  0.04743325  1
  Na  Na6  1  0.89019355  0.73124076  0.01725206  1
  Na  Na7  1  0.60653762  0.30906047  0.08588290  1
  Na  Na8  1  0.91518102  0.97409249  0.12062707  1
  Na  Na9  1  0.94716474  0.44162297  0.03176560  1
  Na  Na10  1  0.16764066  0.94183526  0.03162360  1
  Na  Na11  1  0.13454230  0.47404921  0.12068348  1
  Na  Na12  1  0.74249863  0.84201459  0.25411628  1
  Na  Na13  1  0.77276305  0.32291027  0.17253362  1
  Na  Na14  1  0.16089548  0.19587306  0.23071754  1
  Na  Na15  1  0.14062338  0.71460851  0.31569877  1
  Na  Na16  1  0.42541320  0.21432753  0.31598889  1
  Na  Na17  1  0.44567511  0.69699886  0.23032396  1
  Na  Na18  1  0.58400749  0.82360469  0.17009386  1
  Na  Na19  1  0.56802121  0.34183893  0.25480871  1
  Na  Na20  1  0.87262558  0.01501104  0.29193011  1
  Na  Na21  1  0.88859490  0.50148502  0.20713715  1
  Na  Na22  1  0.10880157  0.99991393  0.20704782  1
  Na  Na23  1  0.09441531  0.51471102  0.29177245  1
  Na  Na24  1  0.80716297  0.85275363  0.45305724  1
  Na  Na25  1  0.72692658  0.35845035  0.33826857  1
  Na  Na26  1  0.13687551  0.22596640  0.40238953  1
  Na  Na27  1  0.22534222  0.79253123  0.46621668  1
  Na  Na28  1  0.18572420  0.29437323  0.46654459  1
  Na  Na29  1  0.40968810  0.72811958  0.40091868  1
  Na  Na30  1  0.55447999  0.85820998  0.33779917  1
  Na  Na31  1  0.48475796  0.35168678  0.45290223  1
  Na  Na32  1  0.86674547  0.04038548  0.46201073  1
  Na  Na33  1  0.85408717  0.53634686  0.37742544  1
  Na  Na34  1  0.06726250  0.03865373  0.37763668  1
  Na  Na35  1  0.04799028  0.54233945  0.46198898  1
  Na  Na36  1  0.40224055  0.51648394  0.58557340  1
  Na  Na37  1  0.52646978  0.09522262  0.51675814  1
  Na  Na38  1  0.04690145  0.13664626  0.54721389  1
  Na  Na39  1  0.99559131  0.64788688  0.64646365  1
  Na  Na40  1  0.71247251  0.14781992  0.64624560  1
  Na  Na41  1  0.68369299  0.63724688  0.54730311  1
  Na  Na42  1  0.28386997  0.59323843  0.51761035  1
  Na  Na43  1  0.56852792  0.01679528  0.58565214  1
  Na  Na44  1  0.25964955  0.35257525  0.62032272  1
  Na  Na45  1  0.22959377  0.88158084  0.53188709  1
  Na  Na46  1  0.00852332  0.38346414  0.53155218  1
  Na  Na47  1  0.04038528  0.85219648  0.62033309  1
  Na  Na48  1  0.43176641  0.48311549  0.75387885  1
  Na  Na49  1  0.40421830  0.00264407  0.67157063  1
  Na  Na50  1  0.01434111  0.12906806  0.73043958  1
  Na  Na51  1  0.03384477  0.61013216  0.81560009  1
  Na  Na52  1  0.74909649  0.11022903  0.81580082  1
  Na  Na53  1  0.72943897  0.62860685  0.73023208  1
  Na  Na54  1  0.59144277  0.50205225  0.67009945  1
  Na  Na55  1  0.60543983  0.98308048  0.75416261  1
  Na  Na56  1  0.30224437  0.30985680  0.79165220  1
  Na  Na57  1  0.28635240  0.82449452  0.70687998  1
  Na  Na58  1  0.06714725  0.32492052  0.70685531  1
  Na  Na59  1  0.08015754  0.80998091  0.79163268  1
  Na  Na60  1  0.36530737  0.47295969  0.95332321  1
  Na  Na61  1  0.44866176  0.96585029  0.83793700  1
  Na  Na62  1  0.04208472  0.09680797  0.90142994  1
  Na  Na63  1  0.95033176  0.53079710  0.96646441  1
  Na  Na64  1  0.98750740  0.03092294  0.96636715  1
  Na  Na65  1  0.76584928  0.59714748  0.90164358  1
  Na  Na66  1  0.62150663  0.46592617  0.83797809  1
  Na  Na67  1  0.68945893  0.97247029  0.95315596  1
  Na  Na68  1  0.31002850  0.28241833  0.96184716  1
  Na  Na69  1  0.32185846  0.78712335  0.87735449  1
  Na  Na70  1  0.10532894  0.28722406  0.87732356  1
  Na  Na71  1  0.12555497  0.78229574  0.96195823  1
  Zr  Zr72  1  0.76735653  0.97598008  0.01874061  1
  Zr  Zr73  1  0.88311569  0.37814710  0.08839703  1
  Zr  Zr74  1  0.14869064  0.09671249  0.15792645  1
  Zr  Zr75  1  0.16043050  0.58239869  0.07317963  1
  Zr  Zr76  1  0.67363096  0.08229291  0.07308970  1
  Zr  Zr77  1  0.65596068  0.59662406  0.15795154  1
  Zr  Zr78  1  0.35868283  0.87812043  0.08831637  1
  Zr  Zr79  1  0.27936803  0.47593855  0.01884737  1
  Zr  Zr80  1  0.85434118  0.90084425  0.17357813  1
  Zr  Zr81  1  0.83925959  0.41639696  0.25864276  1
  Zr  Zr82  1  0.11353616  0.13169802  0.32819681  1
  Zr  Zr83  1  0.12918704  0.61531545  0.24325867  1
  Zr  Zr84  1  0.63730560  0.11511755  0.24325702  1
  Zr  Zr85  1  0.61989283  0.63156916  0.32827274  1
  Zr  Zr86  1  0.32444111  0.91628987  0.25884481  1
  Zr  Zr87  1  0.34227624  0.40067106  0.17344600  1
  Zr  Zr88  1  0.81920935  0.93483191  0.34432608  1
  Zr  Zr89  1  0.80591031  0.44675567  0.42818968  1
  Zr  Zr90  1  0.19327002  0.05303807  0.48238838  1
  Zr  Zr91  1  0.08661227  0.65599774  0.41317166  1
  Zr  Zr92  1  0.59874952  0.15604904  0.41298505  1
  Zr  Zr93  1  0.69674912  0.55357761  0.48254255  1
  Zr  Zr94  1  0.29775388  0.94675731  0.42808389  1
  Zr  Zr95  1  0.30716719  0.43504935  0.34427024  1
  Zr  Zr96  1  0.40954434  0.34870964  0.51845357  1
  Zr  Zr97  1  0.29219805  0.94779766  0.58816155  1
  Zr  Zr98  1  0.02666068  0.22904678  0.65772481  1
  Zr  Zr99  1  0.01511031  0.74359527  0.57282163  1
  Zr  Zr100  1  0.50226453  0.24353902  0.57299215  1
  Zr  Zr101  1  0.51927225  0.72903351  0.65767728  1
  Zr  Zr102  1  0.81676046  0.44770674  0.58808984  1
  Zr  Zr103  1  0.89462452  0.85081509  0.51856732  1
  Zr  Zr104  1  0.32065650  0.42484307  0.67336928  1
  Zr  Zr105  1  0.33492653  0.90872340  0.75857747  1
  Zr  Zr106  1  0.06170367  0.19267808  0.82799167  1
  Zr  Zr107  1  0.04544881  0.70991881  0.74298446  1
  Zr  Zr108  1  0.53763420  0.20996305  0.74300277  1
  Zr  Zr109  1  0.55524982  0.69261849  0.82806329  1
  Zr  Zr110  1  0.84982049  0.40877300  0.75861453  1
  Zr  Zr111  1  0.83318269  0.92483017  0.67324423  1
  Zr  Zr112  1  0.35547430  0.38958920  0.84417194  1
  Zr  Zr113  1  0.36887441  0.87707820  0.92806462  1
  Zr  Zr114  1  0.98213641  0.27057895  0.98239977  1
  Zr  Zr115  1  0.08840540  0.66806620  0.91299602  1
  Zr  Zr116  1  0.57651651  0.16804928  0.91300727  1
  Zr  Zr117  1  0.47645063  0.77093891  0.98242653  1
  Zr  Zr118  1  0.87759011  0.37712405  0.92803696  1
  Zr  Zr119  1  0.86724070  0.88948198  0.84417328  1
  Si  Si120  1  0.03723218  0.35164595  0.14921243  1
  Si  Si121  1  0.04821562  0.83581347  0.06240299  1
  Si  Si122  1  0.99443523  0.12167875  0.09684847  1
  Si  Si123  1  0.76083421  0.62165595  0.09691212  1
  Si  Si124  1  0.27885764  0.33585202  0.06248834  1
  Si  Si125  1  0.25722210  0.85168978  0.14902096  1
  Si  Si126  1  0.99988045  0.38806314  0.31921555  1
  Si  Si127  1  0.01633891  0.87111795  0.23424129  1
  Si  Si128  1  0.96693551  0.64298411  0.18245579  1
  Si  Si129  1  0.95190132  0.15863916  0.26737964  1
  Si  Si130  1  0.72738032  0.65857901  0.26746197  1
  Si  Si131  1  0.74554262  0.14277012  0.18252734  1
  Si  Si132  1  0.23856421  0.37098238  0.23408252  1
  Si  Si133  1  0.22063090  0.88783209  0.31946595  1
  Si  Si134  1  0.97074891  0.91074339  0.40562567  1
  Si  Si135  1  0.93223566  0.67807656  0.35259301  1
  Si  Si136  1  0.91516476  0.19252738  0.43901706  1
  Si  Si137  1  0.69583588  0.69237234  0.43860932  1
  Si  Si138  1  0.70842883  0.17814953  0.35253123  1
  Si  Si139  1  0.20442435  0.41083479  0.40549240  1
  Si  Si140  1  0.13800639  0.97414556  0.64895514  1
  Si  Si141  1  0.12803303  0.48968206  0.56211544  1
  Si  Si142  1  0.18080985  0.20433574  0.59662978  1
  Si  Si143  1  0.41481143  0.70425485  0.59653389  1
  Si  Si144  1  0.89633960  0.99020088  0.56234763  1
  Si  Si145  1  0.91796685  0.47413559  0.64885266  1
  Si  Si146  1  0.17512761  0.93624054  0.81915340  1
  Si  Si147  1  0.15823906  0.45402261  0.73394820  1
  Si  Si148  1  0.20814342  0.68276834  0.68226957  1
  Si  Si149  1  0.22229842  0.16649343  0.76719006  1
  Si  Si150  1  0.44712822  0.66654712  0.76723210  1
  Si  Si151  1  0.43041247  0.18275448  0.68220529  1
  Si  Si152  1  0.93620624  0.95411899  0.73392737  1
  Si  Si153  1  0.95449891  0.43645669  0.81921300  1
  Si  Si154  1  0.20416829  0.41338991  0.90547080  1
  Si  Si155  1  0.24293175  0.64631303  0.85247007  1
  Si  Si156  1  0.25937594  0.13133591  0.93876577  1
  Si  Si157  1  0.47850317  0.63144492  0.93877839  1
  Si  Si158  1  0.46617396  0.14629185  0.85245788  1
  Si  Si159  1  0.97015358  0.91329541  0.90551467  1
  P  P160  1  0.54973145  0.98703864  0.12364257  1
  P  P161  1  0.58860874  0.46599455  0.03820407  1
  P  P162  1  0.47806538  0.96596221  0.03817637  1
  P  P163  1  0.47434474  0.48680920  0.12359945  1
  P  P164  1  0.51812370  0.02191266  0.29402588  1
  P  P165  1  0.53416977  0.50557545  0.20887531  1
  P  P166  1  0.45301871  0.00424905  0.20891488  1
  P  P167  1  0.43469101  0.52217318  0.29400797  1
  P  P168  1  0.47465163  0.07229753  0.46334251  1
  P  P169  1  0.49620883  0.54072134  0.37867228  1
  P  P170  1  0.41853033  0.04137227  0.37846635  1
  P  P171  1  0.37830037  0.57021089  0.46380764  1
  P  P172  1  0.62519347  0.33950893  0.62349580  1
  P  P173  1  0.58652275  0.85986567  0.53794713  1
  P  P174  1  0.69806553  0.35929730  0.53798864  1
  P  P175  1  0.70140933  0.83868137  0.62333838  1
  P  P176  1  0.65684400  0.30263419  0.79375035  1
  P  P177  1  0.63981013  0.82047676  0.70866165  1
  P  P178  1  0.72213257  0.32084898  0.70867575  1
  P  P179  1  0.73986850  0.80249754  0.79375282  1
  P  P180  1  0.69769983  0.25345871  0.96354830  1
  P  P181  1  0.67920934  0.78300983  0.87843661  1
  P  P182  1  0.75654452  0.28269690  0.87837541  1
  P  P183  1  0.79570688  0.75317468  0.96354819  1
  O  O184  1  0.87729792  0.92587165  0.07818423  1
  O  O185  1  0.86396060  0.44250779  0.16437281  1
  O  O186  1  0.15980054  0.02723795  0.08171525  1
  O  O187  1  0.13653686  0.55354877  0.16639515  1
  O  O188  1  0.75381424  0.05367156  0.16644060  1
  O  O189  1  0.78447062  0.52722728  0.08175953  1
  O  O190  1  0.25073720  0.94225635  0.16400680  1
  O  O191  1  0.27000794  0.42587055  0.07825841  1
  O  O192  1  0.62278565  0.90671815  0.01756244  1
  O  O193  1  0.64381990  0.41985426  0.10830032  1
  O  O194  1  0.39481714  0.05600469  0.14149695  1
  O  O195  1  0.38968641  0.53608966  0.04828166  1
  O  O196  1  0.53676382  0.03612906  0.04822013  1
  O  O197  1  0.49285464  0.55482341  0.14159137  1
  O  O198  1  0.51362028  0.92015579  0.10839784  1
  O  O199  1  0.56237505  0.40666800  0.01762223  1
  O  O200  1  0.72387376  0.91533978  0.13822944  1
  O  O201  1  0.71304923  0.38895598  0.05793861  1
  O  O202  1  0.28968371  0.03074216  0.02861709  1
  O  O203  1  0.30796610  0.55867212  0.10736499  1
  O  O204  1  0.57484960  0.05786499  0.10740947  1
  O  O205  1  0.64717731  0.53084543  0.02859989  1
  O  O206  1  0.50815029  0.88894302  0.05795453  1
  O  O207  1  0.44121663  0.41570939  0.13797641  1
  O  O208  1  0.99677083  0.85385524  0.03277103  1
  O  O209  1  0.00268544  0.36896836  0.11971454  1
  O  O210  1  0.03480898  0.10495079  0.12628506  1
  O  O211  1  0.06756615  0.57847160  0.03968946  1
  O  O212  1  0.77407857  0.07851990  0.03961251  1
  O  O213  1  0.75396860  0.60455590  0.12632496  1
  O  O214  1  0.25586282  0.86901722  0.11949725  1
  O  O215  1  0.29414302  0.35377751  0.03284561  1
  O  O216  1  0.10306992  0.33445963  0.06650470  1
  O  O217  1  0.08049677  0.85067198  0.15347624  1
  O  O218  1  0.93932949  0.62351398  0.09272274  1
  O  O219  1  0.01575992  0.29463836  0.01398985  1
  O  O220  1  0.39381414  0.79490246  0.01397219  1
  O  O221  1  0.81242799  0.12337919  0.09263362  1
  O  O222  1  0.21694138  0.35001372  0.15339012  1
  O  O223  1  0.22696474  0.83432767  0.06633046  1
  O  O224  1  0.95169148  0.22962516  0.08722025  1
  O  O225  1  0.07202193  0.24454745  0.15805389  1
  O  O226  1  0.07609563  0.72977833  0.07052652  1
  O  O227  1  0.46302048  0.22965299  0.07057853  1
  O  O228  1  0.43668465  0.74433526  0.15767891  1
  O  O229  1  0.58753928  0.72971304  0.08732840  1
  O  O230  1  0.84628515  0.96112837  0.24996786  1
  O  O231  1  0.82748978  0.47734384  0.33470535  1
  O  O232  1  0.11980816  0.06868480  0.25108772  1
  O  O233  1  0.10464974  0.58753311  0.33710288  1
  O  O234  1  0.71745203  0.08736302  0.33710709  1
  O  O235  1  0.73880896  0.56894218  0.25110734  1
  O  O236  1  0.21338924  0.97770023  0.33481339  1
  O  O237  1  0.22947750  0.46088336  0.24977553  1
  O  O238  1  0.60931387  0.94347355  0.19084377  1
  O  O239  1  0.59409009  0.46025394  0.27642221  1
  O  O240  1  0.35880389  0.08841698  0.31142563  1
  O  O241  1  0.37412372  0.57197533  0.22617823  1
  O  O242  1  0.48091274  0.07076864  0.22610847  1
  O  O243  1  0.46082699  0.58878246  0.31139226  1
  O  O244  1  0.48231862  0.96003531  0.27646883  1
  O  O245  1  0.49894173  0.44508813  0.19078396  1
  O  O246  1  0.68620017  0.94581596  0.30918358  1
  O  O247  1  0.70119266  0.42767553  0.22404411  1
  O  O248  1  0.27506802  0.07630252  0.19516025  1
  O  O249  1  0.25847872  0.59480012  0.27987601  1
  O  O250  1  0.54882877  0.09462196  0.27989657  1
  O  O251  1  0.56812804  0.57760246  0.19511701  1
  O  O252  1  0.44124301  0.92713422  0.22432439  1
  O  O253  1  0.41872704  0.44605516  0.30915744  1
  O  O254  1  0.97110528  0.89258843  0.20499695  1
  O  O255  1  0.95854201  0.40844759  0.28980917  1
  O  O256  1  0.00085413  0.13795967  0.29644686  1
  O  O257  1  0.01372500  0.62312642  0.21166060  1
  O  O258  1  0.73717547  0.12327553  0.21171522  1
  O  O259  1  0.72000439  0.63818922  0.29655611  1
  O  O260  1  0.22190103  0.90782400  0.29003130  1
  O  O261  1  0.24172171  0.39202411  0.20483944  1
  O  O262  1  0.06209254  0.36879704  0.23773142  1
  O  O263  1  0.04382722  0.88679979  0.32375764  1
  O  O264  1  0.90519737  0.65917761  0.26347198  1
  O  O265  1  0.92590427  0.14070090  0.17852742  1
  O  O266  1  0.78978465  0.64186021  0.17833658  1
  O  O267  1  0.77234125  0.15971665  0.26351493  1
  O  O268  1  0.17840257  0.38740802  0.32357723  1
  O  O269  1  0.19775356  0.86825611  0.23787391  1
  O  O270  1  0.91934209  0.75333065  0.17344584  1
  O  O271  1  0.90668801  0.26866487  0.25849232  1
  O  O272  1  0.03678895  0.27962823  0.32720573  1
  O  O273  1  0.05118559  0.76337545  0.24250899  1
  O  O274  1  0.41806230  0.26296853  0.24253180  1
  O  O275  1  0.40096949  0.77964652  0.32753170  1
  O  O276  1  0.55272250  0.76867387  0.25861330  1
  O  O277  1  0.57347474  0.25346536  0.17350843  1
  O  O278  1  0.80916095  0.00502847  0.42150732  1
  O  O279  1  0.08533226  0.10218154  0.42299463  1
  O  O280  1  0.70849869  0.60156678  0.42253286  1
  O  O281  1  0.17748262  0.50490583  0.42146288  1
  O  O282  1  0.57224076  0.97459841  0.36051405  1
  O  O283  1  0.57420342  0.49276913  0.45382384  1
  O  O284  1  0.32527571  0.13017577  0.48360685  1
  O  O285  1  0.32576587  0.61087267  0.39377055  1
  O  O286  1  0.45044210  0.11119714  0.39337351  1
  O  O287  1  0.41089791  0.62836407  0.48411830  1
  O  O288  1  0.43694282  0.99302932  0.45365820  1
  O  O289  1  0.47419579  0.47463531  0.36072203  1
  O  O290  1  0.65723277  0.01944788  0.47502323  1
  O  O291  1  0.65665726  0.46970502  0.39570571  1
  O  O292  1  0.23835688  0.11194737  0.36492396  1
  O  O293  1  0.25596424  0.64706213  0.44414207  1
  O  O294  1  0.44103805  0.14888424  0.44346073  1
  O  O295  1  0.53532100  0.61110661  0.36501460  1
  O  O296  1  0.39945668  0.97114277  0.39569477  1
  O  O297  1  0.30411670  0.51573575  0.47545180  1
  O  O298  1  0.92885306  0.92931528  0.37627472  1
  O  O299  1  0.90793623  0.45013236  0.46106846  1
  O  O300  1  0.96043361  0.16933253  0.46843488  1
  O  O301  1  0.97064647  0.66165531  0.38200151  1
  O  O302  1  0.70567545  0.16079828  0.38194251  1
  O  O303  1  0.69191357  0.67057850  0.46800391  1
  O  O304  1  0.19072263  0.94880157  0.46095816  1
  O  O305  1  0.20597139  0.43032998  0.37612164  1
  O  O306  1  0.03249648  0.40215665  0.40920806  1
  O  O307  1  0.98840578  0.81855367  0.48701223  1
  O  O308  1  0.86980249  0.69684657  0.43540332  1
  O  O309  1  0.88641803  0.17752229  0.34772981  1
  O  O310  1  0.75621771  0.67653659  0.34793090  1
  O  O311  1  0.73255021  0.19725080  0.43526346  1
  O  O312  1  0.38022791  0.31369416  0.48722221  1
  O  O313  1  0.15916334  0.90326137  0.40896422  1
  O  O314  1  0.88840979  0.78709029  0.34336121  1
  O  O315  1  0.88891435  0.29879599  0.43115114  1
  O  O316  1  0.00497656  0.80503285  0.41520607  1
  O  O317  1  0.38326856  0.30521775  0.41471226  1
  O  O318  1  0.51081667  0.79860428  0.43037990  1
  O  O319  1  0.53289695  0.28709176  0.34353373  1
  O  O320  1  0.29886460  0.40024092  0.57801499  1
  O  O321  1  0.31173024  0.88327230  0.66402212  1
  O  O322  1  0.01546981  0.29864141  0.58146482  1
  O  O323  1  0.03840222  0.77198602  0.66618759  1
  O  O324  1  0.42188326  0.27199500  0.66614384  1
  O  O325  1  0.39048038  0.79885451  0.58137911  1
  O  O326  1  0.92556276  0.38334751  0.66388158  1
  O  O327  1  0.90599937  0.89980326  0.57805554  1
  O  O328  1  0.55402682  0.41822573  0.51729447  1
  O  O329  1  0.53142140  0.90574568  0.60812727  1
  O  O330  1  0.77983626  0.27063257  0.64138875  1
  O  O331  1  0.78577018  0.79020877  0.54795725  1
  O  O332  1  0.63921408  0.28919696  0.54801519  1
  O  O333  1  0.68342272  0.77047195  0.64134108  1
  O  O334  1  0.66149997  0.40635026  0.60827080  1
  O  O335  1  0.61192671  0.91922660  0.51728700  1
  O  O336  1  0.45070706  0.41119035  0.63800951  1
  O  O337  1  0.46261601  0.93675375  0.55773849  1
  O  O338  1  0.88671052  0.29442223  0.52851963  1
  O  O339  1  0.86737573  0.76711104  0.60701355  1
  O  O340  1  0.60054212  0.26855708  0.60723939  1
  O  O341  1  0.52882937  0.79446216  0.52847056  1
  O  O342  1  0.66747315  0.43646112  0.55776569  1
  O  O343  1  0.73439466  0.90985502  0.63771950  1
  O  O344  1  0.17982730  0.47085051  0.53249613  1
  O  O345  1  0.17203755  0.95697679  0.61943624  1
  O  O346  1  0.13982986  0.22089208  0.62604255  1
  O  O347  1  0.10740616  0.74816767  0.53931011  1
  O  O348  1  0.40228055  0.24685293  0.53951346  1
  O  O349  1  0.42212964  0.72105436  0.62595605  1
  O  O350  1  0.91905574  0.45683041  0.61932237  1
  O  O351  1  0.87913140  0.97292531  0.53273244  1
  O  O352  1  0.07241244  0.99133739  0.56628095  1
  O  O353  1  0.09446392  0.47551181  0.65321553  1
  O  O354  1  0.23641508  0.70230154  0.59234447  1
  O  O355  1  0.16118304  0.02875485  0.51401766  1
  O  O356  1  0.78106910  0.53046096  0.51399272  1
  O  O357  1  0.36253629  0.20302374  0.59252406  1
  O  O358  1  0.95868059  0.97550113  0.65321987  1
  O  O359  1  0.94946922  0.49111986  0.56616315  1
  O  O360  1  0.22442990  0.09618659  0.58697439  1
  O  O361  1  0.10317856  0.08124848  0.65775926  1
  O  O362  1  0.09988783  0.59610029  0.56996584  1
  O  O363  1  0.71291326  0.09616257  0.57075492  1
  O  O364  1  0.73824140  0.58126453  0.65756487  1
  O  O365  1  0.58816691  0.59630972  0.58691639  1
  O  O366  1  0.32891389  0.36420902  0.74964631  1
  O  O367  1  0.34761912  0.84688263  0.83460970  1
  O  O368  1  0.05401656  0.25624541  0.75092616  1
  O  O369  1  0.07045009  0.73701553  0.83701919  1
  O  O370  1  0.45682771  0.23718443  0.83703107  1
  O  O371  1  0.43600998  0.75617527  0.75091328  1
  O  O372  1  0.96173522  0.34667005  0.83462924  1
  O  O373  1  0.94541820  0.86420507  0.74961438  1
  O  O374  1  0.56578883  0.38183496  0.69062163  1
  O  O375  1  0.58032192  0.86487869  0.77621373  1
  O  O376  1  0.81680706  0.23616598  0.81105605  1
  O  O377  1  0.80044832  0.75383547  0.72586804  1
  O  O378  1  0.69448434  0.25399684  0.72577580  1
  O  O379  1  0.71364642  0.73559966  0.81102930  1
  O  O380  1  0.69157145  0.36493823  0.77617937  1
  O  O381  1  0.67483413  0.88120943  0.69061207  1
  O  O382  1  0.48901829  0.37818228  0.80902108  1
  O  O383  1  0.47336785  0.89787819  0.72398398  1
  O  O384  1  0.90031933  0.24909162  0.69493131  1
  O  O385  1  0.91597361  0.73009131  0.77957876  1
  O  O386  1  0.62638865  0.22979731  0.77962883  1
  O  O387  1  0.60575162  0.74850012  0.69489368  1
  O  O388  1  0.73335727  0.39804068  0.72413234  1
  O  O389  1  0.75623880  0.87811887  0.80905498  1
  O  O390  1  0.20329584  0.43258747  0.70469612  1
  O  O391  1  0.21595699  0.91590432  0.78972119  1
  O  O392  1  0.17495249  0.18680310  0.79630869  1
  O  O393  1  0.16145633  0.70253178  0.71146348  1
  O  O394  1  0.43826767  0.20210611  0.71139840  1
  O  O395  1  0.45418772  0.68669867  0.79634873  1
  O  O396  1  0.95355192  0.41639076  0.78978747  1
  O  O397  1  0.93362706  0.93317676  0.70466235  1
  O  O398  1  0.11241090  0.95649223  0.73761139  1
  O  O399  1  0.13099396  0.43778645  0.82352877  1
  O  O400  1  0.26956610  0.66574346  0.76317706  1
  O  O401  1  0.25018545  0.18467505  0.67816109  1
  O  O402  1  0.38476614  0.68428165  0.67806366  1
  O  O403  1  0.40140236  0.16571601  0.76308488  1
  O  O404  1  0.99635128  0.93724035  0.82358669  1
  O  O405  1  0.97733110  0.45642744  0.73767207  1
  O  O406  1  0.25609889  0.57226143  0.67334836  1
  O  O407  1  0.26730160  0.05643692  0.75839012  1
  O  O408  1  0.13887639  0.04467097  0.82700331  1
  O  O409  1  0.12285764  0.56195981  0.74217267  1
  O  O410  1  0.75637904  0.06203605  0.74229587  1
  O  O411  1  0.77388244  0.54456484  0.82724417  1
  O  O412  1  0.62203695  0.55644749  0.75842293  1
  O  O413  1  0.60256400  0.07211296  0.67316030  1
  O  O414  1  0.36542866  0.31894069  0.92134891  1
  O  O415  1  0.08963962  0.22195182  0.92275020  1
  O  O416  1  0.46714475  0.72194819  0.92272752  1
  O  O417  1  0.99757218  0.81897385  0.92142925  1
  O  O418  1  0.60236391  0.34937799  0.86046874  1
  O  O419  1  0.59960939  0.83131082  0.95368680  1
  O  O420  1  0.84657010  0.19546776  0.98387467  1
  O  O421  1  0.84995493  0.71313370  0.89351020  1
  O  O422  1  0.72551400  0.21289956  0.89348143  1
  O  O423  1  0.76245375  0.69529815  0.98385627  1
  O  O424  1  0.73797171  0.33136057  0.95366989  1
  O  O425  1  0.70037571  0.84960889  0.86055030  1
  O  O426  1  0.51459893  0.30762959  0.97515486  1
  O  O427  1  0.51875845  0.85324850  0.89553632  1
  O  O428  1  0.93614132  0.21205026  0.86468346  1
  O  O429  1  0.91719929  0.67640351  0.94380955  1
  O  O430  1  0.72995835  0.17659851  0.94382016  1
  O  O431  1  0.64090784  0.71238247  0.86475297  1
  O  O432  1  0.77644487  0.35302125  0.89545641  1
  O  O433  1  0.87051013  0.80727137  0.97519590  1
  O  O434  1  0.24524081  0.39484490  0.87609183  1
  O  O435  1  0.26550576  0.87451682  0.96090454  1
  O  O436  1  0.21311310  0.15357875  0.96818935  1
  O  O437  1  0.20473590  0.66273111  0.88188735  1
  O  O438  1  0.47100125  0.16278471  0.88187793  1
  O  O439  1  0.47956564  0.65400841  0.96819376  1
  O  O440  1  0.98581912  0.37429696  0.96092106  1
  O  O441  1  0.96631657  0.89457830  0.87614556  1
  O  O442  1  0.14297857  0.92130708  0.90895676  1
  O  O443  1  0.18390366  0.50935059  0.98738970  1
  O  O444  1  0.30485996  0.62692801  0.93528631  1
  O  O445  1  0.28779140  0.14719774  0.84775739  1
  O  O446  1  0.41915623  0.64761614  0.84779811  1
  O  O447  1  0.44193553  0.12698985  0.93528688  1
  O  O448  1  0.79715075  0.00911113  0.98731390  1
  O  O449  1  0.01534405  0.42131091  0.90896875  1
  O  O450  1  0.28648703  0.53731571  0.84326406  1
  O  O451  1  0.28628150  0.02506981  0.93067818  1
  O  O452  1  0.17061449  0.51897425  0.91499299  1
  O  O453  1  0.79241999  0.01891129  0.91501331  1
  O  O454  1  0.66432720  0.52517930  0.93075449  1
  O  O455  1  0.64112300  0.03742644  0.84325172  1
