# generated using pymatgen
data_Na15Zr10Si8P5O56
_symmetry_space_group_name_H-M   'P 1'
_cell_length_a   9.06848800
_cell_length_b   15.86993085
_cell_length_c   45.64632428
_cell_angle_alpha   90.00000000
_cell_angle_beta   90.00000000
_cell_angle_gamma   55.15028861
_symmetry_Int_Tables_number   1
_chemical_formula_structural   Na15Zr10Si8P5O56
_chemical_formula_sum   'Na60 Zr40 Si32 P20 O224'
_cell_volume   5391.07877573
_cell_formula_units_Z   4
loop_
 _symmetry_equiv_pos_site_id
 _symmetry_equiv_pos_as_xyz
  1  'x, y, z'
loop_
 _atom_site_type_symbol
 _atom_site_label
 _atom_site_symmetry_multiplicity
 _atom_site_fract_x
 _atom_site_fract_y
 _atom_site_fract_z
 _atom_site_occupancy
  Na  Na0  1  0.73856568  0.85179592  0.10184974  1
  Na  Na1  1  0.12376633  0.19683783  0.98267014  1
  Na  Na2  1  0.23804360  0.19762706  0.10323029  1
  Na  Na3  1  0.14234740  0.72633133  0.17781847  1
  Na  Na4  1  0.36516795  0.21991409  0.19513858  1
  Na  Na5  1  0.37539085  0.69540464  0.10190045  1
  Na  Na6  1  0.51033427  0.69915476  0.98084323  1
  Na  Na7  1  0.54950999  0.35071130  0.10401547  1
  Na  Na8  1  0.81605977  0.06523582  0.15015368  1
  Na  Na9  1  0.64983513  0.65476441  0.04503360  1
  Na  Na10  1  0.03048271  0.15479144  0.04429489  1
  Na  Na11  1  0.07607319  0.53207786  0.14616871  1
  Na  Na12  1  0.69905726  0.89701260  0.30694798  1
  Na  Na13  1  0.77319049  0.36376879  0.22218567  1
  Na  Na14  1  0.16712395  0.24374632  0.29871382  1
  Na  Na15  1  0.13745280  0.77076070  0.40077852  1
  Na  Na16  1  0.32529136  0.26747422  0.40076363  1
  Na  Na17  1  0.38655796  0.75256210  0.27733801  1
  Na  Na18  1  0.54010353  0.87553067  0.19938730  1
  Na  Na19  1  0.46720138  0.39516597  0.32229299  1
  Na  Na20  1  0.77908053  0.10106272  0.35873012  1
  Na  Na21  1  0.83107110  0.55909328  0.24980122  1
  Na  Na22  1  0.08017947  0.03797954  0.24496886  1
  Na  Na23  1  0.00199760  0.61048087  0.35918886  1
  Na  Na24  1  0.65978486  0.42755842  0.40588374  1
  Na  Na25  1  0.78872892  0.26145791  0.51199908  1
  Na  Na26  1  0.77972384  0.87629588  0.48279587  1
  Na  Na27  1  0.49562778  0.92416907  0.40420264  1
  Na  Na28  1  0.81935641  0.58688447  0.45696035  1
  Na  Na29  1  0.01613045  0.07047270  0.45305520  1
  Na  Na30  1  0.72101143  0.76321731  0.54457149  1
  Na  Na31  1  0.30471567  0.35576444  0.48442989  1
  Na  Na32  1  0.20515180  0.35429121  0.60205205  1
  Na  Na33  1  0.67547538  0.75390970  0.65269746  1
  Na  Na34  1  0.07605023  0.33330648  0.69518463  1
  Na  Na35  1  0.22166350  0.79086502  0.63178046  1
  Na  Na36  1  0.14666439  0.82237507  0.50634654  1
  Na  Na37  1  0.88539121  0.20190540  0.60183800  1
  Na  Na38  1  0.63842812  0.47996626  0.65170896  1
  Na  Na39  1  0.94790468  0.85269327  0.56069968  1
  Na  Na40  1  0.40734529  0.40060483  0.54448177  1
  Na  Na41  1  0.32489802  0.04872602  0.64052457  1
  Na  Na42  1  0.69226351  0.65651097  0.82419788  1
  Na  Na43  1  0.73069794  0.17710986  0.70278886  1
  Na  Na44  1  0.28428464  0.30356732  0.79499954  1
  Na  Na45  1  0.30826518  0.78049909  0.90051958  1
  Na  Na46  1  0.12200902  0.27958967  0.90031906  1
  Na  Na47  1  0.08649414  0.80130555  0.78883558  1
  Na  Na48  1  0.95894356  0.68501086  0.72492143  1
  Na  Na49  1  0.93730736  0.14636693  0.80468540  1
  Na  Na50  1  0.68139590  0.43394800  0.86008528  1
  Na  Na51  1  0.60010347  0.01571925  0.74487986  1
  Na  Na52  1  0.41114694  0.46485413  0.75397830  1
  Na  Na53  1  0.43114079  0.94955802  0.85794642  1
  Na  Na54  1  0.79204206  0.11991249  0.90501927  1
  Na  Na55  1  0.65394402  0.29065100  0.01196677  1
  Na  Na56  1  0.77335443  0.79042447  0.01770318  1
  Na  Na57  1  0.95902466  0.62355742  0.90516111  1
  Na  Na58  1  0.61791444  0.97099205  0.95451769  1
  Na  Na59  1  0.42551117  0.48391768  0.95329962  1
  Zr  Zr60  1  0.87250997  0.99721444  0.02015050  1
  Zr  Zr61  1  0.82157240  0.42448176  0.10352325  1
  Zr  Zr62  1  0.10148667  0.14378301  0.18581113  1
  Zr  Zr63  1  0.11522690  0.62440542  0.08277488  1
  Zr  Zr64  1  0.63736210  0.12644713  0.07859936  1
  Zr  Zr65  1  0.60711398  0.64402196  0.18881987  1
  Zr  Zr66  1  0.32521503  0.92140067  0.10063007  1
  Zr  Zr67  1  0.12002619  0.50215045  0.01767232  1
  Zr  Zr68  1  0.81222456  0.94752147  0.20801483  1
  Zr  Zr69  1  0.78114436  0.47703978  0.31176822  1
  Zr  Zr70  1  0.03714017  0.20095479  0.39385389  1
  Zr  Zr71  1  0.08290795  0.66405037  0.29177730  1
  Zr  Zr72  1  0.59163677  0.16603744  0.29098472  1
  Zr  Zr73  1  0.55948017  0.69849890  0.39351243  1
  Zr  Zr74  1  0.26140459  0.97690986  0.31216466  1
  Zr  Zr75  1  0.29601690  0.44799086  0.20726445  1
  Zr  Zr76  1  0.75374421  0.99986270  0.42009697  1
  Zr  Zr77  1  0.11745280  0.62430042  0.49455726  1
  Zr  Zr78  1  0.63697599  0.11867315  0.49477607  1
  Zr  Zr79  1  0.24766428  0.49839131  0.42022126  1
  Zr  Zr80  1  0.56714987  0.55686515  0.52191168  1
  Zr  Zr81  1  0.61882458  0.12727056  0.60280712  1
  Zr  Zr82  1  0.33994614  0.40839128  0.68604382  1
  Zr  Zr83  1  0.32629581  0.92506879  0.58463888  1
  Zr  Zr84  1  0.80601256  0.42601209  0.57913500  1
  Zr  Zr85  1  0.84399146  0.90267909  0.68893901  1
  Zr  Zr86  1  0.10032356  0.63447954  0.60187915  1
  Zr  Zr87  1  0.32589108  0.04521924  0.51842323  1
  Zr  Zr88  1  0.62628424  0.60819119  0.70698610  1
  Zr  Zr89  1  0.66322907  0.07104119  0.81293378  1
  Zr  Zr90  1  0.41087701  0.34731160  0.89404374  1
  Zr  Zr91  1  0.36809408  0.88149710  0.79085423  1
  Zr  Zr92  1  0.85306206  0.38403765  0.79125175  1
  Zr  Zr93  1  0.88980724  0.84855805  0.89361551  1
  Zr  Zr94  1  0.18010388  0.57204173  0.81123130  1
  Zr  Zr95  1  0.15714210  0.10036324  0.70751992  1
  Zr  Zr96  1  0.69364370  0.54920201  0.91928003  1
  Zr  Zr97  1  0.32646084  0.92933687  0.99513325  1
  Zr  Zr98  1  0.80577931  0.43250311  0.99454891  1
  Zr  Zr99  1  0.20115685  0.04950325  0.92088941  1
  Si  Si100  1  0.98042765  0.40261603  0.17706548  1
  Si  Si101  1  0.04447074  0.85907232  0.06788028  1
  Si  Si102  1  0.95124238  0.16269684  0.11354701  1
  Si  Si103  1  0.72106181  0.66364392  0.11550989  1
  Si  Si104  1  0.23088525  0.37194713  0.07497176  1
  Si  Si105  1  0.20819550  0.90130276  0.17313438  1
  Si  Si106  1  0.93697795  0.45662056  0.38364967  1
  Si  Si107  1  0.96887753  0.92236589  0.27959159  1
  Si  Si108  1  0.91982185  0.69089475  0.21857449  1
  Si  Si109  1  0.88782354  0.21993694  0.32259085  1
  Si  Si110  1  0.66973355  0.71913713  0.32037455  1
  Si  Si111  1  0.70070794  0.19111823  0.21833855  1
  Si  Si112  1  0.18744641  0.42163307  0.28008025  1
  Si  Si113  1  0.15195424  0.95660448  0.38461362  1
  Si  Si114  1  0.87091864  0.73758581  0.42865307  1
  Si  Si115  1  0.65698725  0.23852414  0.43114814  1
  Si  Si116  1  0.46048663  0.14837937  0.67519167  1
  Si  Si117  1  0.39510027  0.69411821  0.57076080  1
  Si  Si118  1  0.48742941  0.39176044  0.61373168  1
  Si  Si119  1  0.72151100  0.88702778  0.61440448  1
  Si  Si120  1  0.21043478  0.17943726  0.57417382  1
  Si  Si121  1  0.22659607  0.64950058  0.67629118  1
  Si  Si122  1  0.51128980  0.09136759  0.88451871  1
  Si  Si123  1  0.47596398  0.62754551  0.78031249  1
  Si  Si124  1  0.52902270  0.85667350  0.71713432  1
  Si  Si125  1  0.55525366  0.32949788  0.82226768  1
  Si  Si126  1  0.77669054  0.82828457  0.82107269  1
  Si  Si127  1  0.74498776  0.36052128  0.71878192  1
  Si  Si128  1  0.26137164  0.12609503  0.77958750  1
  Si  Si129  1  0.29739926  0.59123014  0.88369955  1
  Si  Si130  1  0.58120287  0.80999067  0.92954040  1
  Si  Si131  1  0.79113197  0.31031637  0.93103363  1
  P  P132  1  0.50811101  0.03122308  0.14526430  1
  P  P133  1  0.49722578  0.50723910  0.04541816  1
  P  P134  1  0.48037068  0.00960815  0.04447590  1
  P  P135  1  0.41904246  0.53395777  0.14685041  1
  P  P136  1  0.45605822  0.08252382  0.35381434  1
  P  P137  1  0.48533217  0.55764708  0.24988190  1
  P  P138  1  0.40421480  0.05717078  0.24909842  1
  P  P139  1  0.37681556  0.58126270  0.35453871  1
  P  P140  1  0.42153106  0.62398107  0.45416141  1
  P  P141  1  0.33048348  0.12474420  0.45325477  1
  P  P142  1  0.92917500  0.52018605  0.64379040  1
  P  P143  1  0.94935839  0.04118098  0.54485085  1
  P  P144  1  0.96751717  0.53756237  0.54297438  1
  P  P145  1  0.01430952  0.01933256  0.64687941  1
  P  P146  1  0.99092926  0.46498289  0.85337936  1
  P  P147  1  0.95916722  0.99590215  0.75070217  1
  P  P148  1  0.04159472  0.48980044  0.74778812  1
  P  P149  1  0.06910377  0.96918299  0.85489760  1
  P  P150  1  0.03179179  0.92333125  0.95389967  1
  P  P151  1  0.11674304  0.42292238  0.95255566  1
  O  O152  1  0.85760618  0.97607718  0.07232335  1
  O  O153  1  0.88781937  0.52783417  0.00924376  1
  O  O154  1  0.12860423  0.07890247  0.09406737  1
  O  O155  1  0.08817919  0.60187161  0.19869204  1
  O  O156  1  0.69682049  0.10405451  0.19960909  1
  O  O157  1  0.71070915  0.58066498  0.09552207  1
  O  O158  1  0.06056924  0.01746099  0.01274688  1
  O  O159  1  0.22595135  0.46996383  0.08837695  1
  O  O160  1  0.65015089  0.96571497  0.02493990  1
  O  O161  1  0.58681275  0.46607461  0.12786954  1
  O  O162  1  0.32913194  0.12143272  0.15937919  1
  O  O163  1  0.34950243  0.60278931  0.06338682  1
  O  O164  1  0.44178055  0.10360282  0.06245312  1
  O  O165  1  0.44495259  0.60082684  0.16800038  1
  O  O166  1  0.47434056  0.95950141  0.12860944  1
  O  O167  1  0.40995944  0.46533304  0.02638253  1
  O  O168  1  0.50196882  0.92940570  0.06684344  1
  O  O169  1  0.38032900  0.46427701  0.16350128  1
  O  O170  1  0.57980249  0.07567352  0.12370502  1
  O  O171  1  0.58658806  0.54170453  0.02386804  1
  O  O172  1  0.31976680  0.04543970  0.02354626  1
  O  O173  1  0.25424568  0.61010666  0.12704286  1
  O  O174  1  0.64920909  0.96705997  0.16936332  1
  O  O175  1  0.63838954  0.42783566  0.06755508  1
  O  O176  1  0.03956784  0.84647645  0.03247350  1
  O  O177  1  0.93601351  0.42157488  0.14203960  1
  O  O178  1  0.98159903  0.14283337  0.14892087  1
  O  O179  1  0.01390897  0.62947710  0.04283602  1
  O  O180  1  0.70251928  0.14359888  0.03828635  1
  O  O181  1  0.72092368  0.64349883  0.15055830  1
  O  O182  1  0.20940202  0.91653477  0.13776032  1
  O  O183  1  0.23397896  0.37223494  0.03911867  1
  O  O184  1  0.05798739  0.37256072  0.08429419  1
  O  O185  1  0.02297402  0.90834964  0.18019999  1
  O  O186  1  0.90027604  0.66149585  0.10836051  1
  O  O187  1  0.77686524  0.16164310  0.10534081  1
  O  O188  1  0.16170896  0.40028826  0.18306095  1
  O  O189  1  0.21660136  0.85821382  0.07846768  1
  O  O190  1  0.90604622  0.27460682  0.10554179  1
  O  O191  1  0.02361421  0.29188281  0.18755065  1
  O  O192  1  0.02999242  0.77688075  0.08678115  1
  O  O193  1  0.41340700  0.27005032  0.08826651  1
  O  O194  1  0.38322235  0.79031106  0.18382692  1
  O  O195  1  0.54763297  0.77521061  0.10557395  1
  O  O196  1  0.78812174  0.01112165  0.29699485  1
  O  O197  1  0.81188695  0.49031401  0.19735615  1
  O  O198  1  0.06749540  0.13143964  0.30474716  1
  O  O199  1  0.05043090  0.65319577  0.40946364  1
  O  O200  1  0.64876915  0.15399486  0.41119612  1
  O  O201  1  0.67122470  0.63116990  0.30121220  1
  O  O202  1  0.21673918  0.98742738  0.19181629  1
  O  O203  1  0.18990169  0.50967620  0.29807089  1
  O  O204  1  0.58425327  0.98071079  0.23312806  1
  O  O205  1  0.54027659  0.51657953  0.33367284  1
  O  O206  1  0.27669675  0.15969452  0.36970851  1
  O  O207  1  0.32814808  0.62346633  0.27133101  1
  O  O208  1  0.42079339  0.12951381  0.26937946  1
  O  O209  1  0.39662474  0.65606849  0.37287451  1
  O  O210  1  0.43451141  0.01124166  0.33359808  1
  O  O211  1  0.45159894  0.49427135  0.22871474  1
  O  O212  1  0.35308334  0.99575307  0.26740420  1
  O  O213  1  0.37280671  0.50403189  0.37508144  1
  O  O214  1  0.50340576  0.14511423  0.33489170  1
  O  O215  1  0.50863583  0.63378487  0.23228949  1
  O  O216  1  0.25857496  0.12320137  0.22544883  1
  O  O217  1  0.20151323  0.64384222  0.33642348  1
  O  O218  1  0.60711233  0.01530924  0.37632420  1
  O  O219  1  0.66184210  0.48189318  0.26692428  1
  O  O220  1  0.94403867  0.94072514  0.24389681  1
  O  O221  1  0.90492818  0.48064451  0.34833298  1
  O  O222  1  0.91101191  0.20000046  0.35796647  1
  O  O223  1  0.96420878  0.66885608  0.25353539  1
  O  O224  1  0.69584877  0.17333566  0.25346502  1
  O  O225  1  0.66591476  0.70289915  0.35566472  1
  O  O226  1  0.14128240  0.97680106  0.34916151  1
  O  O227  1  0.19425623  0.43611466  0.24470544  1
  O  O228  1  0.00336682  0.42750222  0.28622873  1
  O  O229  1  0.97968873  0.95516082  0.39503767  1
  O  O230  1  0.85164955  0.71605363  0.31501682  1
  O  O231  1  0.88717063  0.18355900  0.21240893  1
  O  O232  1  0.73615370  0.69537395  0.21238783  1
  O  O233  1  0.71028922  0.22091416  0.31496488  1
  O  O234  1  0.11468013  0.45218109  0.39446251  1
  O  O235  1  0.14278846  0.92562276  0.28659683  1
  O  O236  1  0.88306694  0.79988646  0.20777775  1
  O  O237  1  0.85652442  0.32908016  0.31460396  1
  O  O238  1  0.96367450  0.34788103  0.39011614  1
  O  O239  1  0.00923114  0.81238277  0.28890941  1
  O  O240  1  0.35681870  0.31088342  0.29212642  1
  O  O241  1  0.33917821  0.84742895  0.39199549  1
  O  O242  1  0.49497599  0.83077038  0.30990243  1
  O  O243  1  0.52529764  0.30193442  0.20822442  1
  O  O244  1  0.76051440  0.54417837  0.40271210  1
  O  O245  1  0.54706229  0.23886438  0.51759672  1
  O  O246  1  0.97836675  0.74689319  0.51786761  1
  O  O247  1  0.15205940  0.04508274  0.40338765  1
  O  O248  1  0.49754646  0.03253373  0.43789290  1
  O  O249  1  0.24058885  0.68872404  0.47112006  1
  O  O250  1  0.38393441  0.18764369  0.47065529  1
  O  O251  1  0.43163291  0.53639239  0.43735854  1
  O  O252  1  0.24531164  0.08218353  0.47352525  1
  O  O253  1  0.42814348  0.69723188  0.43323107  1
  O  O254  1  0.18775727  0.19871036  0.43100054  1
  O  O255  1  0.58504803  0.57788136  0.47595783  1
  O  O256  1  0.82507330  0.00351745  0.46007753  1
  O  O257  1  0.89079669  0.71386509  0.46377891  1
  O  O258  1  0.70402371  0.20342754  0.46541903  1
  O  O259  1  0.14994798  0.51359566  0.45918497  1
  O  O260  1  0.81700823  0.24894906  0.41915784  1
  O  O261  1  0.69446356  0.74250304  0.41739103  1
  O  O262  1  0.83434023  0.84956709  0.42197835  1
  O  O263  1  0.46135709  0.34747515  0.42579811  1
  O  O264  1  0.57773937  0.57494162  0.57226280  1
  O  O265  1  0.55236702  0.02256472  0.50728483  1
  O  O266  1  0.30841929  0.47809798  0.59492120  1
  O  O267  1  0.36406026  0.95341621  0.69908927  1
  O  O268  1  0.75224331  0.44731879  0.70088448  1
  O  O269  1  0.72823878  0.97420353  0.59661166  1
  O  O270  1  0.37632973  0.53833324  0.51345335  1
  O  O271  1  0.21337248  0.08281595  0.58799309  1
  O  O272  1  0.78598836  0.59039355  0.52620973  1
  O  O273  1  0.84134568  0.09473183  0.62953083  1
  O  O274  1  0.10509775  0.43651708  0.65985688  1
  O  O275  1  0.09964564  0.94262428  0.56143912  1
  O  O276  1  0.00700615  0.44327389  0.56055863  1
  O  O277  1  0.99773242  0.94313367  0.66494950  1
  O  O278  1  0.95144196  0.59914136  0.62874852  1
  O  O279  1  0.03389187  0.08443394  0.52563725  1
  O  O280  1  0.96748119  0.61303838  0.56448983  1
  O  O281  1  0.04803744  0.08637145  0.66633475  1
  O  O282  1  0.88404348  0.46535419  0.62093679  1
  O  O283  1  0.86208921  0.00493260  0.52330792  1
  O  O284  1  0.11799899  0.50295549  0.51973603  1
  O  O285  1  0.17550368  0.95382718  0.62565853  1
  O  O286  1  0.76863598  0.58128122  0.66487846  1
  O  O287  1  0.81000197  0.11944444  0.56730063  1
  O  O288  1  0.38633873  0.71083681  0.53504548  1
  O  O289  1  0.49930629  0.12470843  0.64017559  1
  O  O290  1  0.45717990  0.41397851  0.64896892  1
  O  O291  1  0.42782187  0.92095164  0.54465206  1
  O  O292  1  0.73655383  0.41114654  0.53815737  1
  O  O293  1  0.75943864  0.88049020  0.64982261  1
  O  O294  1  0.19203632  0.65382071  0.64063162  1
  O  O295  1  0.21084574  0.17746338  0.53833597  1
  O  O296  1  0.38019517  0.18195980  0.58351349  1
  O  O297  1  0.42195407  0.63235395  0.68012781  1
  O  O298  1  0.52742041  0.90140897  0.61176263  1
  O  O299  1  0.66403891  0.39075056  0.60509249  1
  O  O300  1  0.27515444  0.15594065  0.68215426  1
  O  O301  1  0.22037521  0.69917818  0.58248879  1
  O  O302  1  0.53042233  0.28015435  0.60541974  1
  O  O303  1  0.42716401  0.25814333  0.68367873  1
  O  O304  1  0.41699345  0.77276854  0.59001627  1
  O  O305  1  0.02472748  0.28071311  0.58681008  1
  O  O306  1  0.06659424  0.75760087  0.69111985  1
  O  O307  1  0.86949336  0.77933287  0.59796397  1
  O  O308  1  0.65592202  0.53854271  0.79806451  1
  O  O309  1  0.63277238  0.05986868  0.69451042  1
  O  O310  1  0.37881892  0.41553275  0.80311879  1
  O  O311  1  0.40291087  0.89626942  0.91021132  1
  O  O312  1  0.80012491  0.39414337  0.91073700  1
  O  O313  1  0.77624958  0.91788535  0.80311964  1
  O  O314  1  0.21712725  0.56197631  0.69342542  1
  O  O315  1  0.25775173  0.03662178  0.79630329  1
  O  O316  1  0.87054060  0.56602121  0.73003488  1
  O  O317  1  0.90234605  0.03701644  0.83487097  1
  O  O318  1  0.16355238  0.39227745  0.87119664  1
  O  O319  1  0.12213791  0.92355170  0.77063760  1
  O  O320  1  0.01645677  0.42274242  0.76894759  1
  O  O321  1  0.04839707  0.89137465  0.87163953  1
  O  O322  1  0.01400380  0.53384544  0.83239825  1
  O  O323  1  0.99556473  0.06087427  0.73065560  1
  O  O324  1  0.09443281  0.55263679  0.76527848  1
  O  O325  1  0.07888187  0.03998028  0.87715539  1
  O  O326  1  0.94863013  0.39890817  0.83502804  1
  O  O327  1  0.91862137  0.93026440  0.73195916  1
  O  O328  1  0.19591203  0.41541827  0.72608990  1
  O  O329  1  0.24175098  0.90874450  0.83615000  1
  O  O330  1  0.83018838  0.53840941  0.87396055  1
  O  O331  1  0.79518821  0.06948614  0.77059238  1
  O  O332  1  0.50927720  0.62152543  0.74489615  1
  O  O333  1  0.54073769  0.06543197  0.84934524  1
  O  O334  1  0.52647018  0.35219560  0.85738942  1
  O  O335  1  0.48423641  0.86363187  0.75219464  1
  O  O336  1  0.73579000  0.38050435  0.75418831  1
  O  O337  1  0.77685409  0.84296475  0.85656114  1
  O  O338  1  0.30033168  0.57148167  0.84831368  1
  O  O339  1  0.26970762  0.10986504  0.74406944  1
  O  O340  1  0.44121442  0.12269780  0.78738512  1
  O  O341  1  0.47066319  0.59293930  0.89328383  1
  O  O342  1  0.59760890  0.82930554  0.81492680  1
  O  O343  1  0.56241180  0.36516881  0.71090931  1
  O  O344  1  0.70891655  0.85851184  0.71405201  1
  O  O345  1  0.73263865  0.32837794  0.81444741  1
  O  O346  1  0.33301421  0.09761275  0.89572426  1
  O  O347  1  0.30942234  0.61539184  0.78504210  1
  O  O348  1  0.57890619  0.74994486  0.70193461  1
  O  O349  1  0.58906568  0.21951784  0.81491185  1
  O  O350  1  0.48642887  0.20009396  0.88998422  1
  O  O351  1  0.41613428  0.73780929  0.79409193  1
  O  O352  1  0.08342226  0.23714741  0.78941858  1
  O  O353  1  0.11100755  0.70037358  0.89157054  1
  O  O354  1  0.95806648  0.71921437  0.81081005  1
  O  O355  1  0.92208648  0.24890683  0.70937967  1
  O  O356  1  0.68799610  0.00346637  0.90352202  1
  O  O357  1  0.89645681  0.31192564  0.01708088  1
  O  O358  1  0.48737970  0.81226716  0.01833958  1
  O  O359  1  0.29931848  0.50318306  0.90329864  1
  O  O360  1  0.95389580  0.51096424  0.93544246  1
  O  O361  1  0.21209635  0.86157406  0.97089383  1
  O  O362  1  0.05971601  0.36362892  0.97083576  1
  O  O363  1  0.01602882  0.01375948  0.93768711  1
  O  O364  1  0.19419898  0.47001583  0.97282817  1
  O  O365  1  0.02968970  0.84998335  0.93232593  1
  O  O366  1  0.26675146  0.34583426  0.93177669  1
  O  O367  1  0.86409316  0.96857745  0.97489978  1
  O  O368  1  0.62040209  0.54289905  0.95881482  1
  O  O369  1  0.56037828  0.83562689  0.96442647  1
  O  O370  1  0.73972877  0.34606364  0.96516821  1
  O  O371  1  0.29833462  0.03700976  0.96020033  1
  O  O372  1  0.63504429  0.29806313  0.91808043  1
  O  O373  1  0.76092130  0.80164137  0.91810454  1
  O  O374  1  0.60752348  0.70031061  0.92255123  1
  O  O375  1  0.98924562  0.20185534  0.92688441  1
