# generated using pymatgen
data_Na8Zr5Si5P2O29
_symmetry_space_group_name_H-M   'P 1'
_cell_length_a   9.15937100
_cell_length_b   16.04975191
_cell_length_c   45.59918656
_cell_angle_alpha   90.00000000
_cell_angle_beta   90.00000000
_cell_angle_gamma   55.20191359
_symmetry_Int_Tables_number   1
_chemical_formula_structural   Na8Zr5Si5P2O29
_chemical_formula_sum   'Na64 Zr40 Si40 P16 O232'
_cell_volume   5504.56784710
_cell_formula_units_Z   8
loop_
 _symmetry_equiv_pos_site_id
 _symmetry_equiv_pos_as_xyz
  1  'x, y, z'
loop_
 _atom_site_type_symbol
 _atom_site_label
 _atom_site_symmetry_multiplicity
 _atom_site_fract_x
 _atom_site_fract_y
 _atom_site_fract_z
 _atom_site_occupancy
  Na  Na0  1  0.78696222  0.81692269  0.07873148  1
  Na  Na1  1  0.78738713  0.34718255  0.16890928  1
  Na  Na2  1  0.18059870  0.18225764  0.02369423  1
  Na  Na3  1  0.20079316  0.69766218  0.13519234  1
  Na  Na4  1  0.40375372  0.19759911  0.13528246  1
  Na  Na5  1  0.45455976  0.68210707  0.02369874  1
  Na  Na6  1  0.51883783  0.84722929  0.16881979  1
  Na  Na7  1  0.57912802  0.31711154  0.07856796  1
  Na  Na8  1  0.89200001  0.01278518  0.09519845  1
  Na  Na9  1  0.98200862  0.44682764  0.98400306  1
  Na  Na10  1  0.12378148  0.94688367  0.98397027  1
  Na  Na11  1  0.08219843  0.51249985  0.09507251  1
  Na  Na12  1  0.76758765  0.85907049  0.26948029  1
  Na  Na13  1  0.72389367  0.37734030  0.36464849  1
  Na  Na14  1  0.15748787  0.21583316  0.23053999  1
  Na  Na15  1  0.13808041  0.72764929  0.33111578  1
  Na  Na16  1  0.40675145  0.22762119  0.33125083  1
  Na  Na17  1  0.41088987  0.71588601  0.23049121  1
  Na  Na18  1  0.52096047  0.87712505  0.36474133  1
  Na  Na19  1  0.51384387  0.35923389  0.26936572  1
  Na  Na20  1  0.85012665  0.04464513  0.30079358  1
  Na  Na21  1  0.86432556  0.53046964  0.19916547  1
  Na  Na22  1  0.07456971  0.03038854  0.19920347  1
  Na  Na23  1  0.06089736  0.54422460  0.30073363  1
  Na  Na24  1  0.74313454  0.89205077  0.47619162  1
  Na  Na25  1  0.13869655  0.25748327  0.42138482  1
  Na  Na26  1  0.34646998  0.75774073  0.42115352  1
  Na  Na27  1  0.47016050  0.39243080  0.47631492  1
  Na  Na28  1  0.79995549  0.12898882  0.51623603  1
  Na  Na29  1  0.84246519  0.56239120  0.40492413  1
  Na  Na30  1  0.03233053  0.06219404  0.40487074  1
  Na  Na31  1  0.94331958  0.62731929  0.51593931  1
  Na  Na32  1  0.63814387  0.25852398  0.57880323  1
  Na  Na33  1  0.63795376  0.72803775  0.66884113  1
  Na  Na34  1  0.24526229  0.89415367  0.52356162  1
  Na  Na35  1  0.22362124  0.37781714  0.63534989  1
  Na  Na36  1  0.02096167  0.87766511  0.63527195  1
  Na  Na37  1  0.96991239  0.39288708  0.52362749  1
  Na  Na38  1  0.90639053  0.22802201  0.66876864  1
  Na  Na39  1  0.84788380  0.75767682  0.57847953  1
  Na  Na40  1  0.53313537  0.06236242  0.59516125  1
  Na  Na41  1  0.44423684  0.62703283  0.48409233  1
  Na  Na42  1  0.30100209  0.12708380  0.48422799  1
  Na  Na43  1  0.34204805  0.56292755  0.59507443  1
  Na  Na44  1  0.65736619  0.21612368  0.76945420  1
  Na  Na45  1  0.70090157  0.69766587  0.86480754  1
  Na  Na46  1  0.26768253  0.85923954  0.73050282  1
  Na  Na47  1  0.28740791  0.34722467  0.83110490  1
  Na  Na48  1  0.01879234  0.84733877  0.83119158  1
  Na  Na49  1  0.01380592  0.35947062  0.73062420  1
  Na  Na50  1  0.90377354  0.19757569  0.86471216  1
  Na  Na51  1  0.91071333  0.71607676  0.76950086  1
  Na  Na52  1  0.57455118  0.03054605  0.80079259  1
  Na  Na53  1  0.56054836  0.54474003  0.69923523  1
  Na  Na54  1  0.35009055  0.04490463  0.69921833  1
  Na  Na55  1  0.36424305  0.53059803  0.80083750  1
  Na  Na56  1  0.68014962  0.18193155  0.97636666  1
  Na  Na57  1  0.28732692  0.81682843  0.92127466  1
  Na  Na58  1  0.07887256  0.31707356  0.92145360  1
  Na  Na59  1  0.95517370  0.68182504  0.97633199  1
  Na  Na60  1  0.62375402  0.94715265  0.01596949  1
  Na  Na61  1  0.58236814  0.51246020  0.90493533  1
  Na  Na62  1  0.39183211  0.01278588  0.90481010  1
  Na  Na63  1  0.48144642  0.44718787  0.01593170  1
  Zr  Zr64  1  0.83108076  0.92522317  0.15676465  1
  Zr  Zr65  1  0.85914443  0.40916153  0.05170193  1
  Zr  Zr66  1  0.11476678  0.12394088  0.13984649  1
  Zr  Zr67  1  0.13957715  0.63346802  0.04571622  1
  Zr  Zr68  1  0.59311809  0.13345868  0.04570506  1
  Zr  Zr69  1  0.63743473  0.62392079  0.13982905  1
  Zr  Zr70  1  0.32228479  0.90913855  0.05171131  1
  Zr  Zr71  1  0.31869960  0.42523920  0.15669193  1
  Zr  Zr72  1  0.81009021  0.95098687  0.36012042  1
  Zr  Zr73  1  0.81589981  0.43735772  0.25851757  1
  Zr  Zr74  1  0.09393765  0.14961305  0.34319389  1
  Zr  Zr75  1  0.10940066  0.63752018  0.24143568  1
  Zr  Zr76  1  0.61556274  0.13756424  0.24143843  1
  Zr  Zr77  1  0.60675364  0.64957453  0.34319075  1
  Zr  Zr78  1  0.30952642  0.93736322  0.25850398  1
  Zr  Zr79  1  0.28757156  0.45102235  0.36019213  1
  Zr  Zr80  1  0.78555228  0.44086969  0.45426091  1
  Zr  Zr81  1  0.06627179  0.66533745  0.44824618  1
  Zr  Zr82  1  0.60265078  0.16540284  0.44832947  1
  Zr  Zr83  1  0.33120646  0.94110434  0.45421870  1
  Zr  Zr84  1  0.59383682  0.15003326  0.65682434  1
  Zr  Zr85  1  0.56535600  0.66623246  0.55169649  1
  Zr  Zr86  1  0.31032161  0.95137184  0.63986629  1
  Zr  Zr87  1  0.28541870  0.44142535  0.54570665  1
  Zr  Zr88  1  0.83243322  0.94183747  0.54566652  1
  Zr  Zr89  1  0.78757983  0.45141907  0.63981252  1
  Zr  Zr90  1  0.10238530  0.16605449  0.55176838  1
  Zr  Zr91  1  0.10644747  0.65001907  0.65680557  1
  Zr  Zr92  1  0.61482436  0.12393250  0.86016737  1
  Zr  Zr93  1  0.60928309  0.63771185  0.75858061  1
  Zr  Zr94  1  0.33108292  0.92528793  0.84322195  1
  Zr  Zr95  1  0.31565703  0.43766025  0.74146847  1
  Zr  Zr96  1  0.80944760  0.93764864  0.74148833  1
  Zr  Zr97  1  0.81864302  0.42529355  0.84330263  1
  Zr  Zr98  1  0.11548065  0.13775899  0.75856295  1
  Zr  Zr99  1  0.13741634  0.62390692  0.86018233  1
  Zr  Zr100  1  0.63979959  0.63333989  0.95432948  1
  Zr  Zr101  1  0.35943542  0.40897895  0.94830356  1
  Zr  Zr102  1  0.82235453  0.90901151  0.94828965  1
  Zr  Zr103  1  0.09294130  0.13335623  0.95432962  1
  Si  Si104  1  0.00820584  0.38080922  0.12753180  1
  Si  Si105  1  0.97639824  0.88453964  0.02645808  1
  Si  Si106  1  0.94457434  0.66926304  0.16824855  1
  Si  Si107  1  0.96493252  0.15496236  0.06662739  1
  Si  Si108  1  0.72483489  0.65491656  0.06658950  1
  Si  Si109  1  0.71723669  0.16916227  0.16828324  1
  Si  Si110  1  0.25411788  0.38454091  0.02647144  1
  Si  Si111  1  0.23023533  0.88084443  0.12755514  1
  Si  Si112  1  0.98089568  0.40558863  0.33165678  1
  Si  Si113  1  0.99429490  0.89420528  0.23021405  1
  Si  Si114  1  0.91685483  0.69400912  0.37242366  1
  Si  Si115  1  0.93057371  0.18072530  0.26978336  1
  Si  Si116  1  0.70789353  0.68075110  0.26974156  1
  Si  Si117  1  0.69498007  0.19416348  0.37253415  1
  Si  Si118  1  0.21705586  0.39424596  0.23004984  1
  Si  Si119  1  0.20802865  0.90550217  0.33167221  1
  Si  Si120  1  0.95975036  0.91954280  0.43336244  1
  Si  Si121  1  0.94817567  0.19008200  0.47355974  1
  Si  Si122  1  0.67097783  0.69000343  0.47347699  1
  Si  Si123  1  0.20017041  0.41951869  0.43336615  1
  Si  Si124  1  0.41671510  0.69447980  0.62754786  1
  Si  Si125  1  0.44798471  0.19054021  0.52645367  1
  Si  Si126  1  0.48054847  0.40605375  0.66831599  1
  Si  Si127  1  0.46093347  0.92006259  0.56667444  1
  Si  Si128  1  0.69990553  0.42035381  0.56658938  1
  Si  Si129  1  0.70795061  0.90595453  0.66831454  1
  Si  Si130  1  0.17059479  0.69037892  0.52633883  1
  Si  Si131  1  0.19496594  0.19453945  0.62754328  1
  Si  Si132  1  0.44449461  0.66931498  0.83176010  1
  Si  Si133  1  0.43044582  0.18101730  0.73021577  1
  Si  Si134  1  0.50826690  0.38079902  0.87248465  1
  Si  Si135  1  0.49425617  0.89440901  0.76978300  1
  Si  Si136  1  0.71694774  0.39446164  0.76991733  1
  Si  Si137  1  0.73022838  0.88084052  0.87244538  1
  Si  Si138  1  0.20772559  0.68100194  0.73025811  1
  Si  Si139  1  0.21723105  0.16923987  0.83172136  1
  Si  Si140  1  0.46487004  0.15484132  0.93336227  1
  Si  Si141  1  0.47639945  0.88450149  0.97357454  1
  Si  Si142  1  0.75421652  0.38448824  0.97356022  1
  Si  Si143  1  0.22500612  0.65482929  0.93341263  1
  P  P144  1  0.51422147  0.01742662  0.09742698  1
  P  P145  1  0.45078058  0.51752533  0.09741860  1
  P  P146  1  0.49709166  0.04406117  0.30092680  1
  P  P147  1  0.51024781  0.53109658  0.19900788  1
  P  P148  1  0.42754540  0.03121849  0.19903130  1
  P  P149  1  0.41512312  0.54364326  0.30098700  1
  P  P150  1  0.47443508  0.55734535  0.40256877  1
  P  P151  1  0.41072699  0.05713266  0.40252560  1
  P  P152  1  0.91066116  0.05784873  0.59751477  1
  P  P153  1  0.97418652  0.55782741  0.59738869  1
  P  P154  1  0.92743986  0.03142104  0.80097309  1
  P  P155  1  0.91480033  0.54405888  0.69902572  1
  P  P156  1  0.99722976  0.04422074  0.69907058  1
  P  P157  1  0.01023262  0.53115460  0.80099771  1
  P  P158  1  0.95081607  0.51747660  0.90262052  1
  P  P159  1  0.01435747  0.01734244  0.90257698  1
  O  O160  1  0.81687965  0.98370098  0.04473168  1
  O  O161  1  0.84807573  0.47015914  0.14854372  1
  O  O162  1  0.13946989  0.06365522  0.04916890  1
  O  O163  1  0.11080733  0.57819167  0.14886045  1
  O  O164  1  0.73380799  0.07799315  0.14882948  1
  O  O165  1  0.73323239  0.56355139  0.04912407  1
  O  O166  1  0.21143179  0.97023813  0.14858767  1
  O  O167  1  0.21542399  0.48361857  0.04479478  1
  O  O168  1  0.58227351  0.97148127  0.17696850  1
  O  O169  1  0.58473825  0.45976157  0.07231809  1
  O  O170  1  0.36352766  0.06563059  0.12008192  1
  O  O171  1  0.29299478  0.61722658  0.01577142  1
  O  O172  1  0.47190672  0.11721717  0.01580604  1
  O  O173  1  0.50492534  0.56575586  0.12009003  1
  O  O174  1  0.49601900  0.95948538  0.07235630  1
  O  O175  1  0.47530303  0.47127142  0.17692254  1
  O  O176  1  0.69559988  0.94379885  0.11299462  1
  O  O177  1  0.26673496  0.61047528  0.08552109  1
  O  O178  1  0.51229007  0.11037491  0.08551683  1
  O  O179  1  0.41707639  0.44369983  0.11295709  1
  O  O180  1  0.92443896  0.90403726  0.99127836  1
  O  O181  1  0.95573438  0.40481273  0.09282805  1
  O  O182  1  0.99765337  0.13635471  0.10243548  1
  O  O183  1  0.72989302  0.63608538  0.10239062  1
  O  O184  1  0.23469787  0.90492298  0.09286645  1
  O  O185  1  0.26702257  0.40416267  0.99130028  1
  O  O186  1  0.09470112  0.36708856  0.03133594  1
  O  O187  1  0.05317676  0.87798389  0.13175812  1
  O  O188  1  0.89783564  0.65824993  0.06161557  1
  O  O189  1  0.89260790  0.17299658  0.16533099  1
  O  O190  1  0.76195153  0.67267444  0.16528554  1
  O  O191  1  0.78533358  0.15817347  0.06168749  1
  O  O192  1  0.19081372  0.37819216  0.13170354  1
  O  O193  1  0.17067954  0.86719463  0.03134389  1
  O  O194  1  0.90473610  0.77707394  0.15689116  1
  O  O195  1  0.93113129  0.26282402  0.05717018  1
  O  O196  1  0.05425204  0.27055492  0.13859044  1
  O  O197  1  0.97139692  0.79046645  0.03938035  1
  O  O198  1  0.44749082  0.29043251  0.03932627  1
  O  O199  1  0.40487147  0.77059212  0.13860669  1
  O  O200  1  0.54255272  0.76266107  0.05718565  1
  O  O201  1  0.54076723  0.27685685  0.15702776  1
  O  O202  1  0.82768056  0.98436900  0.24980227  1
  O  O203  1  0.81481697  0.49679282  0.35104777  1
  O  O204  1  0.09725701  0.09050812  0.25023017  1
  O  O205  1  0.07678072  0.60465512  0.35137309  1
  O  O206  1  0.71315577  0.10488286  0.35152107  1
  O  O207  1  0.72140460  0.59058551  0.25019891  1
  O  O208  1  0.19173655  0.99674455  0.35103255  1
  O  O209  1  0.20356285  0.48428613  0.24967073  1
  O  O210  1  0.56147229  0.00877323  0.37988093  1
  O  O211  1  0.56816749  0.48477852  0.27854419  1
  O  O212  1  0.34248255  0.10376034  0.32301099  1
  O  O213  1  0.35728338  0.59005589  0.22145593  1
  O  O214  1  0.46271234  0.08993274  0.22155163  1
  O  O215  1  0.45013480  0.60343984  0.32307250  1
  O  O216  1  0.46216656  0.98500721  0.27849508  1
  O  O217  1  0.41948768  0.50948685  0.37991684  1
  O  O218  1  0.67379818  0.96483739  0.31690700  1
  O  O219  1  0.68849163  0.45286071  0.21481039  1
  O  O220  1  0.25111352  0.11069454  0.18303386  1
  O  O221  1  0.23674264  0.62173685  0.28519276  1
  O  O222  1  0.51903967  0.12227068  0.28515610  1
  O  O223  1  0.52843070  0.61036692  0.18304862  1
  O  O224  1  0.40511562  0.95308795  0.21473278  1
  O  O225  1  0.39727964  0.46429335  0.31697073  1
  O  O226  1  0.94460192  0.91523900  0.19513442  1
  O  O227  1  0.92907854  0.42724014  0.29670843  1
  O  O228  1  0.98017222  0.15945727  0.30486325  1
  O  O229  1  0.99629219  0.64818123  0.20320151  1
  O  O230  1  0.70842395  0.14739264  0.20320205  1
  O  O231  1  0.69993769  0.65983019  0.30482616  1
  O  O232  1  0.21790088  0.92657915  0.29673628  1
  O  O233  1  0.22405727  0.41568790  0.19499710  1
  O  O234  1  0.04046137  0.39175691  0.23385236  1
  O  O235  1  0.03198378  0.90231803  0.33461277  1
  O  O236  1  0.88481820  0.68293674  0.26602488  1
  O  O237  1  0.87230482  0.19677175  0.36831277  1
  O  O238  1  0.73394729  0.69693889  0.36828084  1
  O  O239  1  0.74891544  0.18332271  0.26599894  1
  O  O240  1  0.16374821  0.40189072  0.33468496  1
  O  O241  1  0.17579298  0.89180983  0.23395325  1
  O  O242  1  0.87092134  0.80425195  0.36134383  1
  O  O243  1  0.88884045  0.28952602  0.25890187  1
  O  O244  1  0.01964084  0.29792924  0.34287463  1
  O  O245  1  0.03662310  0.78530332  0.24113754  1
  O  O246  1  0.39277914  0.28535233  0.24090478  1
  O  O247  1  0.38380953  0.79777151  0.34306425  1
  O  O248  1  0.53269066  0.78964544  0.25877362  1
  O  O249  1  0.52062366  0.30448769  0.36148516  1
  O  O250  1  0.78551965  0.01095687  0.45087090  1
  O  O251  1  0.10738129  0.09083166  0.45524901  1
  O  O252  1  0.70962568  0.59072507  0.45528548  1
  O  O253  1  0.19232430  0.51084981  0.45078268  1
  O  O254  1  0.63255272  0.45693591  0.48426498  1
  O  O255  1  0.34047925  0.61531770  0.42766308  1
  O  O256  1  0.42947017  0.11471914  0.42764356  1
  O  O257  1  0.45171201  0.95705351  0.48432893  1
  O  O258  1  0.65824645  0.46422938  0.41445124  1
  O  O259  1  0.22947480  0.13110472  0.38697372  1
  O  O260  1  0.50880140  0.63087416  0.38701332  1
  O  O261  1  0.41204303  0.96436553  0.41442720  1
  O  O262  1  0.92711124  0.93854570  0.39756694  1
  O  O263  1  0.00064116  0.17072585  0.50872069  1
  O  O264  1  0.96996670  0.66966030  0.40709289  1
  O  O265  1  0.69069549  0.16989501  0.40722072  1
  O  O266  1  0.65767314  0.67085956  0.50867139  1
  O  O267  1  0.19525629  0.43840856  0.39757396  1
  O  O268  1  0.02692291  0.41641060  0.43834186  1
  O  O269  1  0.83086711  0.70709170  0.46860700  1
  O  O270  1  0.75370733  0.20764651  0.46875693  1
  O  O271  1  0.13972970  0.91592451  0.43834404  1
  O  O272  1  0.95355409  0.28392757  0.46053977  1
  O  O273  1  0.99238896  0.81197213  0.44274720  1
  O  O274  1  0.38203413  0.31162667  0.44274157  1
  O  O275  1  0.47834562  0.78399802  0.46040174  1
  O  O276  1  0.60757886  0.09119549  0.54467829  1
  O  O277  1  0.57689994  0.60515342  0.64856058  1
  O  O278  1  0.28656746  0.01177806  0.54926482  1
  O  O279  1  0.31434121  0.49716667  0.64892694  1
  O  O280  1  0.69148732  0.99721128  0.64892777  1
  O  O281  1  0.69204696  0.51161607  0.54915783  1
  O  O282  1  0.21346624  0.10519233  0.64855610  1
  O  O283  1  0.20793676  0.59174124  0.54475249  1
  O  O284  1  0.84245370  0.10397410  0.67701589  1
  O  O285  1  0.84034428  0.61567213  0.57228046  1
  O  O286  1  0.06152791  0.00947560  0.62013543  1
  O  O287  1  0.13246944  0.45721528  0.51574413  1
  O  O288  1  0.95412329  0.95878748  0.51604141  1
  O  O289  1  0.91955664  0.50979667  0.62004677  1
  O  O290  1  0.92912798  0.11559881  0.57240403  1
  O  O291  1  0.94962106  0.60407377  0.67698925  1
  O  O292  1  0.72944775  0.13178634  0.61308987  1
  O  O293  1  0.15815589  0.46476431  0.58550749  1
  O  O294  1  0.91188384  0.96514035  0.58561230  1
  O  O295  1  0.00830240  0.63144982  0.61296004  1
  O  O296  1  0.49967453  0.17080434  0.49126920  1
  O  O297  1  0.46933750  0.67033093  0.59285574  1
  O  O298  1  0.42760974  0.93883995  0.60246571  1
  O  O299  1  0.69543438  0.43883722  0.60239833  1
  O  O300  1  0.18999491  0.17046816  0.59287226  1
  O  O301  1  0.15894838  0.67017706  0.49117359  1
  O  O302  1  0.33045037  0.70739684  0.53136683  1
  O  O303  1  0.37223671  0.19721208  0.63169135  1
  O  O304  1  0.52645506  0.41732373  0.56164573  1
  O  O305  1  0.53217797  0.90251603  0.66540194  1
  O  O306  1  0.66324073  0.40254117  0.66530085  1
  O  O307  1  0.64090180  0.91643087  0.56178411  1
  O  O308  1  0.23404793  0.69718554  0.63174755  1
  O  O309  1  0.25348605  0.20833101  0.53139650  1
  O  O310  1  0.51971996  0.29830647  0.65708657  1
  O  O311  1  0.49335250  0.81256831  0.55716343  1
  O  O312  1  0.37078840  0.80472023  0.63861875  1
  O  O313  1  0.45414716  0.28429880  0.53936299  1
  O  O314  1  0.97718619  0.78504873  0.53898713  1
  O  O315  1  0.02060735  0.30483535  0.63861540  1
  O  O316  1  0.88160306  0.31241618  0.55716170  1
  O  O317  1  0.88397006  0.79826866  0.65696294  1
  O  O318  1  0.59730133  0.09081671  0.74975670  1
  O  O319  1  0.61075693  0.57823169  0.85114049  1
  O  O320  1  0.32759853  0.98453472  0.75020609  1
  O  O321  1  0.34810497  0.47015109  0.85147456  1
  O  O322  1  0.71149969  0.97022570  0.85141478  1
  O  O323  1  0.70357621  0.48445536  0.75029805  1
  O  O324  1  0.23371240  0.07806803  0.85115576  1
  O  O325  1  0.22114077  0.59085109  0.74979658  1
  O  O326  1  0.86363198  0.06554248  0.87992554  1
  O  O327  1  0.85720878  0.59017358  0.77856180  1
  O  O328  1  0.08230745  0.97156900  0.82300674  1
  O  O329  1  0.06782508  0.48515013  0.72146121  1
  O  O330  1  0.96243263  0.98509471  0.72149613  1
  O  O331  1  0.97532608  0.47129028  0.82307332  1
  O  O332  1  0.96251908  0.09018430  0.77845743  1
  O  O333  1  0.00500779  0.56568509  0.87994435  1
  O  O334  1  0.75113263  0.11085538  0.81700591  1
  O  O335  1  0.73633226  0.62197545  0.71481750  1
  O  O336  1  0.17388337  0.96506608  0.68307128  1
  O  O337  1  0.18846826  0.45298780  0.78518447  1
  O  O338  1  0.90478726  0.95338584  0.78527009  1
  O  O339  1  0.89712524  0.46473897  0.68299076  1
  O  O340  1  0.01918132  0.12241830  0.71484739  1
  O  O341  1  0.02843145  0.61038905  0.81697271  1
  O  O342  1  0.47987583  0.15992255  0.69513148  1
  O  O343  1  0.49618594  0.64827476  0.79680612  1
  O  O344  1  0.44467134  0.91542894  0.80486901  1
  O  O345  1  0.42860686  0.42761861  0.70326054  1
  O  O346  1  0.71760035  0.92718764  0.70324230  1
  O  O347  1  0.72402624  0.41581079  0.80498142  1
  O  O348  1  0.20833457  0.14761646  0.79679299  1
  O  O349  1  0.19996061  0.66005277  0.69516874  1
  O  O350  1  0.38461468  0.68319680  0.73400940  1
  O  O351  1  0.39263162  0.17303661  0.83468074  1
  O  O352  1  0.54025157  0.39209274  0.76611231  1
  O  O353  1  0.55308936  0.87805609  0.86824962  1
  O  O354  1  0.69084654  0.37819733  0.86829240  1
  O  O355  1  0.67568331  0.89206058  0.76601432  1
  O  O356  1  0.26186480  0.67274925  0.83473354  1
  O  O357  1  0.24891177  0.18349171  0.73401494  1
  O  O358  1  0.55433684  0.27053724  0.86143116  1
  O  O359  1  0.53660992  0.78547418  0.75888351  1
  O  O360  1  0.40474657  0.77712479  0.84309792  1
  O  O361  1  0.38851540  0.28984293  0.74110603  1
  O  O362  1  0.03244736  0.78989241  0.74120623  1
  O  O363  1  0.04076842  0.27694437  0.84297961  1
  O  O364  1  0.89263632  0.28553988  0.75907132  1
  O  O365  1  0.90480733  0.77056801  0.86138862  1
  O  O366  1  0.63938239  0.06350437  0.95082959  1
  O  O367  1  0.31678532  0.98360622  0.95529634  1
  O  O368  1  0.71572856  0.48342038  0.95517820  1
  O  O369  1  0.23362035  0.56336463  0.95087260  1
  O  O370  1  0.79374477  0.61684806  0.98421025  1
  O  O371  1  0.08491371  0.45960321  0.92769456  1
  O  O372  1  0.99622550  0.95935274  0.92764320  1
  O  O373  1  0.97137242  0.11698330  0.98412637  1
  O  O374  1  0.76690259  0.61047784  0.91454266  1
  O  O375  1  0.19574357  0.94375362  0.88700616  1
  O  O376  1  0.91677482  0.44378213  0.88708752  1
  O  O377  1  0.01234850  0.11032304  0.91448292  1
  O  O378  1  0.49766426  0.13621988  0.89755986  1
  O  O379  1  0.42451877  0.90418486  0.00875390  1
  O  O380  1  0.45592073  0.40474731  0.90719004  1
  O  O381  1  0.73475795  0.90484339  0.90714007  1
  O  O382  1  0.76651024  0.40442920  0.00872947  1
  O  O383  1  0.22990581  0.63607833  0.89761233  1
  O  O384  1  0.39799336  0.65819428  0.93838114  1
  O  O385  1  0.59492701  0.36696845  0.96865410  1
  O  O386  1  0.67065295  0.86712735  0.96863960  1
  O  O387  1  0.28523161  0.15807123  0.93829622  1
  O  O388  1  0.47141072  0.79032085  0.96074169  1
  O  O389  1  0.43114617  0.26268915  0.94281873  1
  O  O390  1  0.04269920  0.76253931  0.94282986  1
  O  O391  1  0.94787913  0.29027380  0.96082350  1
