# generated using pymatgen
data_Na8Zr5Si5P2O29
_symmetry_space_group_name_H-M   'P 1'
_cell_length_a   9.15937100
_cell_length_b   16.04975191
_cell_length_c   45.60012310
_cell_angle_alpha   90.00000000
_cell_angle_beta   90.00000000
_cell_angle_gamma   55.20191359
_symmetry_Int_Tables_number   1
_chemical_formula_structural   Na8Zr5Si5P2O29
_chemical_formula_sum   'Na64 Zr40 Si40 P16 O232'
_cell_volume   5504.68090272
_cell_formula_units_Z   8
loop_
 _symmetry_equiv_pos_site_id
 _symmetry_equiv_pos_as_xyz
  1  'x, y, z'
loop_
 _atom_site_type_symbol
 _atom_site_label
 _atom_site_symmetry_multiplicity
 _atom_site_fract_x
 _atom_site_fract_y
 _atom_site_fract_z
 _atom_site_occupancy
  Na  Na0  1  0.78739470  0.81686251  0.07866275  1
  Na  Na1  1  0.78753826  0.34704640  0.16893258  1
  Na  Na2  1  0.18046340  0.18196581  0.02365922  1
  Na  Na3  1  0.20093457  0.69747025  0.13521528  1
  Na  Na4  1  0.40379596  0.19745088  0.13530245  1
  Na  Na5  1  0.45577171  0.68151346  0.02366790  1
  Na  Na6  1  0.51896634  0.84716038  0.16879325  1
  Na  Na7  1  0.57923811  0.31684740  0.07859744  1
  Na  Na8  1  0.89209314  0.01257635  0.09518650  1
  Na  Na9  1  0.98146346  0.44711764  0.98406383  1
  Na  Na10  1  0.12387299  0.94696235  0.98399835  1
  Na  Na11  1  0.08238339  0.51237107  0.09507026  1
  Na  Na12  1  0.76756371  0.85912895  0.26945677  1
  Na  Na13  1  0.72375649  0.37766158  0.36460678  1
  Na  Na14  1  0.15755514  0.21593387  0.23054029  1
  Na  Na15  1  0.13784057  0.72789078  0.33111965  1
  Na  Na16  1  0.40648580  0.22790823  0.33120819  1
  Na  Na17  1  0.41089266  0.71596245  0.23048312  1
  Na  Na18  1  0.52106790  0.87750236  0.36475043  1
  Na  Na19  1  0.51385771  0.35933436  0.26935776  1
  Na  Na20  1  0.85022754  0.04477935  0.30077966  1
  Na  Na21  1  0.86436699  0.53042484  0.19915648  1
  Na  Na22  1  0.07467780  0.03034651  0.19919681  1
  Na  Na23  1  0.06074286  0.54450376  0.30074393  1
  Na  Na24  1  0.74424775  0.89336608  0.47635962  1
  Na  Na25  1  0.13817658  0.25823742  0.42124560  1
  Na  Na26  1  0.34685807  0.75774345  0.42138736  1
  Na  Na27  1  0.47011488  0.39277355  0.47635713  1
  Na  Na28  1  0.80042266  0.12808857  0.51597139  1
  Na  Na29  1  0.84213094  0.56282931  0.40494562  1
  Na  Na30  1  0.03258156  0.06248593  0.40485913  1
  Na  Na31  1  0.94386148  0.62720133  0.51588715  1
  Na  Na32  1  0.63817995  0.25816179  0.57872216  1
  Na  Na33  1  0.63769471  0.72793350  0.66889342  1
  Na  Na34  1  0.24387847  0.89321163  0.52369395  1
  Na  Na35  1  0.22380028  0.37767112  0.63537980  1
  Na  Na36  1  0.02102325  0.87750928  0.63525300  1
  Na  Na37  1  0.96986951  0.39286708  0.52364880  1
  Na  Na38  1  0.90635869  0.22792816  0.66877577  1
  Na  Na39  1  0.84663859  0.75780504  0.57864980  1
  Na  Na40  1  0.53236726  0.06253107  0.59514921  1
  Na  Na41  1  0.44384163  0.62717577  0.48412817  1
  Na  Na42  1  0.30037748  0.12819319  0.48400553  1
  Na  Na43  1  0.34204819  0.56283658  0.59506235  1
  Na  Na44  1  0.65743610  0.21597334  0.76946370  1
  Na  Na45  1  0.70088156  0.69754592  0.86479362  1
  Na  Na46  1  0.26754786  0.85918424  0.73054474  1
  Na  Na47  1  0.28740658  0.34710728  0.83108527  1
  Na  Na48  1  0.01880298  0.84720120  0.83117053  1
  Na  Na49  1  0.01374945  0.35938674  0.73063446  1
  Na  Na50  1  0.90374795  0.19748980  0.86470271  1
  Na  Na51  1  0.91076023  0.71599169  0.76950194  1
  Na  Na52  1  0.57456910  0.03039189  0.80079388  1
  Na  Na53  1  0.56057692  0.54460255  0.69926132  1
  Na  Na54  1  0.35012600  0.04483962  0.69921320  1
  Na  Na55  1  0.36431811  0.53045202  0.80085552  1
  Na  Na56  1  0.68022826  0.18192474  0.97633966  1
  Na  Na57  1  0.28710567  0.81675421  0.92121680  1
  Na  Na58  1  0.07884162  0.31707821  0.92145375  1
  Na  Na59  1  0.95445701  0.68200434  0.97627984  1
  Na  Na60  1  0.62373036  0.94696726  0.01597262  1
  Na  Na61  1  0.58225549  0.51234350  0.90493222  1
  Na  Na62  1  0.39190050  0.01271488  0.90480018  1
  Na  Na63  1  0.48207943  0.44665151  0.01603558  1
  Zr  Zr64  1  0.83115317  0.92516481  0.15677146  1
  Zr  Zr65  1  0.85939892  0.40890536  0.05171031  1
  Zr  Zr66  1  0.11491721  0.12373065  0.13982595  1
  Zr  Zr67  1  0.13996405  0.63324912  0.04567505  1
  Zr  Zr68  1  0.59306376  0.13328598  0.04568352  1
  Zr  Zr69  1  0.63755877  0.62373736  0.13983178  1
  Zr  Zr70  1  0.32249850  0.90887466  0.05169505  1
  Zr  Zr71  1  0.31871065  0.42520594  0.15668307  1
  Zr  Zr72  1  0.81024705  0.95128425  0.36012535  1
  Zr  Zr73  1  0.81579102  0.43752752  0.25851182  1
  Zr  Zr74  1  0.09382950  0.14989168  0.34317041  1
  Zr  Zr75  1  0.10942371  0.63755698  0.24142582  1
  Zr  Zr76  1  0.61558134  0.13759489  0.24143806  1
  Zr  Zr77  1  0.60657328  0.64985171  0.34319483  1
  Zr  Zr78  1  0.30954421  0.93749271  0.25851514  1
  Zr  Zr79  1  0.28758711  0.45131814  0.36017874  1
  Zr  Zr80  1  0.78560307  0.44125102  0.45427703  1
  Zr  Zr81  1  0.06572525  0.66593909  0.44828801  1
  Zr  Zr82  1  0.60239632  0.16590851  0.44826510  1
  Zr  Zr83  1  0.33188125  0.94160039  0.45426548  1
  Zr  Zr84  1  0.59378319  0.14991294  0.65682770  1
  Zr  Zr85  1  0.56572584  0.66590333  0.55173388  1
  Zr  Zr86  1  0.31015057  0.95130829  0.63987396  1
  Zr  Zr87  1  0.28554282  0.44126179  0.54572527  1
  Zr  Zr88  1  0.83163004  0.94162652  0.54576384  1
  Zr  Zr89  1  0.78755394  0.45134965  0.63984616  1
  Zr  Zr90  1  0.10233910  0.16594752  0.55172859  1
  Zr  Zr91  1  0.10649926  0.64987846  0.65681466  1
  Zr  Zr92  1  0.61482008  0.12381023  0.86014511  1
  Zr  Zr93  1  0.60933522  0.63760198  0.75858369  1
  Zr  Zr94  1  0.33111768  0.92518946  0.84322753  1
  Zr  Zr95  1  0.31569578  0.43757951  0.74149605  1
  Zr  Zr96  1  0.80941961  0.93756145  0.74147624  1
  Zr  Zr97  1  0.81864752  0.42521566  0.84331752  1
  Zr  Zr98  1  0.11550339  0.13762567  0.75855940  1
  Zr  Zr99  1  0.13745290  0.62380876  0.86017966  1
  Zr  Zr100  1  0.63952170  0.63339744  0.95428408  1
  Zr  Zr101  1  0.35930366  0.40897477  0.94830550  1
  Zr  Zr102  1  0.82236566  0.90904359  0.94828194  1
  Zr  Zr103  1  0.09290938  0.13338731  0.95430266  1
  Si  Si104  1  0.00832792  0.38061910  0.12753403  1
  Si  Si105  1  0.97641738  0.88443175  0.02642442  1
  Si  Si106  1  0.94449690  0.66921515  0.16826081  1
  Si  Si107  1  0.96501366  0.15468296  0.06662058  1
  Si  Si108  1  0.72518591  0.65473353  0.06662547  1
  Si  Si109  1  0.71727889  0.16911884  0.16828035  1
  Si  Si110  1  0.25421454  0.38437185  0.02644328  1
  Si  Si111  1  0.23040757  0.88062790  0.12753388  1
  Si  Si112  1  0.98069908  0.40589089  0.33165092  1
  Si  Si113  1  0.99434361  0.89425233  0.23021527  1
  Si  Si114  1  0.91677347  0.69431736  0.37245862  1
  Si  Si115  1  0.93056157  0.18088619  0.26976549  1
  Si  Si116  1  0.70782735  0.68087131  0.26974052  1
  Si  Si117  1  0.69489724  0.19446768  0.37246871  1
  Si  Si118  1  0.21708743  0.39430286  0.23005193  1
  Si  Si119  1  0.20802660  0.90575719  0.33169112  1
  Si  Si120  1  0.96029417  0.91996495  0.43333779  1
  Si  Si121  1  0.94808664  0.19042540  0.47355391  1
  Si  Si122  1  0.67065483  0.69033130  0.47356345  1
  Si  Si123  1  0.20010038  0.42014736  0.43339356  1
  Si  Si124  1  0.41668196  0.69433027  0.62755284  1
  Si  Si125  1  0.44807615  0.19042569  0.52645217  1
  Si  Si126  1  0.48061810  0.40592196  0.66835725  1
  Si  Si127  1  0.46007621  0.91999802  0.56665879  1
  Si  Si128  1  0.70004011  0.42012588  0.56663688  1
  Si  Si129  1  0.70791012  0.90578990  0.66830115  1
  Si  Si130  1  0.17060551  0.69038693  0.52646487  1
  Si  Si131  1  0.19484567  0.19449117  0.62753070  1
  Si  Si132  1  0.44443835  0.66924838  0.83175225  1
  Si  Si133  1  0.43043156  0.18094816  0.73023243  1
  Si  Si134  1  0.50828127  0.38065083  0.87247608  1
  Si  Si135  1  0.49428495  0.89430173  0.76978452  1
  Si  Si136  1  0.71698378  0.39433915  0.76994642  1
  Si  Si137  1  0.73028762  0.88073193  0.87245009  1
  Si  Si138  1  0.20776055  0.68092927  0.73026031  1
  Si  Si139  1  0.21720052  0.16912863  0.83171904  1
  Si  Si140  1  0.46482472  0.15484072  0.93333908  1
  Si  Si141  1  0.47647089  0.88445622  0.97352689  1
  Si  Si142  1  0.75409411  0.38448275  0.97355143  1
  Si  Si143  1  0.22489983  0.65480919  0.93340463  1
  P  P144  1  0.51440548  0.01726566  0.09741429  1
  P  P145  1  0.45084238  0.51738333  0.09739028  1
  P  P146  1  0.49723781  0.04412287  0.30093110  1
  P  P147  1  0.51025985  0.53107620  0.19899872  1
  P  P148  1  0.42760409  0.03118543  0.19903211  1
  P  P149  1  0.41498996  0.54387600  0.30097452  1
  P  P150  1  0.47443806  0.55755990  0.40257825  1
  P  P151  1  0.41064712  0.05775937  0.40249665  1
  P  P152  1  0.91059625  0.05776898  0.59750423  1
  P  P153  1  0.97438894  0.55757545  0.59743438  1
  P  P154  1  0.92752974  0.03124801  0.80096779  1
  P  P155  1  0.91488932  0.54394526  0.69903569  1
  P  P156  1  0.99720981  0.04413375  0.69906559  1
  P  P157  1  0.01018700  0.53110810  0.80100980  1
  P  P158  1  0.95077035  0.51742886  0.90260777  1
  P  P159  1  0.01428734  0.01731133  0.90256433  1
  O  O160  1  0.81671947  0.98342869  0.04472870  1
  O  O161  1  0.84815850  0.46993207  0.14854663  1
  O  O162  1  0.13956899  0.06339366  0.04915220  1
  O  O163  1  0.11078403  0.57818684  0.14886737  1
  O  O164  1  0.73382142  0.07793721  0.14883816  1
  O  O165  1  0.73381920  0.56325295  0.04917363  1
  O  O166  1  0.21167574  0.97000758  0.14856241  1
  O  O167  1  0.21552854  0.48342329  0.04478082  1
  O  O168  1  0.58232746  0.97145714  0.17696810  1
  O  O169  1  0.58484983  0.45954112  0.07230270  1
  O  O170  1  0.36367624  0.06541157  0.12006435  1
  O  O171  1  0.29409364  0.61671006  0.01582258  1
  O  O172  1  0.47176059  0.11704089  0.01580452  1
  O  O173  1  0.50520104  0.56548295  0.12006876  1
  O  O174  1  0.49629443  0.95929869  0.07233757  1
  O  O175  1  0.47530568  0.47124360  0.17691838  1
  O  O176  1  0.69582489  0.94368156  0.11297665  1
  O  O177  1  0.25115280  0.11055998  0.18302528  1
  O  O178  1  0.26688838  0.61039921  0.08549293  1
  O  O179  1  0.51230867  0.11029171  0.08551895  1
  O  O180  1  0.52855818  0.61028021  0.18302813  1
  O  O181  1  0.41684195  0.44365518  0.11291811  1
  O  O182  1  0.92450596  0.90414121  0.99124685  1
  O  O183  1  0.95587576  0.40453676  0.09283109  1
  O  O184  1  0.99775884  0.13602028  0.10242403  1
  O  O185  1  0.73020013  0.63593103  0.10242218  1
  O  O186  1  0.23490036  0.90467922  0.09284577  1
  O  O187  1  0.26673402  0.40414519  0.99127245  1
  O  O188  1  0.09489052  0.36687816  0.03134630  1
  O  O189  1  0.05328815  0.87782753  0.13175906  1
  O  O190  1  0.89808664  0.65816500  0.06164203  1
  O  O191  1  0.89272366  0.17287534  0.16531581  1
  O  O192  1  0.76195025  0.67255546  0.16530451  1
  O  O193  1  0.78542874  0.15786951  0.06166925  1
  O  O194  1  0.19081826  0.37811563  0.13171595  1
  O  O195  1  0.17062990  0.86712925  0.03135103  1
  O  O196  1  0.90454438  0.77707086  0.15693111  1
  O  O197  1  0.93115212  0.26257147  0.05717551  1
  O  O198  1  0.05453561  0.27032118  0.13858527  1
  O  O199  1  0.97164263  0.79017560  0.03924105  1
  O  O200  1  0.44778989  0.29025868  0.03924550  1
  O  O201  1  0.40497419  0.77035538  0.13858847  1
  O  O202  1  0.54281362  0.76240187  0.05719266  1
  O  O203  1  0.54084957  0.27682979  0.15702082  1
  O  O204  1  0.82766357  0.98440001  0.24979860  1
  O  O205  1  0.81445097  0.49701108  0.35102854  1
  O  O206  1  0.09738519  0.09067730  0.25022779  1
  O  O207  1  0.07691728  0.60504287  0.35142335  1
  O  O208  1  0.71343520  0.10509911  0.35145209  1
  O  O209  1  0.72125199  0.59073014  0.25019103  1
  O  O210  1  0.19142619  0.99709911  0.35105487  1
  O  O211  1  0.20377826  0.48429326  0.24966901  1
  O  O212  1  0.56141995  0.00946766  0.37985930  1
  O  O213  1  0.56809090  0.48492975  0.27855080  1
  O  O214  1  0.34247744  0.10384824  0.32298628  1
  O  O215  1  0.35728066  0.59013163  0.22143724  1
  O  O216  1  0.46268015  0.08998094  0.22153735  1
  O  O217  1  0.44970923  0.60391606  0.32301673  1
  O  O218  1  0.46239876  0.98504654  0.27849452  1
  O  O219  1  0.41983318  0.50958984  0.37989977  1
  O  O220  1  0.67389437  0.96494803  0.31692954  1
  O  O221  1  0.68845678  0.45285595  0.21481345  1
  O  O222  1  0.22935480  0.13158738  0.38693385  1
  O  O223  1  0.23659575  0.62178647  0.28516623  1
  O  O224  1  0.51920889  0.12232238  0.28515843  1
  O  O225  1  0.50861010  0.63119580  0.38703228  1
  O  O226  1  0.40534296  0.95301996  0.21475138  1
  O  O227  1  0.39723909  0.46455671  0.31699364  1
  O  O228  1  0.94474729  0.91526026  0.19513124  1
  O  O229  1  0.92897007  0.42740053  0.29670035  1
  O  O230  1  0.98000478  0.15972933  0.30485039  1
  O  O231  1  0.99635021  0.64809284  0.20320482  1
  O  O232  1  0.70841312  0.14741840  0.20320088  1
  O  O233  1  0.69997671  0.65993291  0.30482390  1
  O  O234  1  0.21778647  0.92690821  0.29675815  1
  O  O235  1  0.22416751  0.41567278  0.19499686  1
  O  O236  1  0.04035943  0.39195390  0.23385465  1
  O  O237  1  0.03220363  0.90237238  0.33461003  1
  O  O238  1  0.88477363  0.68302612  0.26600383  1
  O  O239  1  0.87214447  0.19714525  0.36828741  1
  O  O240  1  0.73411169  0.69702182  0.36826193  1
  O  O241  1  0.74897453  0.18340020  0.26596851  1
  O  O242  1  0.16335475  0.40238918  0.33469323  1
  O  O243  1  0.17575461  0.89191597  0.23398409  1
  O  O244  1  0.87072492  0.80461117  0.36140720  1
  O  O245  1  0.88871881  0.28969652  0.25888112  1
  O  O246  1  0.01974727  0.29816575  0.34288032  1
  O  O247  1  0.03660977  0.78535628  0.24112498  1
  O  O248  1  0.39272871  0.28537063  0.24090576  1
  O  O249  1  0.38405623  0.79813455  0.34306581  1
  O  O250  1  0.53260234  0.78976308  0.25878473  1
  O  O251  1  0.52048350  0.30472702  0.36140011  1
  O  O252  1  0.78586598  0.01150075  0.45077326  1
  O  O253  1  0.10752850  0.09112395  0.45529472  1
  O  O254  1  0.70875145  0.59135798  0.45525530  1
  O  O255  1  0.19214113  0.51141331  0.45084160  1
  O  O256  1  0.63274540  0.45710414  0.48427133  1
  O  O257  1  0.34044307  0.61542039  0.42766983  1
  O  O258  1  0.42907446  0.11554849  0.42759647  1
  O  O259  1  0.45290857  0.95805398  0.48414292  1
  O  O260  1  0.65830507  0.46449449  0.41447799  1
  O  O261  1  0.41219220  0.96496124  0.41442173  1
  O  O262  1  0.92746041  0.93879849  0.39754147  1
  O  O263  1  0.00002250  0.17091736  0.50873444  1
  O  O264  1  0.96954865  0.67004907  0.40714118  1
  O  O265  1  0.69014374  0.17034183  0.40714564  1
  O  O266  1  0.65825924  0.67058881  0.50874601  1
  O  O267  1  0.19545908  0.43878227  0.39759566  1
  O  O268  1  0.02682026  0.41697379  0.43834306  1
  O  O269  1  0.83050330  0.70741451  0.46861310  1
  O  O270  1  0.75364679  0.20806021  0.46866817  1
  O  O271  1  0.14022214  0.91639390  0.43828016  1
  O  O272  1  0.95394777  0.28420886  0.46059412  1
  O  O273  1  0.99302834  0.81237438  0.44279160  1
  O  O274  1  0.38194492  0.31227168  0.44280641  1
  O  O275  1  0.47752747  0.78464760  0.46073055  1
  O  O276  1  0.60743778  0.09118489  0.54474496  1
  O  O277  1  0.57684315  0.60510139  0.64859683  1
  O  O278  1  0.28570881  0.01150923  0.54921180  1
  O  O279  1  0.31435484  0.49702655  0.64897816  1
  O  O280  1  0.69129598  0.99712529  0.64893203  1
  O  O281  1  0.69202968  0.51140170  0.54918181  1
  O  O282  1  0.21342493  0.10510612  0.64854483  1
  O  O283  1  0.20881742  0.59133314  0.54474299  1
  O  O284  1  0.84246445  0.10383651  0.67700725  1
  O  O285  1  0.84032658  0.61545624  0.57235382  1
  O  O286  1  0.06134757  0.00948098  0.62014502  1
  O  O287  1  0.13261338  0.45712263  0.51574266  1
  O  O288  1  0.95252455  0.95797551  0.51583264  1
  O  O289  1  0.91982071  0.50960177  0.62011789  1
  O  O290  1  0.92907066  0.11552885  0.57240299  1
  O  O291  1  0.94961792  0.60396584  0.67698801  1
  O  O292  1  0.72930005  0.13160511  0.61306277  1
  O  O293  1  0.17386759  0.96495347  0.68306946  1
  O  O294  1  0.15822493  0.46451663  0.58552627  1
  O  O295  1  0.91217875  0.96495468  0.58558352  1
  O  O296  1  0.89723743  0.46458427  0.68301974  1
  O  O297  1  0.00858191  0.63121405  0.61297298  1
  O  O298  1  0.50011630  0.17085760  0.49127521  1
  O  O299  1  0.46952445  0.66997872  0.59287405  1
  O  O300  1  0.42731583  0.93886760  0.60245542  1
  O  O301  1  0.69542068  0.43878167  0.60243333  1
  O  O302  1  0.19011331  0.17036810  0.59285257  1
  O  O303  1  0.15811673  0.67071077  0.49127863  1
  O  O304  1  0.33045715  0.70747262  0.53140444  1
  O  O305  1  0.37208032  0.19719977  0.63171058  1
  O  O306  1  0.52678436  0.41694135  0.56168108  1
  O  O307  1  0.53211470  0.90237949  0.66538848  1
  O  O308  1  0.66325567  0.40245203  0.66532577  1
  O  O309  1  0.64003184  0.91638822  0.56170312  1
  O  O310  1  0.23403273  0.69703174  0.63174568  1
  O  O311  1  0.25363179  0.20805879  0.53132864  1
  O  O312  1  0.51977111  0.29817521  0.65712011  1
  O  O313  1  0.49278748  0.81239011  0.55723247  1
  O  O314  1  0.37056815  0.80465232  0.63858384  1
  O  O315  1  0.45390291  0.28423565  0.53939646  1
  O  O316  1  0.97756402  0.78464759  0.53932915  1
  O  O317  1  0.02040814  0.30473253  0.63860443  1
  O  O318  1  0.88190193  0.31227847  0.55720586  1
  O  O319  1  0.88397143  0.79816148  0.65693799  1
  O  O320  1  0.59727807  0.09072385  0.74976952  1
  O  O321  1  0.61067050  0.57817108  0.85114270  1
  O  O322  1  0.32762044  0.98443072  0.75019793  1
  O  O323  1  0.34806739  0.47001624  0.85147311  1
  O  O324  1  0.71148029  0.97010075  0.85140321  1
  O  O325  1  0.70361544  0.48434419  0.75032693  1
  O  O326  1  0.23379281  0.07795493  0.85117412  1
  O  O327  1  0.22120736  0.59077915  0.74980654  1
  O  O328  1  0.86355969  0.06549471  0.87991746  1
  O  O329  1  0.85725411  0.59010789  0.77856014  1
  O  O330  1  0.08230585  0.97147608  0.82302121  1
  O  O331  1  0.06793612  0.48505215  0.72146810  1
  O  O332  1  0.96239016  0.98505687  0.72150584  1
  O  O333  1  0.97524970  0.47125408  0.82308536  1
  O  O334  1  0.96262321  0.09000335  0.77845009  1
  O  O335  1  0.00506346  0.56556032  0.87992835  1
  O  O336  1  0.75115490  0.11069190  0.81698089  1
  O  O337  1  0.73644698  0.62186304  0.71483321  1
  O  O338  1  0.19563750  0.94369597  0.88698885  1
  O  O339  1  0.18844934  0.45291274  0.78520729  1
  O  O340  1  0.90502900  0.95315563  0.78526158  1
  O  O341  1  0.91680917  0.44369112  0.88707810  1
  O  O342  1  0.01917990  0.12234126  0.71483175  1
  O  O343  1  0.02835264  0.61035433  0.81698486  1
  O  O344  1  0.47993137  0.15978405  0.69514878  1
  O  O345  1  0.49625947  0.64816193  0.79680565  1
  O  O346  1  0.44468119  0.91531670  0.80486675  1
  O  O347  1  0.42883174  0.42742959  0.70330542  1
  O  O348  1  0.71767910  0.92698090  0.70323280  1
  O  O349  1  0.72406665  0.41570749  0.80500126  1
  O  O350  1  0.20834413  0.14738001  0.79680082  1
  O  O351  1  0.19996708  0.65997369  0.69517676  1
  O  O352  1  0.38464398  0.68312602  0.73401271  1
  O  O353  1  0.39263279  0.17290461  0.83466299  1
  O  O354  1  0.54027824  0.39196894  0.76614907  1
  O  O355  1  0.55322347  0.87787045  0.86824229  1
  O  O356  1  0.69080730  0.37810616  0.86828850  1
  O  O357  1  0.67569472  0.89196016  0.76601044  1
  O  O358  1  0.26186251  0.67261798  0.83470706  1
  O  O359  1  0.24887813  0.18343865  0.73402817  1
  O  O360  1  0.55439590  0.27039585  0.86140833  1
  O  O361  1  0.53659879  0.78538413  0.75888138  1
  O  O362  1  0.40463187  0.77705751  0.84309411  1
  O  O363  1  0.38854372  0.28976225  0.74111840  1
  O  O364  1  0.03247451  0.78982051  0.74120800  1
  O  O365  1  0.04076105  0.27683805  0.84297721  1
  O  O366  1  0.89266642  0.28541535  0.75909423  1
  O  O367  1  0.90489325  0.77046091  0.86140882  1
  O  O368  1  0.63932394  0.06351266  0.95081034  1
  O  O369  1  0.31684081  0.98369763  0.95529679  1
  O  O370  1  0.71552207  0.48346442  0.95518364  1
  O  O371  1  0.23342007  0.56337928  0.95086178  1
  O  O372  1  0.79271668  0.61720368  0.98426525  1
  O  O373  1  0.08472823  0.45962585  0.92770225  1
  O  O374  1  0.99615835  0.95934445  0.92763884  1
  O  O375  1  0.97144841  0.11706065  0.98413312  1
  O  O376  1  0.76681481  0.61044922  0.91450525  1
  O  O377  1  0.01232801  0.11027861  0.91446632  1
  O  O378  1  0.49767590  0.13616840  0.89754227  1
  O  O379  1  0.42460697  0.90387856  0.00871327  1
  O  O380  1  0.45587873  0.40461493  0.90718143  1
  O  O381  1  0.73472947  0.90484309  0.90713408  1
  O  O382  1  0.76680566  0.40423316  0.00871784  1
  O  O383  1  0.22996133  0.63601515  0.89760593  1
  O  O384  1  0.39785898  0.65819089  0.93837961  1
  O  O385  1  0.59473458  0.36699869  0.96867038  1
  O  O386  1  0.67072565  0.86711932  0.96863931  1
  O  O387  1  0.28517007  0.15809337  0.93827098  1
  O  O388  1  0.47142926  0.79043502  0.96056381  1
  O  O389  1  0.43112883  0.26266632  0.94281023  1
  O  O390  1  0.04258944  0.76251571  0.94281873  1
  O  O391  1  0.94760938  0.29030907  0.96075201  1
