# generated using pymatgen
data_Na8Zr5Si5P2O29
_symmetry_space_group_name_H-M   'P 1'
_cell_length_a   9.15937100
_cell_length_b   16.04975191
_cell_length_c   45.59551270
_cell_angle_alpha   90.00000000
_cell_angle_beta   90.00000000
_cell_angle_gamma   55.20191359
_symmetry_Int_Tables_number   1
_chemical_formula_structural   Na8Zr5Si5P2O29
_chemical_formula_sum   'Na64 Zr40 Si40 P16 O232'
_cell_volume   5504.12435216
_cell_formula_units_Z   8
loop_
 _symmetry_equiv_pos_site_id
 _symmetry_equiv_pos_as_xyz
  1  'x, y, z'
loop_
 _atom_site_type_symbol
 _atom_site_label
 _atom_site_symmetry_multiplicity
 _atom_site_fract_x
 _atom_site_fract_y
 _atom_site_fract_z
 _atom_site_occupancy
  Na  Na0  1  0.78678373  0.81715577  0.07881361  1
  Na  Na1  1  0.78713327  0.34743699  0.16894660  1
  Na  Na2  1  0.18080929  0.18287130  0.02371270  1
  Na  Na3  1  0.20076792  0.69775535  0.13527584  1
  Na  Na4  1  0.40311595  0.19786285  0.13527540  1
  Na  Na5  1  0.45307616  0.68269881  0.02372769  1
  Na  Na6  1  0.51822830  0.84753800  0.16882712  1
  Na  Na7  1  0.57915219  0.31715446  0.07878663  1
  Na  Na8  1  0.89202436  0.01299606  0.09517145  1
  Na  Na9  1  0.98304763  0.44628989  0.98381402  1
  Na  Na10  1  0.12354569  0.94686203  0.98391835  1
  Na  Na11  1  0.08161828  0.51284631  0.09507748  1
  Na  Na12  1  0.76686697  0.85942259  0.26944885  1
  Na  Na13  1  0.72293857  0.37815361  0.36462209  1
  Na  Na14  1  0.15702784  0.21624291  0.23055181  1
  Na  Na15  1  0.13717284  0.72827250  0.33116748  1
  Na  Na16  1  0.40567071  0.22832593  0.33119279  1
  Na  Na17  1  0.41024344  0.71626837  0.23048719  1
  Na  Na18  1  0.52061492  0.87796910  0.36469694  1
  Na  Na19  1  0.51316428  0.35960097  0.26944962  1
  Na  Na20  1  0.84955481  0.04508458  0.30079291  1
  Na  Na21  1  0.86385098  0.53068009  0.19914143  1
  Na  Na22  1  0.07425928  0.03054014  0.19917463  1
  Na  Na23  1  0.06010974  0.54490380  0.30075831  1
  Na  Na24  1  0.74338506  0.89413413  0.47634329  1
  Na  Na25  1  0.13664702  0.25845536  0.42135721  1
  Na  Na26  1  0.34666577  0.75843572  0.42126390  1
  Na  Na27  1  0.46697940  0.39407568  0.47643887  1
  Na  Na28  1  0.80105682  0.12730515  0.51591237  1
  Na  Na29  1  0.84166904  0.56292849  0.40492225  1
  Na  Na30  1  0.03192317  0.06282223  0.40484605  1
  Na  Na31  1  0.94508441  0.62665358  0.51571822  1
  Na  Na32  1  0.63873450  0.25782702  0.57885799  1
  Na  Na33  1  0.63857602  0.72731273  0.66885285  1
  Na  Na34  1  0.24443556  0.89241252  0.52371200  1
  Na  Na35  1  0.22423068  0.37712824  0.63536857  1
  Na  Na36  1  0.02178801  0.87709822  0.63533410  1
  Na  Na37  1  0.97258449  0.39180443  0.52372955  1
  Na  Na38  1  0.90732234  0.22745689  0.66891118  1
  Na  Na39  1  0.84737727  0.75744363  0.57874607  1
  Na  Na40  1  0.53290936  0.06197512  0.59512773  1
  Na  Na41  1  0.44143517  0.62892071  0.48372229  1
  Na  Na42  1  0.29989461  0.12898353  0.48385786  1
  Na  Na43  1  0.34305952  0.56239183  0.59500777  1
  Na  Na44  1  0.65792712  0.21549857  0.76951960  1
  Na  Na45  1  0.70166190  0.69703840  0.86474060  1
  Na  Na46  1  0.26815657  0.85872095  0.73055924  1
  Na  Na47  1  0.28785152  0.34679606  0.83110395  1
  Na  Na48  1  0.01899004  0.84687718  0.83117588  1
  Na  Na49  1  0.01477236  0.35879508  0.73059273  1
  Na  Na50  1  0.90450881  0.19709011  0.86469178  1
  Na  Na51  1  0.91180706  0.71546863  0.76948832  1
  Na  Na52  1  0.57528406  0.02990538  0.80081311  1
  Na  Na53  1  0.56151090  0.54396777  0.69922548  1
  Na  Na54  1  0.35101808  0.04417572  0.69922918  1
  Na  Na55  1  0.36513534  0.52995387  0.80082828  1
  Na  Na56  1  0.67982554  0.18147940  0.97642865  1
  Na  Na57  1  0.28775250  0.81668926  0.92135816  1
  Na  Na58  1  0.07912041  0.31666505  0.92135820  1
  Na  Na59  1  0.95696018  0.68115561  0.97640518  1
  Na  Na60  1  0.62346860  0.94771719  0.01589792  1
  Na  Na61  1  0.58258380  0.51249982  0.90485038  1
  Na  Na62  1  0.39225731  0.01235971  0.90484982  1
  Na  Na63  1  0.48083402  0.44761249  0.01587039  1
  Zr  Zr64  1  0.83068454  0.92549504  0.15675759  1
  Zr  Zr65  1  0.85885342  0.40945124  0.05165398  1
  Zr  Zr66  1  0.11436131  0.12416636  0.13984840  1
  Zr  Zr67  1  0.13888259  0.63379690  0.04570989  1
  Zr  Zr68  1  0.59311272  0.13385002  0.04576221  1
  Zr  Zr69  1  0.63711210  0.62417644  0.13977572  1
  Zr  Zr70  1  0.32205161  0.90948778  0.05169761  1
  Zr  Zr71  1  0.31819387  0.42553342  0.15669044  1
  Zr  Zr72  1  0.80946847  0.95169779  0.36015902  1
  Zr  Zr73  1  0.81511879  0.43782635  0.25851906  1
  Zr  Zr74  1  0.09322964  0.15028030  0.34318724  1
  Zr  Zr75  1  0.10887606  0.63785441  0.24142515  1
  Zr  Zr76  1  0.61499486  0.13793812  0.24142549  1
  Zr  Zr77  1  0.60584218  0.65023782  0.34319714  1
  Zr  Zr78  1  0.30889735  0.93777302  0.25854884  1
  Zr  Zr79  1  0.28668187  0.45170389  0.36022002  1
  Zr  Zr80  1  0.78377137  0.44205345  0.45437151  1
  Zr  Zr81  1  0.06484556  0.66645985  0.44826381  1
  Zr  Zr82  1  0.60181600  0.16645568  0.44829026  1
  Zr  Zr83  1  0.33103978  0.94219149  0.45433759  1
  Zr  Zr84  1  0.59460952  0.14931717  0.65679327  1
  Zr  Zr85  1  0.56673301  0.66530194  0.55165628  1
  Zr  Zr86  1  0.31107389  0.95071254  0.63985630  1
  Zr  Zr87  1  0.28644746  0.44083827  0.54575271  1
  Zr  Zr88  1  0.83236751  0.94100727  0.54577908  1
  Zr  Zr89  1  0.78810091  0.45076773  0.63978457  1
  Zr  Zr90  1  0.10307573  0.16525637  0.55173081  1
  Zr  Zr91  1  0.10728470  0.64937553  0.65675096  1
  Zr  Zr92  1  0.61543098  0.12346307  0.86014808  1
  Zr  Zr93  1  0.61002426  0.63712617  0.75856749  1
  Zr  Zr94  1  0.33173520  0.92478610  0.84325950  1
  Zr  Zr95  1  0.31639418  0.43707479  0.74145195  1
  Zr  Zr96  1  0.81017366  0.93704427  0.74149733  1
  Zr  Zr97  1  0.81925390  0.42481972  0.84328701  1
  Zr  Zr98  1  0.11629859  0.13712167  0.75854778  1
  Zr  Zr99  1  0.13810833  0.62346556  0.86017685  1
  Zr  Zr100  1  0.64054030  0.63311725  0.95433283  1
  Zr  Zr101  1  0.35983915  0.40870964  0.94828377  1
  Zr  Zr102  1  0.82265049  0.90875999  0.94831195  1
  Zr  Zr103  1  0.09287354  0.13327315  0.95433915  1
  Si  Si104  1  0.00785774  0.38105700  0.12749701  1
  Si  Si105  1  0.97623952  0.88478432  0.02652231  1
  Si  Si106  1  0.94393485  0.66955388  0.16825166  1
  Si  Si107  1  0.96486774  0.15529714  0.06661962  1
  Si  Si108  1  0.72428816  0.65525392  0.06655139  1
  Si  Si109  1  0.71661014  0.16955183  0.16824276  1
  Si  Si110  1  0.25403113  0.38466187  0.02651174  1
  Si  Si111  1  0.22984902  0.88107298  0.12751707  1
  Si  Si112  1  0.98005227  0.40623843  0.33167762  1
  Si  Si113  1  0.99372046  0.89459048  0.23020662  1
  Si  Si114  1  0.91591968  0.69474775  0.37244373  1
  Si  Si115  1  0.93001169  0.18112585  0.26976507  1
  Si  Si116  1  0.70719227  0.68110691  0.26973455  1
  Si  Si117  1  0.69409550  0.19490431  0.37245051  1
  Si  Si118  1  0.21655606  0.39458543  0.23009698  1
  Si  Si119  1  0.20737879  0.90610170  0.33175228  1
  Si  Si120  1  0.95970993  0.92039992  0.43335022  1
  Si  Si121  1  0.94754784  0.19079119  0.47363321  1
  Si  Si122  1  0.67017919  0.69085432  0.47359227  1
  Si  Si123  1  0.19877845  0.42042263  0.43338686  1
  Si  Si124  1  0.41745007  0.69382616  0.62748791  1
  Si  Si125  1  0.44853813  0.19004105  0.52652948  1
  Si  Si126  1  0.48134186  0.40533300  0.66829638  1
  Si  Si127  1  0.46074966  0.91938818  0.56664229  1
  Si  Si128  1  0.70112846  0.41950131  0.56653661  1
  Si  Si129  1  0.70861028  0.90524945  0.66834000  1
  Si  Si130  1  0.17145601  0.68992542  0.52650894  1
  Si  Si131  1  0.19552783  0.19390042  0.62756721  1
  Si  Si132  1  0.44493346  0.66884069  0.83172838  1
  Si  Si133  1  0.43132841  0.18039601  0.73021705  1
  Si  Si134  1  0.50907177  0.38027610  0.87246719  1
  Si  Si135  1  0.49498886  0.89380938  0.76983774  1
  Si  Si136  1  0.71782072  0.39378671  0.76988432  1
  Si  Si137  1  0.73076704  0.88030588  0.87248224  1
  Si  Si138  1  0.20857832  0.68043142  0.73018771  1
  Si  Si139  1  0.21790768  0.16880816  0.83171404  1
  Si  Si140  1  0.46499444  0.15463915  0.93333473  1
  Si  Si141  1  0.47648307  0.88441108  0.97359591  1
  Si  Si142  1  0.75432647  0.38444680  0.97355622  1
  Si  Si143  1  0.22556609  0.65468052  0.93338874  1
  P  P144  1  0.51382121  0.01770291  0.09741204  1
  P  P145  1  0.45047058  0.51779602  0.09735131  1
  P  P146  1  0.49653719  0.04444362  0.30095207  1
  P  P147  1  0.50956195  0.53148582  0.19896978  1
  P  P148  1  0.42708963  0.03150320  0.19904004  1
  P  P149  1  0.41431171  0.54426284  0.30098893  1
  P  P150  1  0.47357775  0.55808435  0.40261186  1
  P  P151  1  0.40996197  0.05806806  0.40255836  1
  P  P152  1  0.91140594  0.05715036  0.59747746  1
  P  P153  1  0.97482481  0.55718033  0.59740338  1
  P  P154  1  0.92836321  0.03071613  0.80095184  1
  P  P155  1  0.91552845  0.54348854  0.69900490  1
  P  P156  1  0.99784341  0.04364098  0.69905183  1
  P  P157  1  0.01074305  0.53080635  0.80100166  1
  P  P158  1  0.95131325  0.51711412  0.90263165  1
  P  P159  1  0.01476507  0.01708456  0.90261504  1
  O  O160  1  0.81686429  0.98408742  0.04477319  1
  O  O161  1  0.84774618  0.47047071  0.14851956  1
  O  O162  1  0.13957070  0.06406518  0.04917698  1
  O  O163  1  0.11011513  0.57842441  0.14886083  1
  O  O164  1  0.73332400  0.07825578  0.14884100  1
  O  O165  1  0.73250769  0.56393005  0.04908997  1
  O  O166  1  0.21101395  0.97045365  0.14856776  1
  O  O167  1  0.21473790  0.48398968  0.04477190  1
  O  O168  1  0.58446764  0.45981704  0.07227110  1
  O  O169  1  0.36297358  0.06583977  0.12003601  1
  O  O170  1  0.29142031  0.61776889  0.01562135  1
  O  O171  1  0.47240237  0.11780329  0.01571087  1
  O  O172  1  0.50480583  0.56603738  0.11998474  1
  O  O173  1  0.49593341  0.95968136  0.07232539  1
  O  O174  1  0.69509278  0.94412466  0.11301439  1
  O  O175  1  0.26652186  0.61076173  0.08545340  1
  O  O176  1  0.51180628  0.11067730  0.08551885  1
  O  O177  1  0.41637535  0.44421552  0.11295299  1
  O  O178  1  0.92420722  0.90401350  0.99134071  1
  O  O179  1  0.95540162  0.40511341  0.09279809  1
  O  O180  1  0.99716834  0.13664610  0.10243627  1
  O  O181  1  0.72989589  0.63629437  0.10236385  1
  O  O182  1  0.23410446  0.90534563  0.09283694  1
  O  O183  1  0.26768844  0.40388478  0.99133035  1
  O  O184  1  0.09460877  0.36713610  0.03129852  1
  O  O185  1  0.05278670  0.87820914  0.13174269  1
  O  O186  1  0.89714096  0.65871491  0.06154384  1
  O  O187  1  0.89218691  0.17320870  0.16532076  1
  O  O188  1  0.76122492  0.67307771  0.16529371  1
  O  O189  1  0.78532052  0.15850374  0.06164011  1
  O  O190  1  0.19048494  0.37839791  0.13169700  1
  O  O191  1  0.17052021  0.86751089  0.03131430  1
  O  O192  1  0.90436998  0.77731374  0.15690780  1
  O  O193  1  0.93109995  0.26314695  0.05718914  1
  O  O194  1  0.05379635  0.27083055  0.13858145  1
  O  O195  1  0.97127688  0.79088001  0.03958839  1
  O  O196  1  0.44706778  0.29085274  0.03954366  1
  O  O197  1  0.40458618  0.77082496  0.13853913  1
  O  O198  1  0.54184439  0.76298786  0.05723014  1
  O  O199  1  0.54039524  0.27717949  0.15689987  1
  O  O200  1  0.82706647  0.98473315  0.24979283  1
  O  O201  1  0.81371655  0.49737278  0.35104853  1
  O  O202  1  0.09675014  0.09089372  0.25022563  1
  O  O203  1  0.07606650  0.60546980  0.35141030  1
  O  O204  1  0.71265341  0.10549318  0.35145020  1
  O  O205  1  0.72033426  0.59105582  0.25019263  1
  O  O206  1  0.19072442  0.99749649  0.35109091  1
  O  O207  1  0.20322817  0.48460251  0.24969440  1
  O  O208  1  0.58194821  0.97168796  0.17700108  1
  O  O209  1  0.56739576  0.48531580  0.27855884  1
  O  O210  1  0.34175522  0.10430337  0.32300260  1
  O  O211  1  0.35683100  0.59031546  0.22146279  1
  O  O212  1  0.46211156  0.09029148  0.22155871  1
  O  O213  1  0.44899681  0.60431484  0.32303670  1
  O  O214  1  0.46162123  0.98538187  0.27852274  1
  O  O215  1  0.47482254  0.47143362  0.17693821  1
  O  O216  1  0.67298726  0.96517862  0.31698536  1
  O  O217  1  0.68805138  0.45342899  0.21473953  1
  O  O218  1  0.25081163  0.11092928  0.18299623  1
  O  O219  1  0.23594949  0.62222220  0.28517340  1
  O  O220  1  0.51874018  0.12252690  0.28516909  1
  O  O221  1  0.52706704  0.61088149  0.18293449  1
  O  O222  1  0.40445837  0.95348446  0.21475556  1
  O  O223  1  0.39659364  0.46496049  0.31702383  1
  O  O224  1  0.94419275  0.91574864  0.19511889  1
  O  O225  1  0.92810418  0.42771457  0.29672454  1
  O  O226  1  0.97953747  0.16007413  0.30485177  1
  O  O227  1  0.99590252  0.64839374  0.20319012  1
  O  O228  1  0.70714703  0.14822660  0.20317930  1
  O  O229  1  0.69928556  0.66024321  0.30482240  1
  O  O230  1  0.21731604  0.92713532  0.29680644  1
  O  O231  1  0.22392237  0.41578910  0.19502543  1
  O  O232  1  0.03973406  0.39232105  0.23388282  1
  O  O233  1  0.03150746  0.90273862  0.33465241  1
  O  O234  1  0.88419009  0.68320981  0.26598670  1
  O  O235  1  0.87135556  0.19758903  0.36826106  1
  O  O236  1  0.73330950  0.69741290  0.36827090  1
  O  O237  1  0.74849151  0.18360079  0.26599061  1
  O  O238  1  0.16269988  0.40277554  0.33465844  1
  O  O239  1  0.17519324  0.89215989  0.23401313  1
  O  O240  1  0.86971959  0.80509045  0.36141286  1
  O  O241  1  0.88807228  0.28997539  0.25887243  1
  O  O242  1  0.01937136  0.29848696  0.34293766  1
  O  O243  1  0.03582149  0.78569336  0.24106731  1
  O  O244  1  0.39204576  0.28565131  0.24099137  1
  O  O245  1  0.38333475  0.79850471  0.34314209  1
  O  O246  1  0.53204198  0.79006843  0.25878765  1
  O  O247  1  0.51966694  0.30518071  0.36139148  1
  O  O248  1  0.78522183  0.01201732  0.45075879  1
  O  O249  1  0.10687027  0.09190284  0.45520151  1
  O  O250  1  0.70807192  0.59199197  0.45522870  1
  O  O251  1  0.19046716  0.51199706  0.45073030  1
  O  O252  1  0.56080895  0.00976276  0.37992797  1
  O  O253  1  0.62893586  0.45876199  0.48409683  1
  O  O254  1  0.33977455  0.61608316  0.42772546  1
  O  O255  1  0.42826794  0.11586866  0.42766639  1
  O  O256  1  0.45210341  0.95884798  0.48415107  1
  O  O257  1  0.41869881  0.51005176  0.37999966  1
  O  O258  1  0.65754724  0.46504974  0.41447421  1
  O  O259  1  0.22872248  0.13188336  0.38697122  1
  O  O260  1  0.50772696  0.63163884  0.38700959  1
  O  O261  1  0.41156075  0.96523041  0.41447132  1
  O  O262  1  0.92697617  0.93916170  0.39754759  1
  O  O263  1  0.00016249  0.17048307  0.50877828  1
  O  O264  1  0.96891752  0.67052099  0.40711770  1
  O  O265  1  0.68927382  0.17087818  0.40713755  1
  O  O266  1  0.65911758  0.67052661  0.50876899  1
  O  O267  1  0.19409278  0.43900323  0.39756944  1
  O  O268  1  0.02565725  0.41719701  0.43837761  1
  O  O269  1  0.82942295  0.70835867  0.46857239  1
  O  O270  1  0.75321635  0.20836369  0.46869385  1
  O  O271  1  0.13958901  0.91684444  0.43831769  1
  O  O272  1  0.95261660  0.28507989  0.46090260  1
  O  O273  1  0.99242784  0.81283706  0.44282132  1
  O  O274  1  0.38085518  0.31269509  0.44284827  1
  O  O275  1  0.47647168  0.78519498  0.46091412  1
  O  O276  1  0.60802509  0.09062202  0.54474862  1
  O  O277  1  0.57746466  0.60451288  0.64854604  1
  O  O278  1  0.28623523  0.01089636  0.54922857  1
  O  O279  1  0.31524657  0.49653064  0.64891672  1
  O  O280  1  0.69194501  0.99655171  0.64895283  1
  O  O281  1  0.69342869  0.51074968  0.54912871  1
  O  O282  1  0.21436733  0.10445170  0.64859026  1
  O  O283  1  0.20993830  0.59078317  0.54476492  1
  O  O284  1  0.84095156  0.61516146  0.57230308  1
  O  O285  1  0.06230947  0.00893911  0.62009283  1
  O  O286  1  0.13442823  0.45661523  0.51559273  1
  O  O287  1  0.95305464  0.95715991  0.51575039  1
  O  O288  1  0.92005983  0.50917619  0.62003846  1
  O  O289  1  0.92953373  0.11500359  0.57236272  1
  O  O290  1  0.73017867  0.13087929  0.61306280  1
  O  O291  1  0.15868654  0.46412408  0.58550884  1
  O  O292  1  0.91312280  0.96428268  0.58557565  1
  O  O293  1  0.00908528  0.63072365  0.61298616  1
  O  O294  1  0.50031532  0.17100845  0.49133166  1
  O  O295  1  0.47037342  0.66936137  0.59281201  1
  O  O296  1  0.42842413  0.93830902  0.60245058  1
  O  O297  1  0.69620761  0.43800835  0.60236235  1
  O  O298  1  0.19060366  0.16979311  0.59288164  1
  O  O299  1  0.15713989  0.67089054  0.49133094  1
  O  O300  1  0.33162195  0.70686051  0.53125079  1
  O  O301  1  0.37282375  0.19657589  0.63169542  1
  O  O302  1  0.52792394  0.41633076  0.56151469  1
  O  O303  1  0.53293606  0.90171142  0.66542367  1
  O  O304  1  0.66410158  0.40172859  0.66527988  1
  O  O305  1  0.64070573  0.91571275  0.56158369  1
  O  O306  1  0.23459742  0.69669572  0.63168010  1
  O  O307  1  0.25411767  0.20757279  0.53133082  1
  O  O308  1  0.52016963  0.29768363  0.65705158  1
  O  O309  1  0.49314949  0.81184096  0.55727646  1
  O  O310  1  0.37153245  0.80411117  0.63851756  1
  O  O311  1  0.45403102  0.28375675  0.53962509  1
  O  O312  1  0.97926255  0.78404650  0.53963996  1
  O  O313  1  0.02118840  0.30417197  0.63865776  1
  O  O314  1  0.88305067  0.31167100  0.55714024  1
  O  O315  1  0.88470159  0.79765557  0.65696863  1
  O  O316  1  0.59800896  0.09023747  0.74979498  1
  O  O317  1  0.61089587  0.57769541  0.85115102  1
  O  O318  1  0.32838397  0.98394873  0.75023351  1
  O  O319  1  0.34891509  0.46969530  0.85145756  1
  O  O320  1  0.71191352  0.96972496  0.85144384  1
  O  O321  1  0.70437613  0.48388862  0.75029698  1
  O  O322  1  0.23444445  0.07759205  0.85114057  1
  O  O323  1  0.22216246  0.59021856  0.74973433  1
  O  O324  1  0.84324768  0.10333987  0.67696276  1
  O  O325  1  0.85784356  0.58981870  0.77854496  1
  O  O326  1  0.08308920  0.97096240  0.82301967  1
  O  O327  1  0.06860180  0.48448068  0.72144258  1
  O  O328  1  0.96285431  0.98466583  0.72150651  1
  O  O329  1  0.97559194  0.47106503  0.82308750  1
  O  O330  1  0.96328574  0.08957080  0.77844807  1
  O  O331  1  0.95065627  0.60328206  0.67693495  1
  O  O332  1  0.75187615  0.11006452  0.81695909  1
  O  O333  1  0.73714618  0.62159766  0.71479940  1
  O  O334  1  0.17446324  0.96434127  0.68305480  1
  O  O335  1  0.18897952  0.45256570  0.78519638  1
  O  O336  1  0.90618737  0.95251648  0.78522782  1
  O  O337  1  0.89754797  0.46421127  0.68300824  1
  O  O338  1  0.01972420  0.12188956  0.71481802  1
  O  O339  1  0.02891778  0.61005234  0.81698330  1
  O  O340  1  0.48094976  0.15926068  0.69514175  1
  O  O341  1  0.49713228  0.64740391  0.79679307  1
  O  O342  1  0.44548163  0.91497606  0.80491976  1
  O  O343  1  0.42952887  0.42683920  0.70325057  1
  O  O344  1  0.71813655  0.92656909  0.70327140  1
  O  O345  1  0.72518881  0.41493083  0.80495900  1
  O  O346  1  0.20869108  0.14719405  0.79679447  1
  O  O347  1  0.20072104  0.65951864  0.69510834  1
  O  O348  1  0.38555138  0.68254888  0.73393650  1
  O  O349  1  0.39341926  0.17252811  0.83461715  1
  O  O350  1  0.54110174  0.39141301  0.76608797  1
  O  O351  1  0.55366468  0.87747772  0.86830267  1
  O  O352  1  0.69171668  0.37766002  0.86833700  1
  O  O353  1  0.67652359  0.89135087  0.76603285  1
  O  O354  1  0.26211407  0.67244207  0.83465458  1
  O  O355  1  0.24989015  0.18274406  0.73398756  1
  O  O356  1  0.55521083  0.27004512  0.86134152  1
  O  O357  1  0.53691076  0.78496773  0.75896600  1
  O  O358  1  0.40552553  0.77658465  0.84304195  1
  O  O359  1  0.38917102  0.28927212  0.74111959  1
  O  O360  1  0.03333131  0.78929088  0.74116192  1
  O  O361  1  0.04167064  0.27652668  0.84301515  1
  O  O362  1  0.89345926  0.28492084  0.75900187  1
  O  O363  1  0.90520174  0.77006787  0.86139788  1
  O  O364  1  0.63952783  0.06320245  0.95077510  1
  O  O365  1  0.31657560  0.98338946  0.95530743  1
  O  O366  1  0.71597693  0.48332543  0.95517360  1
  O  O367  1  0.23425101  0.56308794  0.95078194  1
  O  O368  1  0.86407012  0.06512079  0.87995667  1
  O  O369  1  0.79507826  0.61644861  0.98411997  1
  O  O370  1  0.08495128  0.45932377  0.92777336  1
  O  O371  1  0.99673784  0.95916979  0.92771988  1
  O  O372  1  0.97101069  0.11693638  0.98408334  1
  O  O373  1  0.00610241  0.56515174  0.88001067  1
  O  O374  1  0.76717353  0.61014899  0.91447035  1
  O  O375  1  0.19616689  0.94349327  0.88703898  1
  O  O376  1  0.91754087  0.44339779  0.88704033  1
  O  O377  1  0.01259324  0.11017509  0.91446958  1
  O  O378  1  0.49780414  0.13615679  0.89752564  1
  O  O379  1  0.42470010  0.90425173  0.00877354  1
  O  O380  1  0.45627009  0.40420613  0.90715693  1
  O  O381  1  0.73543277  0.90439969  0.90716018  1
  O  O382  1  0.76625964  0.40454998  0.00872519  1
  O  O383  1  0.23047174  0.63598057  0.89757626  1
  O  O384  1  0.39854320  0.65802906  0.93836478  1
  O  O385  1  0.59516379  0.36686559  0.96862236  1
  O  O386  1  0.67063422  0.86712839  0.96862271  1
  O  O387  1  0.28544174  0.15775905  0.93824887  1
  O  O388  1  0.47186178  0.79005494  0.96082126  1
  O  O389  1  0.43130485  0.26242752  0.94285008  1
  O  O390  1  0.04333393  0.76233240  0.94288339  1
  O  O391  1  0.94817993  0.29019483  0.96087131  1
