# generated using pymatgen
data_Na9Zr5Si5P3O32
_symmetry_space_group_name_H-M   'P 1'
_cell_length_a   9.15937100
_cell_length_b   16.04975191
_cell_length_c   50.05416588
_cell_angle_alpha   90.00000000
_cell_angle_beta   90.00000000
_cell_angle_gamma   55.20191359
_symmetry_Int_Tables_number   1
_chemical_formula_structural   Na9Zr5Si5P3O32
_chemical_formula_sum   'Na72 Zr40 Si40 P24 O256'
_cell_volume   6042.35673760
_cell_formula_units_Z   8
loop_
 _symmetry_equiv_pos_site_id
 _symmetry_equiv_pos_as_xyz
  1  'x, y, z'
loop_
 _atom_site_type_symbol
 _atom_site_label
 _atom_site_symmetry_multiplicity
 _atom_site_fract_x
 _atom_site_fract_y
 _atom_site_fract_z
 _atom_site_occupancy
  Na  Na0  1  0.76885126  0.81041039  0.10010390  1
  Na  Na1  1  0.02799113  0.30758941  0.00714269  1
  Na  Na2  1  0.17741261  0.22013768  0.08582921  1
  Na  Na3  1  0.13166762  0.73905518  0.12916944  1
  Na  Na4  1  0.42797862  0.22353245  0.12689976  1
  Na  Na5  1  0.40456185  0.68753737  0.06313145  1
  Na  Na6  1  0.37915896  0.83223102  0.00604619  1
  Na  Na7  1  0.55065107  0.32848556  0.08561957  1
  Na  Na8  1  0.88792029  0.99752073  0.10338562  1
  Na  Na9  1  0.81902634  0.57883972  0.02540514  1
  Na  Na10  1  0.97685151  0.12454369  0.01342280  1
  Na  Na11  1  0.10758544  0.49467999  0.09827736  1
  Na  Na12  1  0.75137958  0.88311265  0.26951153  1
  Na  Na13  1  0.73579522  0.36873800  0.16581147  1
  Na  Na14  1  0.11154707  0.25100244  0.22514989  1
  Na  Na15  1  0.14814284  0.75877313  0.33779410  1
  Na  Na16  1  0.35667745  0.26798960  0.31973666  1
  Na  Na17  1  0.36997936  0.74710664  0.23183498  1
  Na  Na18  1  0.52627997  0.87337884  0.16616005  1
  Na  Na19  1  0.50904028  0.39602500  0.25120990  1
  Na  Na20  1  0.81155606  0.08127234  0.29326448  1
  Na  Na21  1  0.80865191  0.57824653  0.20346211  1
  Na  Na22  1  0.05846054  0.04892881  0.19995679  1
  Na  Na23  1  0.04968173  0.56703354  0.29155585  1
  Na  Na24  1  0.64120133  0.94040668  0.43276215  1
  Na  Na25  1  0.66271684  0.41823287  0.34312306  1
  Na  Na26  1  0.09025015  0.29916756  0.41585577  1
  Na  Na27  1  0.84356369  0.83467531  0.48863397  1
  Na  Na28  1  0.51622903  0.26913236  0.49702397  1
  Na  Na29  1  0.31817103  0.79116599  0.42887111  1
  Na  Na30  1  0.46338294  0.90928553  0.35881809  1
  Na  Na31  1  0.47385062  0.43861819  0.43453709  1
  Na  Na32  1  0.83435895  0.05997163  0.47066105  1
  Na  Na33  1  0.79721023  0.57257533  0.38443120  1
  Na  Na34  1  0.99961768  0.09642914  0.38277114  1
  Na  Na35  1  0.78285877  0.73023030  0.53302996  1
  Na  Na36  1  0.69083256  0.23344243  0.56604908  1
  Na  Na37  1  0.36682145  0.79804317  0.50875785  1
  Na  Na38  1  0.18432283  0.90209321  0.56909209  1
  Na  Na39  1  0.23647065  0.36053608  0.65019643  1
  Na  Na40  1  0.04980268  0.83368351  0.63044217  1
  Na  Na41  1  0.02444197  0.38262020  0.56464050  1
  Na  Na42  1  0.02197388  0.25646651  0.50159686  1
  Na  Na43  1  0.83227286  0.75947273  0.61013467  1
  Na  Na44  1  0.55763866  0.05837694  0.61296122  1
  Na  Na45  1  0.57340318  0.51517961  0.52875238  1
  Na  Na46  1  0.35858495  0.01918053  0.51958068  1
  Na  Na47  1  0.30625242  0.57604927  0.60501025  1
  Na  Na48  1  0.74501194  0.17568816  0.75363155  1
  Na  Na49  1  0.64420560  0.71220470  0.68495319  1
  Na  Na50  1  0.26131526  0.82671890  0.75008099  1
  Na  Na51  1  0.34962196  0.29948313  0.82307447  1
  Na  Na52  1  0.10757642  0.81160586  0.84100010  1
  Na  Na53  1  0.04773900  0.32303166  0.73248708  1
  Na  Na54  1  0.88835896  0.19659884  0.66285339  1
  Na  Na55  1  0.96370913  0.68383724  0.77411472  1
  Na  Na56  1  0.62210171  0.99697390  0.79636384  1
  Na  Na57  1  0.61179457  0.50432321  0.70561485  1
  Na  Na58  1  0.36212348  0.02625032  0.70285385  1
  Na  Na59  1  0.40556873  0.49216493  0.79836387  1
  Na  Na60  1  0.79936186  0.13058088  0.93938534  1
  Na  Na61  1  0.77045317  0.64846680  0.84821270  1
  Na  Na62  1  0.37180741  0.76697018  0.91601295  1
  Na  Na63  1  0.52832877  0.35918435  0.00549694  1
  Na  Na64  1  0.80062122  0.88605070  0.00999459  1
  Na  Na65  1  0.12254254  0.27028683  0.92694977  1
  Na  Na66  1  0.95103924  0.15637324  0.85562388  1
  Na  Na67  1  0.92200720  0.66129504  0.91958363  1
  Na  Na68  1  0.49721248  0.16198789  0.98550042  1
  Na  Na69  1  0.68931820  0.43546624  0.90085264  1
  Na  Na70  1  0.42280017  0.98199426  0.88820851  1
  Na  Na71  1  0.21034847  0.63071435  0.97588812  1
  Zr  Zr72  1  0.80511223  0.94961223  0.16449393  1
  Zr  Zr73  1  0.83289877  0.41489473  0.06598616  1
  Zr  Zr74  1  0.09177814  0.14422787  0.14537665  1
  Zr  Zr75  1  0.14451553  0.60182373  0.04405102  1
  Zr  Zr76  1  0.59392012  0.11234416  0.05474225  1
  Zr  Zr77  1  0.61589356  0.64591907  0.14354636  1
  Zr  Zr78  1  0.30889192  0.92010864  0.06926825  1
  Zr  Zr79  1  0.28850943  0.44999895  0.16043119  1
  Zr  Zr80  1  0.76954050  0.98532415  0.34757154  1
  Zr  Zr81  1  0.78444099  0.46935858  0.25516123  1
  Zr  Zr82  1  0.05609580  0.18709697  0.33008049  1
  Zr  Zr83  1  0.07692449  0.66698008  0.23831241  1
  Zr  Zr84  1  0.57851461  0.16797294  0.23833223  1
  Zr  Zr85  1  0.56860499  0.68632393  0.33224240  1
  Zr  Zr86  1  0.27891476  0.96920382  0.25542439  1
  Zr  Zr87  1  0.24669538  0.48838301  0.35141593  1
  Zr  Zr88  1  0.73038743  0.52373918  0.45012680  1
  Zr  Zr89  1  0.02983083  0.70538093  0.42913770  1
  Zr  Zr90  1  0.54669236  0.20928673  0.42308393  1
  Zr  Zr91  1  0.20986293  0.04061268  0.43812610  1
  Zr  Zr92  1  0.62064914  0.12358978  0.66860199  1
  Zr  Zr93  1  0.57366432  0.66144582  0.57342998  1
  Zr  Zr94  1  0.33455036  0.92393080  0.65039730  1
  Zr  Zr95  1  0.26936652  0.47664044  0.54450470  1
  Zr  Zr96  1  0.76289039  0.98655165  0.55937835  1
  Zr  Zr97  1  0.80650498  0.42720810  0.64625882  1
  Zr  Zr98  1  0.10906376  0.15747399  0.57477227  1
  Zr  Zr99  1  0.13473913  0.62114775  0.66606331  1
  Zr  Zr100  1  0.66545379  0.08160833  0.85428626  1
  Zr  Zr101  1  0.65146841  0.59778380  0.75904854  1
  Zr  Zr102  1  0.38687800  0.88074767  0.83540741  1
  Zr  Zr103  1  0.35445904  0.40433009  0.74368417  1
  Zr  Zr104  1  0.84967257  0.90090231  0.74135262  1
  Zr  Zr105  1  0.86849304  0.38286498  0.83761294  1
  Zr  Zr106  1  0.15894613  0.09982903  0.76119828  1
  Zr  Zr107  1  0.19036299  0.57922970  0.85473971  1
  Zr  Zr108  1  0.72523930  0.54980144  0.95178014  1
  Zr  Zr109  1  0.40257503  0.36489598  0.93210241  1
  Zr  Zr110  1  0.89576653  0.86171123  0.93240291  1
  Zr  Zr111  1  0.23612833  0.02502288  0.94438726  1
  Si  Si112  1  0.98516525  0.39601534  0.13354267  1
  Si  Si113  1  0.00835895  0.85134860  0.06021481  1
  Si  Si114  1  0.92532896  0.16194476  0.07769535  1
  Si  Si115  1  0.73155498  0.66201821  0.07856696  1
  Si  Si116  1  0.28189751  0.33556192  0.05101912  1
  Si  Si117  1  0.21170890  0.90257184  0.13713479  1
  Si  Si118  1  0.94432869  0.44407950  0.32060171  1
  Si  Si119  1  0.96098548  0.92468019  0.23078069  1
  Si  Si120  1  0.92317229  0.69053501  0.17202936  1
  Si  Si121  1  0.89809086  0.21180620  0.26353539  1
  Si  Si122  1  0.67432022  0.71220674  0.26563760  1
  Si  Si123  1  0.68606562  0.19234715  0.17057292  1
  Si  Si124  1  0.18443178  0.42322660  0.22734809  1
  Si  Si125  1  0.16942816  0.94174304  0.32222268  1
  Si  Si126  1  0.93037185  0.95925562  0.41406842  1
  Si  Si127  1  0.87630419  0.73205495  0.36154316  1
  Si  Si128  1  0.87983747  0.24285707  0.44392520  1
  Si  Si129  1  0.61069045  0.78009826  0.46103350  1
  Si  Si130  1  0.65301604  0.23202889  0.35648130  1
  Si  Si131  1  0.13383284  0.46658655  0.41602016  1
  Si  Si132  1  0.45029593  0.67089135  0.64201504  1
  Si  Si133  1  0.43665049  0.18970967  0.55181291  1
  Si  Si134  1  0.48648285  0.90880025  0.58265730  1
  Si  Si135  1  0.67895590  0.41408774  0.58291003  1
  Si  Si136  1  0.12572627  0.73425412  0.56173545  1
  Si  Si137  1  0.21833274  0.17154157  0.64099994  1
  Si  Si138  1  0.49444819  0.62517258  0.82512492  1
  Si  Si139  1  0.46748477  0.14569546  0.73427776  1
  Si  Si140  1  0.51074811  0.38036508  0.67857599  1
  Si  Si141  1  0.53952366  0.85496127  0.76892823  1
  Si  Si142  1  0.75902832  0.35637023  0.77098858  1
  Si  Si143  1  0.74288470  0.87745691  0.67343834  1
  Si  Si144  1  0.24327447  0.64642204  0.73333278  1
  Si  Si145  1  0.26819939  0.12616092  0.82734786  1
  Si  Si146  1  0.51364781  0.10696782  0.92074838  1
  Si  Si147  1  0.55572251  0.33719861  0.86391251  1
  Si  Si148  1  0.56431817  0.82543121  0.95049767  1
  Si  Si149  1  0.82646818  0.29443893  0.95992707  1
  Si  Si150  1  0.78771392  0.83060282  0.86496671  1
  Si  Si151  1  0.31385962  0.60404539  0.92073824  1
  P  P152  1  0.50365179  0.02105334  0.11012104  1
  P  P153  1  0.53433869  0.56115913  0.01236358  1
  P  P154  1  0.37776517  0.05925105  0.02687434  1
  P  P155  1  0.42635745  0.53424854  0.10195331  1
  P  P156  1  0.46572433  0.07667461  0.29298818  1
  P  P157  1  0.47905295  0.55796835  0.19892072  1
  P  P158  1  0.39528705  0.05835067  0.20138288  1
  P  P159  1  0.38333457  0.57640939  0.29486275  1
  P  P160  1  0.45688221  0.10401998  0.47416613  1
  P  P161  1  0.43765101  0.59698069  0.39121371  1
  P  P162  1  0.35819753  0.10314693  0.38410837  1
  P  P163  1  0.33675375  0.59414142  0.48656579  1
  P  P164  1  0.92269939  0.04805472  0.61375527  1
  P  P165  1  0.87512327  0.51153680  0.51623400  1
  P  P166  1  0.97384001  0.07330433  0.52242771  1
  P  P167  1  0.99961476  0.53466089  0.60520290  1
  P  P168  1  0.97267056  0.99023427  0.79811004  1
  P  P169  1  0.95426059  0.51014304  0.70256615  1
  P  P170  1  0.03231899  0.01386478  0.70606233  1
  P  P171  1  0.05256848  0.49124494  0.79904228  1
  P  P172  1  0.97185508  0.97645667  0.98137252  1
  P  P173  1  0.99801420  0.46911888  0.89402787  1
  P  P174  1  0.07908561  0.96472533  0.89030643  1
  P  P175  1  0.05851889  0.50157072  0.98063260  1
  O  O176  1  0.98833994  0.82710744  0.09066762  1
  O  O177  1  0.80325211  0.49102939  0.14745536  1
  O  O178  1  0.09493426  0.06661016  0.06235749  1
  O  O179  1  0.09188671  0.60202610  0.15460853  1
  O  O180  1  0.69739829  0.10121289  0.15362806  1
  O  O181  1  0.72441310  0.56839660  0.06819445  1
  O  O182  1  0.21200761  0.99003216  0.15424059  1
  O  O183  1  0.26291411  0.44534418  0.05175571  1
  O  O184  1  0.55612335  0.04313376  0.01738419  1
  O  O185  1  0.60267093  0.45252557  0.08819190  1
  O  O186  1  0.32727377  0.10982887  0.12313564  1
  O  O187  1  0.36019249  0.56656154  0.01839971  1
  O  O188  1  0.35408437  0.11746419  0.05369575  1
  O  O189  1  0.44355067  0.61031049  0.11826795  1
  O  O190  1  0.47367198  0.95580241  0.09185812  1
  O  O191  1  0.56313455  0.54550323  0.98161736  1
  O  O192  1  0.64219319  0.95009845  0.13128147  1
  O  O193  1  0.68609318  0.46818149  0.02847232  1
  O  O194  1  0.22895612  0.12390426  0.00685065  1
  O  O195  1  0.28441539  0.59510392  0.07910994  1
  O  O196  1  0.58283104  0.07166170  0.09494272  1
  O  O197  1  0.51352671  0.65946633  0.01991337  1
  O  O198  1  0.40696362  0.95566170  0.03367122  1
  O  O199  1  0.36758529  0.47731641  0.11882341  1
  O  O200  1  0.82686285  0.96505139  0.05181459  1
  O  O201  1  0.96537725  0.39604366  0.10084869  1
  O  O202  1  0.96849958  0.15656942  0.11014326  1
  O  O203  1  0.74457393  0.65930090  0.11135450  1
  O  O204  1  0.20884484  0.92428388  0.10542752  1
  O  O205  1  0.43759403  0.25395040  0.02930128  1
  O  O206  1  0.07565328  0.36536560  0.04690099  1
  O  O207  1  0.03348314  0.90527559  0.14383880  1
  O  O208  1  0.91942949  0.63827706  0.06510272  1
  O  O209  1  0.87284276  0.18596180  0.16801619  1
  O  O210  1  0.74497100  0.68913379  0.16683543  1
  O  O211  1  0.74992720  0.16023540  0.07175031  1
  O  O212  1  0.15803026  0.40111559  0.13854930  1
  O  O213  1  0.18829272  0.85271706  0.05625194  1
  O  O214  1  0.87979052  0.80012954  0.16330527  1
  O  O215  1  0.88643795  0.27038431  0.06661269  1
  O  O216  1  0.01877486  0.29151835  0.14543518  1
  O  O217  1  0.03869021  0.75563370  0.04035126  1
  O  O218  1  0.36882404  0.27306519  0.07909720  1
  O  O219  1  0.39315875  0.79101286  0.14432099  1
  O  O220  1  0.55702761  0.77110759  0.06917849  1
  O  O221  1  0.52564365  0.30301591  0.15811591  1
  O  O222  1  0.79105889  0.01548727  0.24779296  1
  O  O223  1  0.76959587  0.53025217  0.33790015  1
  O  O224  1  0.06721868  0.12191585  0.24618130  1
  O  O225  1  0.05619458  0.64209572  0.34564973  1
  O  O226  1  0.66879997  0.13966249  0.33938941  1
  O  O227  1  0.67727997  0.62428809  0.24803378  1
  O  O228  1  0.15063469  0.03405968  0.33965718  1
  O  O229  1  0.18089214  0.51217450  0.24415010  1
  O  O230  1  0.56392649  0.99462808  0.18425079  1
  O  O231  1  0.54862236  0.50798974  0.27674337  1
  O  O232  1  0.30617740  0.13765398  0.31208045  1
  O  O233  1  0.31424427  0.62808972  0.21685113  1
  O  O234  1  0.41629525  0.12385085  0.22161662  1
  O  O235  1  0.40557778  0.64906703  0.31193582  1
  O  O236  1  0.43801073  0.01397328  0.27283591  1
  O  O237  1  0.44908062  0.49380903  0.17951399  1
  O  O238  1  0.64020804  0.99962318  0.30849438  1
  O  O239  1  0.64029550  0.48336350  0.21711177  1
  O  O240  1  0.22739175  0.13203410  0.18418203  1
  O  O241  1  0.21547012  0.63970952  0.27723922  1
  O  O242  1  0.48861872  0.15461145  0.27869875  1
  O  O243  1  0.52143878  0.62476395  0.18291176  1
  O  O244  1  0.36722670  0.98292088  0.21576462  1
  O  O245  1  0.36492167  0.50685619  0.31405766  1
  O  O246  1  0.91675879  0.94600896  0.19879186  1
  O  O247  1  0.90696899  0.46626931  0.28837829  1
  O  O248  1  0.94242381  0.19022749  0.29544015  1
  O  O249  1  0.95815586  0.67089791  0.20430768  1
  O  O250  1  0.66146208  0.18012865  0.20245406  1
  O  O251  1  0.66680056  0.69501106  0.29785959  1
  O  O252  1  0.18595026  0.96015231  0.29056061  1
  O  O253  1  0.20128567  0.43721885  0.19515082  1
  O  O254  1  -0.00000655  0.42877261  0.23094934  1
  O  O255  1  0.99387232  0.93797530  0.32521844  1
  O  O256  1  0.85707529  0.70779360  0.26126104  1
  O  O257  1  0.82440997  0.23744247  0.35066069  1
  O  O258  1  0.70488957  0.72557431  0.35617107  1
  O  O259  1  0.71580079  0.21644398  0.25840289  1
  O  O260  1  0.11865701  0.44709008  0.32627674  1
  O  O261  1  0.14262564  0.92113377  0.23482789  1
  O  O262  1  0.83091021  0.84028379  0.35012277  1
  O  O263  1  0.85767722  0.32182997  0.25448026  1
  O  O264  1  0.98535370  0.33393614  0.32797918  1
  O  O265  1  0.00256770  0.81464799  0.23971849  1
  O  O266  1  0.35582333  0.31492509  0.23797347  1
  O  O267  1  0.34349737  0.83362072  0.33356162  1
  O  O268  1  0.50117111  0.82131971  0.25579638  1
  O  O269  1  0.47078775  0.34128966  0.34817893  1
  O  O270  1  0.74385791  0.05306001  0.42712307  1
  O  O271  1  0.01008263  0.18618673  0.41763218  1
  O  O272  1  0.61137082  0.67946092  0.45002044  1
  O  O273  1  0.15502518  0.55156303  0.42885395  1
  O  O274  1  0.52570402  0.03377805  0.36670662  1
  O  O275  1  0.50112262  0.53337189  0.46659532  1
  O  O276  1  0.31838633  0.15272187  0.49612996  1
  O  O277  1  0.27414201  0.67182644  0.40861538  1
  O  O278  1  0.38454259  0.16890549  0.40304068  1
  O  O279  1  0.36433082  0.66018803  0.50439332  1
  O  O280  1  0.37573507  0.07864262  0.45028314  1
  O  O281  1  0.41305102  0.52099906  0.37575860  1
  O  O282  1  0.63786379  0.00459695  0.48034274  1
  O  O283  1  0.60303060  0.53516946  0.41021517  1
  O  O284  1  0.19269381  0.17357124  0.36692565  1
  O  O285  1  0.16159853  0.65961982  0.47019087  1
  O  O286  1  0.48799494  0.18462813  0.46295479  1
  O  O287  1  0.47096410  0.65767459  0.37087418  1
  O  O288  1  0.33535072  0.02603175  0.39976316  1
  O  O289  1  0.34917355  0.50708753  0.50512606  1
  O  O290  1  0.90773858  0.96640624  0.38143941  1
  O  O291  1  0.01278639  0.14532981  0.46455652  1
  O  O292  1  0.91170020  0.72187944  0.39376820  1
  O  O293  1  0.65343162  0.21107363  0.38832080  1
  O  O294  1  0.61699412  0.79254942  0.49313534  1
  O  O295  1  0.12106053  0.47850582  0.38307588  1
  O  O296  1  0.94744846  0.48096649  0.42570215  1
  O  O297  1  0.79076777  0.76895365  0.44821366  1
  O  O298  1  0.68337326  0.26063980  0.44229217  1
  O  O299  1  0.08975588  0.97338329  0.42221758  1
  O  O300  1  0.84824582  0.35353526  0.45029675  1
  O  O301  1  0.97844166  0.85278004  0.42758802  1
  O  O302  1  0.30929231  0.35388528  0.42358468  1
  O  O303  1  0.42756827  0.88343264  0.44767938  1
  O  O304  1  0.57409018  0.14376899  0.57764676  1
  O  O305  1  0.63030175  0.57838844  0.65711185  1
  O  O306  1  0.30380697  0.00044008  0.56822727  1
  O  O307  1  0.32950507  0.46680216  0.66290774  1
  O  O308  1  0.71480072  0.97448415  0.65714646  1
  O  O309  1  0.67783712  0.51001338  0.57157099  1
  O  O310  1  0.23015303  0.07998721  0.65774675  1
  O  O311  1  0.16769729  0.62205827  0.55125792  1
  O  O312  1  0.80041438  0.14612464  0.50768713  1
  O  O313  1  0.82444714  0.62171620  0.59192639  1
  O  O314  1  0.09580385  0.97057889  0.62947137  1
  O  O315  1  0.05303385  0.49885247  0.52414508  1
  O  O316  1  0.93377626  0.02329548  0.54598649  1
  O  O317  1  0.97321394  0.45835699  0.62016357  1
  O  O318  1  0.95134700  0.11414781  0.59530018  1
  O  O319  1  0.84428579  0.52670171  0.48543936  1
  O  O320  1  0.76935490  0.11650839  0.63319232  1
  O  O321  1  0.72397750  0.60725605  0.53192599  1
  O  O322  1  0.13125351  0.98593488  0.50661902  1
  O  O323  1  0.14213455  0.47519736  0.58244763  1
  O  O324  1  0.88595854  0.97903776  0.59727978  1
  O  O325  1  0.88491389  0.41600199  0.52351399  1
  O  O326  1  0.02929178  0.14019429  0.53616588  1
  O  O327  1  0.06255027  0.58176415  0.62521955  1
  O  O328  1  0.56165230  0.07877832  0.53478235  1
  O  O329  1  0.48125222  0.67103476  0.60977110  1
  O  O330  1  0.46134924  0.90097927  0.61498882  1
  O  O331  1  0.65935373  0.42814031  0.61559307  1
  O  O332  1  0.23209362  0.14638430  0.60920115  1
  O  O333  1  0.95784200  0.83214233  0.54449931  1
  O  O334  1  0.31713029  0.72708837  0.55838907  1
  O  O335  1  0.38510723  0.18029834  0.64784879  1
  O  O336  1  0.50694505  0.42527589  0.56714084  1
  O  O337  1  0.55925707  0.88061615  0.67251260  1
  O  O338  1  0.68353077  0.38340085  0.67116367  1
  O  O339  1  0.64534415  0.92584013  0.57962518  1
  O  O340  1  0.28512442  0.65866803  0.64602943  1
  O  O341  1  0.24025503  0.21131166  0.55736012  1
  O  O342  1  0.55501814  0.26935708  0.67115261  1
  O  O343  1  0.54167907  0.80198608  0.56784254  1
  O  O344  1  0.39856694  0.77894919  0.65427714  1
  O  O345  1  0.40462556  0.29766115  0.54100087  1
  O  O346  1  0.07661300  0.74473954  0.59290546  1
  O  O347  1  0.02770057  0.27979992  0.64710276  1
  O  O348  1  0.86533475  0.30441838  0.57613686  1
  O  O349  1  0.90586968  0.77118958  0.65936465  1
  O  O350  1  0.64061301  0.05386058  0.75067083  1
  O  O351  1  0.67208670  0.53783078  0.84135572  1
  O  O352  1  0.36223416  0.94693761  0.75331892  1
  O  O353  1  0.38612472  0.42667439  0.84613897  1
  O  O354  1  0.77112679  0.92714175  0.85028031  1
  O  O355  1  0.75590161  0.44330015  0.75301451  1
  O  O356  1  0.28443467  0.03367026  0.84445954  1
  O  O357  1  0.24916825  0.55829570  0.75115066  1
  O  O358  1  0.86431363  0.07760706  0.68850954  1
  O  O359  1  0.89350410  0.55541436  0.77977504  1
  O  O360  1  0.14251879  0.92447503  0.81536896  1
  O  O361  1  0.11509370  0.44728513  0.72178869  1
  O  O362  1  0.01217627  0.94482848  0.72506623  1
  O  O363  1  0.03055640  0.42290222  0.81788258  1
  O  O364  1  0.99369834  0.06049539  0.77972718  1
  O  O365  1  0.96523878  0.58586455  0.68506836  1
  O  O366  1  0.80756775  0.05644343  0.81614967  1
  O  O367  1  0.77912277  0.57553955  0.71911145  1
  O  O368  1  0.20085790  0.94812218  0.68893646  1
  O  O369  1  0.22799213  0.41974084  0.78322488  1
  O  O370  1  0.94854386  0.91833124  0.78105863  1
  O  O371  1  0.94604081  0.43361798  0.68467515  1
  O  O372  1  0.04899856  0.08924874  0.72300036  1
  O  O373  1  0.06876905  0.56767247  0.81579190  1
  O  O374  1  0.50757116  0.12108444  0.70231617  1
  O  O375  1  0.52661823  0.60590330  0.79279512  1
  O  O376  1  0.50839464  0.87284377  0.80138576  1
  O  O377  1  0.48215917  0.40165797  0.71088359  1
  O  O378  1  0.77951440  0.88424616  0.70533264  1
  O  O379  1  0.76530011  0.37552563  0.80301809  1
  O  O380  1  0.26259876  0.10571394  0.79541581  1
  O  O381  1  0.21491851  0.63556856  0.70148221  1
  O  O382  1  0.42898823  0.64003617  0.73647539  1
  O  O383  1  0.44553430  0.12777179  0.83083197  1
  O  O384  1  0.57790771  0.35900636  0.76624098  1
  O  O385  1  0.60846035  0.83259797  0.85885120  1
  O  O386  1  0.73165076  0.34090084  0.86072188  1
  O  O387  1  0.71765316  0.85297404  0.76287301  1
  O  O388  1  0.31854566  0.62445659  0.83168993  1
  O  O389  1  0.28542252  0.15059506  0.73931709  1
  O  O390  1  0.60838641  0.22713893  0.85288054  1
  O  O391  1  0.57292233  0.74687771  0.76008322  1
  O  O392  1  0.45412094  0.73470732  0.83364151  1
  O  O393  1  0.43450386  0.25450445  0.74197260  1
  O  O394  1  0.07992076  0.75625292  0.74514562  1
  O  O395  1  0.08784904  0.23303535  0.83690767  1
  O  O396  1  0.93130845  0.24655732  0.76099649  1
  O  O397  1  0.96133098  0.72448140  0.85284773  1
  O  O398  1  0.70704758  0.01469739  0.93191904  1
  O  O399  1  0.43874068  0.88325250  0.92375991  1
  O  O400  1  0.82841276  0.39101456  0.94612083  1
  O  O401  1  0.31551260  0.51354500  0.93594778  1
  O  O402  1  0.90636908  0.03847798  0.87427291  1
  O  O403  1  0.95754475  0.56796688  0.95588853  1
  O  O404  1  0.08722018  0.94456712  0.00591091  1
  O  O405  1  0.15882403  0.39988015  0.91243571  1
  O  O406  1  0.05839066  0.89638017  0.90916062  1
  O  O407  1  0.93177374  0.47043204  0.98904686  1
  O  O408  1  0.06809539  0.98928191  0.95703029  1
  O  O409  1  0.02579376  0.54076114  0.87699416  1
  O  O410  1  0.79355010  0.07973762  0.98481489  1
  O  O411  1  0.82808271  0.53980962  0.91125531  1
  O  O412  1  0.23369028  0.89255791  0.87101022  1
  O  O413  1  0.25057933  0.41012348  0.97376902  1
  O  O414  1  0.94972531  0.88975333  0.97204032  1
  O  O415  1  0.96524081  0.40220648  0.87636866  1
  O  O416  1  0.11858365  0.03470163  0.90548791  1
  O  O417  1  0.06202873  0.56872784  0.00380037  1
  O  O418  1  0.52620408  0.10449983  0.88792628  1
  O  O419  1  0.42820932  0.91728248  0.97180413  1
  O  O420  1  0.50603205  0.35310206  0.89573428  1
  O  O421  1  0.81444472  0.83239448  0.89715041  1
  O  O422  1  0.81766527  0.29066377  0.99189322  1
  O  O423  1  0.28588797  0.59677048  0.88845858  1
  O  O424  1  0.50228193  0.59208773  0.92615629  1
  O  O425  1  0.64210608  0.30730808  0.94835853  1
  O  O426  1  0.75890539  0.80934436  0.94974363  1
  O  O427  1  0.35716988  0.09099610  0.92862715  1
  O  O428  1  0.59384968  0.71362231  0.95435247  1
  O  O429  1  0.45880874  0.21485900  0.93443039  1
  O  O430  1  0.14293720  0.71228578  0.93276783  1
  O  O431  1  0.00540334  0.18616355  0.94788108  1
