# generated using pymatgen
data_Na8Zr5Si5P2O29
_symmetry_space_group_name_H-M   'P 1'
_cell_length_a   9.06848800
_cell_length_b   15.86993085
_cell_length_c   48.45230874
_cell_angle_alpha   90.00000000
_cell_angle_beta   90.00000000
_cell_angle_gamma   55.15028861
_symmetry_Int_Tables_number   1
_chemical_formula_structural   Na8Zr5Si5P2O29
_chemical_formula_sum   'Na64 Zr40 Si40 P16 O232'
_cell_volume   5722.48077748
_cell_formula_units_Z   8
loop_
 _symmetry_equiv_pos_site_id
 _symmetry_equiv_pos_as_xyz
  1  'x, y, z'
loop_
 _atom_site_type_symbol
 _atom_site_label
 _atom_site_symmetry_multiplicity
 _atom_site_fract_x
 _atom_site_fract_y
 _atom_site_fract_z
 _atom_site_occupancy
  Na  Na0  1  0.86797340  0.76998203  0.08612580  1
  Na  Na1  1  0.81672141  0.31570007  0.17362792  1
  Na  Na2  1  0.20912269  0.17129977  0.01487759  1
  Na  Na3  1  0.24869785  0.66379113  0.14949172  1
  Na  Na4  1  0.42409968  0.16397055  0.14882548  1
  Na  Na5  1  0.44828470  0.67134639  0.01495120  1
  Na  Na6  1  0.55203946  0.81581988  0.17351802  1
  Na  Na7  1  0.59187403  0.27053763  0.08583620  1
  Na  Na8  1  0.89560579  0.98253412  0.10143639  1
  Na  Na9  1  0.93125926  0.47166096  0.01066713  1
  Na  Na10  1  0.12488780  0.97177177  0.01069487  1
  Na  Na11  1  0.13877699  0.48254890  0.10144901  1
  Na  Na12  1  0.79334595  0.83541103  0.26861193  1
  Na  Na13  1  0.76963351  0.35617627  0.36441473  1
  Na  Na14  1  0.18218864  0.19322780  0.23199273  1
  Na  Na15  1  0.15606748  0.71083575  0.32564368  1
  Na  Na16  1  0.42304666  0.21069838  0.32572948  1
  Na  Na17  1  0.43215401  0.69303608  0.23197510  1
  Na  Na18  1  0.51786263  0.85606619  0.36446254  1
  Na  Na19  1  0.53597775  0.33533168  0.26868167  1
  Na  Na20  1  0.87119093  0.02014913  0.29752725  1
  Na  Na21  1  0.88156028  0.50775015  0.20091189  1
  Na  Na22  1  0.10270263  0.00770396  0.20079060  1
  Na  Na23  1  0.08945867  0.51965584  0.29762655  1
  Na  Na24  1  0.75482975  0.88936999  0.47022381  1
  Na  Na25  1  0.15719832  0.22899342  0.42806283  1
  Na  Na26  1  0.38477568  0.72913795  0.42808570  1
  Na  Na27  1  0.46689018  0.38947828  0.47027935  1
  Na  Na28  1  0.89478712  0.07194476  0.52117948  1
  Na  Na29  1  0.84388446  0.54556217  0.39681121  1
  Na  Na30  1  0.06540566  0.04548817  0.39671338  1
  Na  Na31  1  0.96137081  0.57203339  0.52129629  1
  Na  Na32  1  0.83325364  0.02956696  0.58596118  1
  Na  Na33  1  0.88363576  0.48406552  0.67362395  1
  Na  Na34  1  0.49102048  0.62884191  0.51494193  1
  Na  Na35  1  0.45286718  0.13567797  0.64874433  1
  Na  Na36  1  0.27610521  0.63579429  0.64904113  1
  Na  Na37  1  0.25233967  0.12881528  0.51487653  1
  Na  Na38  1  0.14886125  0.98403807  0.67359353  1
  Na  Na39  1  0.10792336  0.52993154  0.58608616  1
  Na  Na40  1  0.80400579  0.81760272  0.60131416  1
  Na  Na41  1  0.76879471  0.32825405  0.51071831  1
  Na  Na42  1  0.57475764  0.82846211  0.51066049  1
  Na  Na43  1  0.56116780  0.31756738  0.60143528  1
  Na  Na44  1  0.90630030  0.96442749  0.76871796  1
  Na  Na45  1  0.92886544  0.44409315  0.86451528  1
  Na  Na46  1  0.51821180  0.60675723  0.73194176  1
  Na  Na47  1  0.54374876  0.08943828  0.82573665  1
  Na  Na48  1  0.27765699  0.58920287  0.82560173  1
  Na  Na49  1  0.26921907  0.10663713  0.73209121  1
  Na  Na50  1  0.18185338  0.94412405  0.86445245  1
  Na  Na51  1  0.16411714  0.46440282  0.76863033  1
  Na  Na52  1  0.82862111  0.78028318  0.79759749  1
  Na  Na53  1  0.81827946  0.29200734  0.70084492  1
  Na  Na54  1  0.59763695  0.79170359  0.70092600  1
  Na  Na55  1  0.61137983  0.27947744  0.79757682  1
  Na  Na56  1  0.94515537  0.91095747  0.97026793  1
  Na  Na57  1  0.54240577  0.57119372  0.92796780  1
  Na  Na58  1  0.31485060  0.07123065  0.92789732  1
  Na  Na59  1  0.23273945  0.41110199  0.97023554  1
  Na  Na60  1  0.80487539  0.72813391  0.02128592  1
  Na  Na61  1  0.85560995  0.25488300  0.89668464  1
  Na  Na62  1  0.63471660  0.75464289  0.89672740  1
  Na  Na63  1  0.73875081  0.22798766  0.02103591  1
  Zr  Zr64  1  0.85119161  0.89814553  0.16165753  1
  Zr  Zr65  1  0.90818057  0.36638002  0.06740380  1
  Zr  Zr66  1  0.14078558  0.09568894  0.14080831  1
  Zr  Zr67  1  0.24565197  0.54237631  0.04332281  1
  Zr  Zr68  1  0.66937287  0.04229476  0.04335142  1
  Zr  Zr69  1  0.66747570  0.59557680  0.14086988  1
  Zr  Zr70  1  0.35832423  0.86649968  0.06738400  1
  Zr  Zr71  1  0.35235285  0.39825363  0.16169573  1
  Zr  Zr72  1  0.82948746  0.93162451  0.35566472  1
  Zr  Zr73  1  0.83703271  0.41729369  0.25815748  1
  Zr  Zr74  1  0.12030386  0.12950094  0.33730916  1
  Zr  Zr75  1  0.13210811  0.61252276  0.24107492  1
  Zr  Zr76  1  0.64278196  0.11246383  0.24089031  1
  Zr  Zr77  1  0.62075825  0.62946811  0.33746461  1
  Zr  Zr78  1  0.32907849  0.91716848  0.25803815  1
  Zr  Zr79  1  0.30749973  0.43166995  0.35579316  1
  Zr  Zr80  1  0.77319304  0.44854919  0.44900442  1
  Zr  Zr81  1  0.07402774  0.65113989  0.43232070  1
  Zr  Zr82  1  0.62405922  0.15102957  0.43232793  1
  Zr  Zr83  1  0.33013430  0.94868462  0.44888908  1
  Zr  Zr84  1  0.84960418  0.90121074  0.66166117  1
  Zr  Zr85  1  0.79173666  0.43356221  0.56744696  1
  Zr  Zr86  1  0.55910885  0.70426479  0.64088174  1
  Zr  Zr87  1  0.45408167  0.25805941  0.54332847  1
  Zr  Zr88  1  0.03062555  0.75773274  0.54325264  1
  Zr  Zr89  1  0.03241107  0.20436052  0.64086667  1
  Zr  Zr90  1  0.34145316  0.93345452  0.56737799  1
  Zr  Zr91  1  0.34819189  0.40125321  0.66168563  1
  Zr  Zr92  1  0.87069043  0.86846523  0.85575403  1
  Zr  Zr93  1  0.86307814  0.38272188  0.75804018  1
  Zr  Zr94  1  0.57942136  0.67047002  0.83743521  1
  Zr  Zr95  1  0.56810278  0.18711755  0.74093853  1
  Zr  Zr96  1  0.05740302  0.68724152  0.74105002  1
  Zr  Zr97  1  0.07876394  0.17053573  0.83730788  1
  Zr  Zr98  1  0.37176282  0.88263822  0.75814002  1
  Zr  Zr99  1  0.39200057  0.36849541  0.85565426  1
  Zr  Zr100  1  0.92671188  0.35175744  0.94886165  1
  Zr  Zr101  1  0.62520550  0.14941789  0.93232320  1
  Zr  Zr102  1  0.07564473  0.64930269  0.93225393  1
  Zr  Zr103  1  0.36989406  0.85173850  0.94891160  1
  Si  Si104  1  0.04283210  0.35054225  0.13559439  1
  Si  Si105  1  0.02437952  0.83730686  0.03915727  1
  Si  Si106  1  0.97062814  0.63978559  0.17261230  1
  Si  Si107  1  0.99601878  0.11536911  0.07010541  1
  Si  Si108  1  0.77276345  0.61512610  0.07018454  1
  Si  Si109  1  0.74930513  0.13971185  0.17231526  1
  Si  Si110  1  0.30016709  0.33744970  0.03911008  1
  Si  Si111  1  0.25564776  0.85061043  0.13553226  1
  Si  Si112  1  0.99966169  0.38767748  0.32698691  1
  Si  Si113  1  0.01700129  0.87079722  0.23047422  1
  Si  Si114  1  0.92976159  0.67605986  0.36352891  1
  Si  Si115  1  0.95245602  0.15914201  0.26872404  1
  Si  Si116  1  0.72932700  0.65921608  0.26882814  1
  Si  Si117  1  0.71856865  0.17612951  0.36359297  1
  Si  Si118  1  0.24169785  0.37092269  0.23055624  1
  Si  Si119  1  0.22550314  0.88758265  0.32692029  1
  Si  Si120  1  0.98269440  0.90399711  0.42598590  1
  Si  Si121  1  0.93625302  0.18272252  0.46350055  1
  Si  Si122  1  0.69806964  0.68296279  0.46352509  1
  Si  Si123  1  0.20975626  0.40398010  0.42610013  1
  Si  Si124  1  0.65687032  0.44946977  0.63562563  1
  Si  Si125  1  0.67528364  0.96270713  0.53907262  1
  Si  Si126  1  0.72975383  0.15954295  0.67241863  1
  Si  Si127  1  0.70358265  0.68466003  0.57019427  1
  Si  Si128  1  0.92700419  0.18482877  0.57016855  1
  Si  Si129  1  0.95118993  0.65971322  0.67258137  1
  Si  Si130  1  0.39947798  0.46299546  0.53916380  1
  Si  Si131  1  0.44446268  0.94922100  0.63550508  1
  Si  Si132  1  0.69994342  0.41240717  0.82693988  1
  Si  Si133  1  0.68385459  0.92871625  0.73052018  1
  Si  Si134  1  0.77009297  0.12411385  0.86357735  1
  Si  Si135  1  0.74787148  0.64054419  0.76880508  1
  Si  Si136  1  0.97076595  0.14068907  0.76871057  1
  Si  Si137  1  0.98145748  0.62408861  0.86343907  1
  Si  Si138  1  0.45862645  0.42875793  0.73051632  1
  Si  Si139  1  0.47490621  0.91234665  0.82697638  1
  Si  Si140  1  0.71715737  0.89634393  0.92609060  1
  Si  Si141  1  0.76368079  0.61733817  0.96344530  1
  Si  Si142  1  0.00148453  0.11738965  0.96337339  1
  Si  Si143  1  0.48981915  0.39643920  0.92598557  1
  P  P144  1  0.55020527  0.98217547  0.10352828  1
  P  P145  1  0.48450541  0.48245437  0.10357359  1
  P  P146  1  0.52404405  0.02210035  0.29796511  1
  P  P147  1  0.53697294  0.50831892  0.20066375  1
  P  P148  1  0.44601384  0.00832713  0.20059646  1
  P  P149  1  0.43244235  0.52188922  0.29808612  1
  P  P150  1  0.48867883  0.54399405  0.39444308  1
  P  P151  1  0.42385359  0.04395368  0.39427183  1
  P  P152  1  0.14999012  0.81733160  0.60349978  1
  P  P153  1  0.21528142  0.31771177  0.60352571  1
  P  P154  1  0.17605043  0.77823039  0.79806108  1
  P  P155  1  0.16283557  0.29150497  0.70059654  1
  P  P156  1  0.25388340  0.79160773  0.70067204  1
  P  P157  1  0.26773751  0.27780367  0.79793039  1
  P  P158  1  0.21084913  0.25627979  0.89425267  1
  P  P159  1  0.27634494  0.75624150  0.89435328  1
  O  O160  1  0.88167033  0.89326835  0.06506784  1
  O  O161  1  0.86885589  0.44359574  0.15243807  1
  O  O162  1  0.18081470  0.01726898  0.05581318  1
  O  O163  1  0.14372588  0.55250425  0.15444411  1
  O  O164  1  0.75216134  0.05209121  0.15407892  1
  O  O165  1  0.78464374  0.51698161  0.05581901  1
  O  O166  1  0.24281868  0.94379485  0.15242021  1
  O  O167  1  0.33028808  0.39356381  0.06506377  1
  O  O168  1  0.65598022  0.40925600  0.08644881  1
  O  O169  1  0.38851418  0.05004352  0.12338190  1
  O  O170  1  0.43705530  0.52678685  0.02528337  1
  O  O171  1  0.50876593  0.02710783  0.02528624  1
  O  O172  1  0.51030152  0.55029799  0.12347767  1
  O  O173  1  0.52536529  0.90894164  0.08638561  1
  O  O174  1  0.44974469  0.41369560  0.12147966  1
  O  O175  1  0.56905488  0.05619471  0.08551610  1
  O  O176  1  0.31780973  0.55636181  0.08551455  1
  O  O177  1  0.72232914  0.91344164  0.12147051  1
  O  O178  1  0.90301128  0.93478414  0.01672822  1
  O  O179  1  0.00859894  0.36784288  0.10229701  1
  O  O180  1  0.02624124  0.10904508  0.10447846  1
  O  O181  1  0.75640688  0.60828505  0.10456799  1
  O  O182  1  0.25417357  0.86862537  0.10225695  1
  O  O183  1  0.22680158  0.43493287  0.01669877  1
  O  O184  1  0.12761426  0.32700263  0.04427722  1
  O  O185  1  0.08274670  0.84591139  0.14017767  1
  O  O186  1  0.95332031  0.61149508  0.06391048  1
  O  O187  1  0.92501090  0.14182250  0.16645121  1
  O  O188  1  0.79123196  0.64144777  0.16657339  1
  O  O189  1  0.82318909  0.11122876  0.06388297  1
  O  O190  1  0.22430600  0.34665557  0.14021582  1
  O  O191  1  0.21746856  0.82717019  0.04434972  1
  O  O192  1  0.92969573  0.74994408  0.16387689  1
  O  O193  1  0.94619071  0.22760877  0.05864328  1
  O  O194  1  0.07761682  0.24214464  0.14501641  1
  O  O195  1  0.06850814  0.72259152  0.03291345  1
  O  O196  1  0.48589038  0.22289591  0.03289737  1
  O  O197  1  0.43818893  0.74231255  0.14489575  1
  O  O198  1  0.59732303  0.72721491  0.05882697  1
  O  O199  1  0.56968655  0.24967140  0.16353992  1
  O  O200  1  0.85008730  0.95877819  0.24976794  1
  O  O201  1  0.83248142  0.47609725  0.34602700  1
  O  O202  1  0.12019866  0.07105692  0.24968381  1
  O  O203  1  0.09788977  0.58465154  0.34555361  1
  O  O204  1  0.73258218  0.08489078  0.34562613  1
  O  O205  1  0.73780589  0.57117600  0.24975589  1
  O  O206  1  0.21573105  0.97616634  0.34589333  1
  O  O207  1  0.23313157  0.45866370  0.24990064  1
  O  O208  1  0.60401411  0.94371544  0.18041633  1
  O  O209  1  0.58939520  0.46245936  0.27733038  1
  O  O210  1  0.36855773  0.08338579  0.31887137  1
  O  O211  1  0.37854655  0.56771789  0.22127341  1
  O  O212  1  0.48567100  0.06738149  0.22134812  1
  O  O213  1  0.46522437  0.58294852  0.31908809  1
  O  O214  1  0.48629185  0.96261290  0.27717261  1
  O  O215  1  0.50921313  0.44318056  0.18051961  1
  O  O216  1  0.41944060  0.93213203  0.21608579  1
  O  O217  1  0.41126391  0.44317116  0.31310429  1
  O  O218  1  0.54251537  0.10149306  0.28249943  1
  O  O219  1  0.54895081  0.58828007  0.18440620  1
  O  O220  1  0.27383982  0.08833139  0.18442762  1
  O  O221  1  0.25551351  0.60152360  0.28258031  1
  O  O222  1  0.70224778  0.94343727  0.31308325  1
  O  O223  1  0.71551066  0.43251996  0.21627350  1
  O  O224  1  0.96637117  0.89317558  0.19774530  1
  O  O225  1  0.95249313  0.41044834  0.29399441  1
  O  O226  1  0.00441530  0.13672107  0.30154642  1
  O  O227  1  0.01081544  0.61850271  0.20587311  1
  O  O228  1  0.75086383  0.11837211  0.20555911  1
  O  O229  1  0.72050089  0.63719366  0.30161782  1
  O  O230  1  0.22867082  0.90979332  0.29393707  1
  O  O231  1  0.24784742  0.39323141  0.19783834  1
  O  O232  1  0.06284819  0.36960431  0.23471182  1
  O  O233  1  0.04884836  0.88465521  0.33115583  1
  O  O234  1  0.90920452  0.65960311  0.26528023  1
  O  O235  1  0.89351454  0.18007573  0.36040788  1
  O  O236  1  0.74675454  0.68014635  0.36042765  1
  O  O237  1  0.77161689  0.15994547  0.26492918  1
  O  O238  1  0.18253785  0.38426599  0.33133907  1
  O  O239  1  0.19866755  0.86923538  0.23467608  1
  O  O240  1  0.89330119  0.78502959  0.35447221  1
  O  O241  1  0.90782981  0.26965633  0.25873208  1
  O  O242  1  0.04280810  0.27761866  0.33654677  1
  O  O243  1  0.06099729  0.76008327  0.24028133  1
  O  O244  1  0.41866541  0.26001547  0.24030498  1
  O  O245  1  0.40162000  0.77750004  0.33670729  1
  O  O246  1  0.55403904  0.76971465  0.25858698  1
  O  O247  1  0.53726450  0.28530243  0.35460818  1
  O  O248  1  0.80053113  0.99647281  0.44224044  1
  O  O249  1  0.09639616  0.09728233  0.44250491  1
  O  O250  1  0.70895860  0.59734461  0.44259142  1
  O  O251  1  0.20698044  0.49654833  0.44230502  1
  O  O252  1  0.57629547  0.98556665  0.37293579  1
  O  O253  1  0.62056002  0.47681619  0.47893172  1
  O  O254  1  0.33557805  0.60611666  0.41540549  1
  O  O255  1  0.45279337  0.10614780  0.41519715  1
  O  O256  1  0.42655337  0.97717743  0.47871756  1
  O  O257  1  0.45233380  0.48599913  0.37307185  1
  O  O258  1  0.42069019  0.95793305  0.40966511  1
  O  O259  1  0.52587801  0.61653749  0.37979099  1
  O  O260  1  0.24174672  0.11647450  0.37958907  1
  O  O261  1  0.66393566  0.45782963  0.40978591  1
  O  O262  1  0.94127804  0.91953188  0.39219586  1
  O  O263  1  0.97935495  0.15820266  0.49584445  1
  O  O264  1  0.97387067  0.65412358  0.39677488  1
  O  O265  1  0.71857557  0.15429475  0.39684317  1
  O  O266  1  0.70455784  0.65853074  0.49588350  1
  O  O267  1  0.21981005  0.41953348  0.39230486  1
  O  O268  1  0.02996891  0.40659496  0.43153666  1
  O  O269  1  0.86310677  0.69725387  0.45627032  1
  O  O270  1  0.74264281  0.19684602  0.45640975  1
  O  O271  1  0.15726576  0.90664471  0.43135591  1
  O  O272  1  0.90639997  0.29236380  0.45457184  1
  O  O273  1  0.03032141  0.79232136  0.43661166  1
  O  O274  1  0.38559242  0.29229736  0.43668310  1
  O  O275  1  0.50840772  0.79252934  0.45462602  1
  O  O276  1  0.81796916  0.90672335  0.56499425  1
  O  O277  1  0.83072749  0.35626999  0.65246660  1
  O  O278  1  0.51880007  0.78272090  0.55589042  1
  O  O279  1  0.55693508  0.24723837  0.65424907  1
  O  O280  1  0.94960810  0.74701754  0.65439470  1
  O  O281  1  0.91577396  0.28286170  0.55586642  1
  O  O282  1  0.45631005  0.85630522  0.65239016  1
  O  O283  1  0.36866141  0.40701475  0.56507791  1
  O  O284  1  0.04405534  0.39090606  0.58637098  1
  O  O285  1  0.31180822  0.74925114  0.62333112  1
  O  O286  1  0.26287857  0.27359766  0.52523704  1
  O  O287  1  0.19057139  0.77345095  0.52517661  1
  O  O288  1  0.18924811  0.24983701  0.62337339  1
  O  O289  1  0.17471571  0.89069611  0.58638864  1
  O  O290  1  0.24994416  0.38643541  0.62147305  1
  O  O291  1  0.13077737  0.74355492  0.58543847  1
  O  O292  1  0.38233658  0.24377681  0.58552058  1
  O  O293  1  0.97795356  0.88591503  0.62146150  1
  O  O294  1  0.79673822  0.86519507  0.51666488  1
  O  O295  1  0.69163402  0.43198614  0.60234821  1
  O  O296  1  0.67410671  0.69103121  0.60459014  1
  O  O297  1  0.94322068  0.19162771  0.60456294  1
  O  O298  1  0.44584887  0.93144216  0.60222363  1
  O  O299  1  0.47281305  0.36554908  0.51673917  1
  O  O300  1  0.57238015  0.47300122  0.54435344  1
  O  O301  1  0.61807787  0.95317409  0.64019525  1
  O  O302  1  0.74619705  0.18881301  0.56378993  1
  O  O303  1  0.77504671  0.65818198  0.66648621  1
  O  O304  1  0.90912985  0.15802934  0.66650796  1
  O  O305  1  0.87639393  0.68873354  0.56385757  1
  O  O306  1  0.47513997  0.45353435  0.64017188  1
  O  O307  1  0.48212943  0.97276402  0.54426202  1
  O  O308  1  0.77028269  0.04967322  0.66352075  1
  O  O309  1  0.75304901  0.57248624  0.55878386  1
  O  O310  1  0.62209288  0.55782663  0.64507793  1
  O  O311  1  0.63106489  0.07740119  0.53282277  1
  O  O312  1  0.21424575  0.57767907  0.53289747  1
  O  O313  1  0.26231046  0.05774574  0.64483744  1
  O  O314  1  0.10202934  0.07250071  0.55886497  1
  O  O315  1  0.13070341  0.54963610  0.66389148  1
  O  O316  1  0.85063221  0.84110225  0.74989776  1
  O  O317  1  0.86725348  0.32393463  0.84596258  1
  O  O318  1  0.58024240  0.72871994  0.74975658  1
  O  O319  1  0.60167164  0.21529011  0.84559712  1
  O  O320  1  0.96657329  0.71557587  0.84546707  1
  O  O321  1  0.96151927  0.22894283  0.74962409  1
  O  O322  1  0.48462783  0.82383598  0.84599070  1
  O  O323  1  0.46795951  0.34081568  0.74985761  1
  O  O324  1  0.09629604  0.85640547  0.68044383  1
  O  O325  1  0.11132552  0.33719743  0.77709754  1
  O  O326  1  0.33092388  0.71715104  0.81906031  1
  O  O327  1  0.32081338  0.23252544  0.72131538  1
  O  O328  1  0.21424208  0.73213511  0.72126433  1
  O  O329  1  0.23444291  0.21664051  0.81881992  1
  O  O330  1  0.21393574  0.83792619  0.77737556  1
  O  O331  1  0.19153038  0.35604874  0.68037532  1
  O  O332  1  0.27997107  0.86769579  0.71632576  1
  O  O333  1  0.28844578  0.35645409  0.81307962  1
  O  O334  1  0.15872337  0.69856336  0.78249945  1
  O  O335  1  0.15059230  0.21150173  0.68444240  1
  O  O336  1  0.42633628  0.71184827  0.68450724  1
  O  O337  1  0.44512492  0.19823525  0.78252151  1
  O  O338  1  0.99734001  0.85678620  0.81307597  1
  O  O339  1  0.98403696  0.36775642  0.71611187  1
  O  O340  1  0.73513557  0.90639151  0.69781902  1
  O  O341  1  0.74817409  0.39016516  0.79396811  1
  O  O342  1  0.69519202  0.66235096  0.80160794  1
  O  O343  1  0.68907772  0.18057068  0.70567221  1
  O  O344  1  0.94827006  0.68124418  0.70583797  1
  O  O345  1  0.97751994  0.16331850  0.80153301  1
  O  O346  1  0.47354105  0.88945143  0.79398552  1
  O  O347  1  0.45315204  0.40601936  0.69781022  1
  O  O348  1  0.63683081  0.43068404  0.73467806  1
  O  O349  1  0.65078533  0.91592998  0.83133665  1
  O  O350  1  0.79186873  0.13946126  0.76499762  1
  O  O351  1  0.80680569  0.61982667  0.86038223  1
  O  O352  1  0.95291819  0.12017054  0.86041634  1
  O  O353  1  0.92853549  0.64014213  0.76523799  1
  O  O354  1  0.51751110  0.41521134  0.83107515  1
  O  O355  1  0.50251118  0.92992346  0.73460739  1
  O  O356  1  0.80719007  0.01495932  0.85456372  1
  O  O357  1  0.79324341  0.53012923  0.75855937  1
  O  O358  1  0.65535427  0.52259691  0.83675063  1
  O  O359  1  0.63853402  0.03968731  0.74033447  1
  O  O360  1  0.28105290  0.53952651  0.74025193  1
  O  O361  1  0.29772865  0.02240784  0.83653066  1
  O  O362  1  0.14778593  0.03043526  0.75874483  1
  O  O363  1  0.16301122  0.51518280  0.85437688  1
  O  O364  1  0.89922468  0.80385938  0.94237281  1
  O  O365  1  0.60341242  0.70308965  0.94252216  1
  O  O366  1  0.99022031  0.20321220  0.94248080  1
  O  O367  1  0.49249113  0.30404738  0.94228476  1
  O  O368  1  0.12452453  0.81414647  0.87289916  1
  O  O369  1  0.07985280  0.32345236  0.97871738  1
  O  O370  1  0.36400284  0.19442892  0.91522128  1
  O  O371  1  0.24682059  0.69447293  0.91534172  1
  O  O372  1  0.27390702  0.82374435  0.97892189  1
  O  O373  1  0.24647978  0.31452211  0.87286433  1
  O  O374  1  0.27934623  0.84240083  0.90967927  1
  O  O375  1  0.17435507  0.18339876  0.87962894  1
  O  O376  1  0.45885026  0.68337225  0.87979097  1
  O  O377  1  0.03542971  0.34235597  0.90958928  1
  O  O378  1  0.75922963  0.88057689  0.89231111  1
  O  O379  1  0.72157148  0.64158809  0.99581817  1
  O  O380  1  0.72621151  0.14600632  0.89682232  1
  O  O381  1  0.98203585  0.64597108  0.89668546  1
  O  O382  1  0.99617752  0.14135507  0.99574571  1
  O  O383  1  0.47918625  0.38079193  0.89220269  1
  O  O384  1  0.66987555  0.39365620  0.93127418  1
  O  O385  1  0.83570417  0.10355262  0.95632109  1
  O  O386  1  0.95728163  0.60299350  0.95619232  1
  O  O387  1  0.54258687  0.89368623  0.93139602  1
  O  O388  1  0.79276480  0.50793203  0.95449348  1
  O  O389  1  0.66897257  0.00819133  0.93666385  1
  O  O390  1  0.31438766  0.50823607  0.93660212  1
  O  O391  1  0.19043289  0.00791449  0.95426315  1
