# generated using pymatgen
data_Na9Zr5Si5P3O32
_symmetry_space_group_name_H-M   'P 1'
_cell_length_a   9.15937100
_cell_length_b   16.04975191
_cell_length_c   49.81166051
_cell_angle_alpha   90.00000000
_cell_angle_beta   90.00000000
_cell_angle_gamma   55.20191359
_symmetry_Int_Tables_number   1
_chemical_formula_structural   Na9Zr5Si5P3O32
_chemical_formula_sum   'Na72 Zr40 Si40 P24 O256'
_cell_volume   6013.08237124
_cell_formula_units_Z   8
loop_
 _symmetry_equiv_pos_site_id
 _symmetry_equiv_pos_as_xyz
  1  'x, y, z'
loop_
 _atom_site_type_symbol
 _atom_site_label
 _atom_site_symmetry_multiplicity
 _atom_site_fract_x
 _atom_site_fract_y
 _atom_site_fract_z
 _atom_site_occupancy
  Na  Na0  1  0.74026624  0.84184718  0.06798648  1
  Na  Na1  1  0.05413009  0.27661045  0.00671786  1
  Na  Na2  1  0.24055400  0.17453914  0.06590336  1
  Na  Na3  1  0.19327759  0.71659364  0.15146045  1
  Na  Na4  1  0.37792745  0.24267318  0.13115868  1
  Na  Na5  1  0.40291853  0.69316099  0.06485943  1
  Na  Na6  1  0.40265855  0.81904933  0.00142063  1
  Na  Na7  1  0.59699728  0.31645028  0.11076713  1
  Na  Na8  1  0.87015381  0.01875861  0.11422320  1
  Na  Na9  1  0.85105232  0.56097832  0.02859000  1
  Na  Na10  1  0.07169810  0.05004575  0.02061720  1
  Na  Na11  1  0.12060287  0.50237074  0.10576464  1
  Na  Na12  1  0.73076992  0.89603747  0.27070892  1
  Na  Na13  1  0.77146700  0.36856402  0.18334386  1
  Na  Na14  1  0.13636233  0.25242701  0.23779542  1
  Na  Na15  1  0.11374625  0.76985706  0.33078703  1
  Na  Na16  1  0.35034208  0.26894887  0.33133987  1
  Na  Na17  1  0.37518959  0.75373772  0.23567820  1
  Na  Na18  1  0.53968980  0.87881224  0.16480437  1
  Na  Na19  1  0.47361715  0.39469095  0.27172542  1
  Na  Na20  1  0.80891609  0.08555012  0.29876211  1
  Na  Na21  1  0.81588688  0.57371650  0.20682030  1
  Na  Na22  1  0.06391528  0.05096724  0.20424123  1
  Na  Na23  1  0.02075377  0.59084780  0.30086918  1
  Na  Na24  1  0.62851806  0.93384719  0.43333625  1
  Na  Na25  1  0.66105706  0.42391240  0.34813062  1
  Na  Na26  1  0.06598733  0.30433936  0.41600650  1
  Na  Na27  1  0.79063553  0.74608164  0.52990036  1
  Na  Na28  1  0.54143859  0.27181025  0.49926540  1
  Na  Na29  1  0.32091053  0.80026339  0.42723749  1
  Na  Na30  1  0.46671049  0.91879320  0.36205016  1
  Na  Na31  1  0.52324133  0.40494435  0.41964795  1
  Na  Na32  1  0.89849893  0.97063679  0.47665834  1
  Na  Na33  1  0.79589250  0.58731632  0.39127283  1
  Na  Na34  1  0.02406903  0.08835228  0.39033782  1
  Na  Na35  1  0.02969173  0.58672545  0.47924606  1
  Na  Na36  1  0.64485269  0.26087939  0.60180218  1
  Na  Na37  1  0.42254889  0.73726770  0.50713596  1
  Na  Na38  1  0.18287610  0.90090066  0.56285701  1
  Na  Na39  1  0.28065124  0.33788116  0.62929112  1
  Na  Na40  1  0.04379924  0.83539259  0.62733958  1
  Na  Na41  1  0.00512726  0.39071445  0.56790564  1
  Na  Na42  1  0.06626992  0.26023129  0.50731964  1
  Na  Na43  1  0.82372371  0.76921027  0.60527678  1
  Na  Na44  1  0.53630509  0.08224605  0.59951304  1
  Na  Na45  1  0.61808742  0.47276368  0.52580059  1
  Na  Na46  1  0.40483374  0.95748454  0.51333647  1
  Na  Na47  1  0.29733577  0.58276249  0.60028004  1
  Na  Na48  1  0.68558934  0.18269276  0.76484833  1
  Na  Na49  1  0.66695278  0.70571428  0.67363834  1
  Na  Na50  1  0.29621415  0.82201514  0.72695184  1
  Na  Na51  1  0.31434622  0.30985822  0.82267090  1
  Na  Na52  1  0.07242266  0.80751894  0.82167154  1
  Na  Na53  1  0.04799912  0.32331294  0.72871133  1
  Na  Na54  1  0.91579050  0.20186659  0.67170714  1
  Na  Na55  1  0.94176283  0.68168568  0.76418471  1
  Na  Na56  1  0.61184951  0.99083569  0.79173782  1
  Na  Na57  1  0.59898601  0.50755976  0.70021817  1
  Na  Na58  1  0.37163627  0.01399168  0.69826726  1
  Na  Na59  1  0.39004790  0.49528838  0.79260847  1
  Na  Na60  1  0.77867366  0.13426166  0.93200639  1
  Na  Na61  1  0.75275755  0.65436206  0.84451885  1
  Na  Na62  1  0.32866006  0.77608245  0.91593774  1
  Na  Na63  1  0.57959730  0.24133943  0.98792960  1
  Na  Na64  1  0.91167988  0.81054150  0.99819443  1
  Na  Na65  1  0.09940034  0.28320121  0.92633620  1
  Na  Na66  1  0.95765111  0.16319527  0.85681435  1
  Na  Na67  1  0.94930891  0.63616983  0.93505235  1
  Na  Na68  1  0.58578994  0.01564968  0.97008128  1
  Na  Na69  1  0.62424063  0.49733511  0.88426351  1
  Na  Na70  1  0.42184009  0.97757433  0.88178327  1
  Na  Na71  1  0.64286183  0.34585388  0.03289432  1
  Zr  Zr72  1  0.80740078  0.95292396  0.16978692  1
  Zr  Zr73  1  0.85359722  0.41475695  0.07383409  1
  Zr  Zr74  1  0.09462380  0.15290204  0.15151205  1
  Zr  Zr75  1  0.15833185  0.59772696  0.04471514  1
  Zr  Zr76  1  0.66554766  0.08916880  0.06022509  1
  Zr  Zr77  1  0.62151438  0.64950151  0.14693462  1
  Zr  Zr78  1  0.31988067  0.91867166  0.07576709  1
  Zr  Zr79  1  0.29316570  0.45548554  0.16667974  1
  Zr  Zr80  1  0.76703547  0.99335166  0.35467085  1
  Zr  Zr81  1  0.77906113  0.47809072  0.26014188  1
  Zr  Zr82  1  0.05145994  0.19405368  0.33772920  1
  Zr  Zr83  1  0.07539465  0.67215983  0.24456551  1
  Zr  Zr84  1  0.58053372  0.17442749  0.24342553  1
  Zr  Zr85  1  0.56390455  0.69426262  0.33804835  1
  Zr  Zr86  1  0.27434857  0.97722271  0.26142154  1
  Zr  Zr87  1  0.24519484  0.49325360  0.35625006  1
  Zr  Zr88  1  0.70583349  0.52459713  0.45200724  1
  Zr  Zr89  1  0.03187102  0.71121240  0.43308567  1
  Zr  Zr90  1  0.54367968  0.20900951  0.43402390  1
  Zr  Zr91  1  0.20302180  0.04324440  0.45083913  1
  Zr  Zr92  1  0.62484400  0.11683679  0.66111810  1
  Zr  Zr93  1  0.56898800  0.66336977  0.56884351  1
  Zr  Zr94  1  0.33187372  0.92459524  0.64258418  1
  Zr  Zr95  1  0.26503964  0.47801298  0.54382299  1
  Zr  Zr96  1  0.76818190  0.98191317  0.54307344  1
  Zr  Zr97  1  0.81016875  0.42377581  0.64355893  1
  Zr  Zr98  1  0.09794707  0.15954630  0.56784880  1
  Zr  Zr99  1  0.13472861  0.61598526  0.66119576  1
  Zr  Zr100  1  0.65173041  0.08785037  0.84628773  1
  Zr  Zr101  1  0.64101546  0.60048935  0.75389318  1
  Zr  Zr102  1  0.36645380  0.88553526  0.82900403  1
  Zr  Zr103  1  0.34714308  0.40213802  0.73810343  1
  Zr  Zr104  1  0.84230389  0.90203137  0.73673373  1
  Zr  Zr105  1  0.85601684  0.38574954  0.83212836  1
  Zr  Zr106  1  0.14648488  0.10145184  0.75343925  1
  Zr  Zr107  1  0.17489600  0.58473868  0.85021147  1
  Zr  Zr108  1  0.69107794  0.55258956  0.94951695  1
  Zr  Zr109  1  0.38944482  0.36929832  0.92802135  1
  Zr  Zr110  1  0.87400204  0.86505124  0.92245213  1
  Zr  Zr111  1  0.21047191  0.03501111  0.93719203  1
  Si  Si112  1  0.97731187  0.40614709  0.14259854  1
  Si  Si113  1  0.99189277  0.88636369  0.05283300  1
  Si  Si114  1  0.94284945  0.16726478  0.08340780  1
  Si  Si115  1  0.74869225  0.66128847  0.08326490  1
  Si  Si116  1  0.30199658  0.34170528  0.06262101  1
  Si  Si117  1  0.21065114  0.90597365  0.14221845  1
  Si  Si118  1  0.93970644  0.45017529  0.32705417  1
  Si  Si119  1  0.96144960  0.93093862  0.23621044  1
  Si  Si120  1  0.91837963  0.69597756  0.17918060  1
  Si  Si121  1  0.89356344  0.22137910  0.27019881  1
  Si  Si122  1  0.67292502  0.71993384  0.27163757  1
  Si  Si123  1  0.68650573  0.19883470  0.17500368  1
  Si  Si124  1  0.18631741  0.42942309  0.23415036  1
  Si  Si125  1  0.16395777  0.95061722  0.32783021  1
  Si  Si126  1  0.92517224  0.96697076  0.42091130  1
  Si  Si127  1  0.87597836  0.73875869  0.36527741  1
  Si  Si128  1  0.87941333  0.24906449  0.45071658  1
  Si  Si129  1  0.60628944  0.77791429  0.46218223  1
  Si  Si130  1  0.64984993  0.23915761  0.36564835  1
  Si  Si131  1  0.12987443  0.46636213  0.42253730  1
  Si  Si132  1  0.44409139  0.67036701  0.63676529  1
  Si  Si133  1  0.39036122  0.23713546  0.55869298  1
  Si  Si134  1  0.48269470  0.91389403  0.57542684  1
  Si  Si135  1  0.67560678  0.41496329  0.57981988  1
  Si  Si136  1  0.12773892  0.73548430  0.55697266  1
  Si  Si137  1  0.21370391  0.16547593  0.63545192  1
  Si  Si138  1  0.47862030  0.62822192  0.81999431  1
  Si  Si139  1  0.46251796  0.14577146  0.72852462  1
  Si  Si140  1  0.50837477  0.37419841  0.67095252  1
  Si  Si141  1  0.52537829  0.85844350  0.76211635  1
  Si  Si142  1  0.75071929  0.35781268  0.76477574  1
  Si  Si143  1  0.73885201  0.87447277  0.66900106  1
  Si  Si144  1  0.23763193  0.64531364  0.72853364  1
  Si  Si145  1  0.25370406  0.13071801  0.82059142  1
  Si  Si146  1  0.49153334  0.11473819  0.91300736  1
  Si  Si147  1  0.54316210  0.34149617  0.85973227  1
  Si  Si148  1  0.54006437  0.83297518  0.94348697  1
  Si  Si149  1  0.80890882  0.29628199  0.95978817  1
  Si  Si150  1  0.76872727  0.84114190  0.85554605  1
  Si  Si151  1  0.28730588  0.60792600  0.91528328  1
  P  P152  1  0.50586952  0.02844896  0.11468016  1
  P  P153  1  0.55001278  0.56431457  0.01607699  1
  P  P154  1  0.45405384  0.00122091  0.02279724  1
  P  P155  1  0.42833803  0.54156441  0.10574300  1
  P  P156  1  0.45972203  0.08588587  0.29953552  1
  P  P157  1  0.47391470  0.56735085  0.20337195  1
  P  P158  1  0.39767368  0.06183668  0.20688094  1
  P  P159  1  0.38039649  0.58274131  0.29971948  1
  P  P160  1  0.47636725  0.08996167  0.48796592  1
  P  P161  1  0.43433733  0.60585466  0.39406547  1
  P  P162  1  0.35959147  0.10505768  0.39333728  1
  P  P163  1  0.38098960  0.55987349  0.47992000  1
  P  P164  1  0.92079373  0.04104929  0.60335233  1
  P  P165  1  0.87305394  0.52084495  0.51530537  1
  P  P166  1  0.98565246  0.07081914  0.51116002  1
  P  P167  1  0.98234070  0.54447890  0.60236627  1
  P  P168  1  0.95778455  0.99503981  0.79148837  1
  P  P169  1  0.94452597  0.50941350  0.69863461  1
  P  P170  1  0.02898865  0.01098976  0.69849665  1
  P  P171  1  0.04054330  0.49553863  0.79408572  1
  P  P172  1  0.96494235  0.97102214  0.97362473  1
  P  P173  1  0.98110218  0.47744025  0.89079261  1
  P  P174  1  0.06217710  0.97117517  0.88318446  1
  P  P175  1  0.08759451  0.47960484  0.98645697  1
  O  O176  1  0.85478899  0.93291375  0.07879604  1
  O  O177  1  0.79702309  0.49819428  0.15780579  1
  O  O178  1  0.12501514  0.07548997  0.06882183  1
  O  O179  1  0.09882286  0.60975329  0.16327885  1
  O  O180  1  0.71469628  0.10212523  0.15848139  1
  O  O181  1  0.74649386  0.56678164  0.07166387  1
  O  O182  1  0.19976178  0.99708285  0.15924198  1
  O  O183  1  0.26360472  0.45231114  0.05138767  1
  O  O184  1  0.62337947  0.92881934  0.00709070  1
  O  O185  1  0.60337774  0.45448374  0.09238618  1
  O  O186  1  0.33484480  0.10461159  0.13103263  1
  O  O187  1  0.37160263  0.57758663  0.02408073  1
  O  O188  1  0.50130002  0.04784311  0.04641103  1
  O  O189  1  0.45406552  0.61850920  0.12055569  1
  O  O190  1  0.47675954  0.96192285  0.09636734  1
  O  O191  1  0.57959081  0.54873849  0.98512900  1
  O  O192  1  0.66294767  0.96011984  0.13361520  1
  O  O193  1  0.70112772  0.46877272  0.03185237  1
  O  O194  1  0.29413035  0.09091142  0.00777853  1
  O  O195  1  0.28491528  0.60009064  0.08294471  1
  O  O196  1  0.53895762  0.09848421  0.09785357  1
  O  O197  1  0.54033766  0.65990076  0.02327281  1
  O  O198  1  0.39734180  0.93487953  0.03655609  1
  O  O199  1  0.36760111  0.49390017  0.12607962  1
  O  O200  1  0.86807598  0.99680465  0.03549486  1
  O  O201  1  0.94473840  0.40626722  0.11029115  1
  O  O202  1  0.96760963  0.17565216  0.11590257  1
  O  O203  1  0.77056808  0.64670181  0.11606120  1
  O  O204  1  0.19403811  0.93226687  0.11029241  1
  O  O205  1  0.46806162  0.24215663  0.04552235  1
  O  O206  1  0.10965603  0.35054192  0.05916719  1
  O  O207  1  0.04485223  0.89687380  0.14944964  1
  O  O208  1  0.92163904  0.64909042  0.06741215  1
  O  O209  1  0.78371952  0.15020567  0.08039403  1
  O  O210  1  0.14280671  0.41792783  0.14656136  1
  O  O211  1  0.18841355  0.86479166  0.05825413  1
  O  O212  1  0.87351651  0.80698676  0.17171260  1
  O  O213  1  0.88724424  0.27375899  0.06821737  1
  O  O214  1  0.02853108  0.29829938  0.15498982  1
  O  O215  1  0.02266480  0.77888475  0.04199983  1
  O  O216  1  0.35096677  0.33325565  0.09385303  1
  O  O217  1  0.40199086  0.79737798  0.14773219  1
  O  O218  1  0.56329622  0.77177365  0.07677726  1
  O  O219  1  0.52356585  0.30532079  0.16084212  1
  O  O220  1  0.79178238  0.02167665  0.25352231  1
  O  O221  1  0.76930512  0.53869597  0.34464332  1
  O  O222  1  0.06629464  0.13062180  0.25345730  1
  O  O223  1  0.04834333  0.64691799  0.34821206  1
  O  O224  1  0.66460260  0.14712155  0.34841066  1
  O  O225  1  0.67749318  0.63263369  0.25363038  1
  O  O226  1  0.15001807  0.04042410  0.34592349  1
  O  O227  1  0.17950583  0.51808969  0.25185867  1
  O  O228  1  0.55986391  0.99987406  0.18824909  1
  O  O229  1  0.53365351  0.51996298  0.27932828  1
  O  O230  1  0.29827442  0.14745573  0.31853588  1
  O  O231  1  0.31469358  0.63034725  0.22294615  1
  O  O232  1  0.42627891  0.12585509  0.22672664  1
  O  O233  1  0.41183792  0.64938421  0.31775426  1
  O  O234  1  0.43196017  0.02205922  0.27967919  1
  O  O235  1  0.45981674  0.49186426  0.18618979  1
  O  O236  1  0.63187787  0.01066070  0.31577709  1
  O  O237  1  0.65021448  0.50198329  0.21964012  1
  O  O238  1  0.22495361  0.13548636  0.19082108  1
  O  O239  1  0.20113216  0.65448049  0.28494620  1
  O  O240  1  0.48477281  0.16166316  0.28456789  1
  O  O241  1  0.48006464  0.64332759  0.18486466  1
  O  O242  1  0.37320009  0.98719251  0.22250039  1
  O  O243  1  0.37065630  0.50586905  0.31738565  1
  O  O244  1  0.91472774  0.95527718  0.20423572  1
  O  O245  1  0.89412661  0.47019361  0.29484702  1
  O  O246  1  0.93166455  0.20493405  0.30271210  1
  O  O247  1  0.94926265  0.67451056  0.21162289  1
  O  O248  1  0.65248403  0.19084675  0.20712750  1
  O  O249  1  0.67317321  0.69808923  0.30383553  1
  O  O250  1  0.16827693  0.97398244  0.29607407  1
  O  O251  1  0.21157826  0.44096971  0.20207605  1
  O  O252  1  0.00146419  0.43477888  0.23719819  1
  O  O253  1  0.98874098  0.94691476  0.33140070  1
  O  O254  1  0.85250221  0.71901450  0.26741685  1
  O  O255  1  0.86980740  0.19624177  0.17378544  1
  O  O256  1  0.74587717  0.69241433  0.17193313  1
  O  O257  1  0.71472351  0.22229117  0.26504928  1
  O  O258  1  0.11840744  0.45025008  0.33144449  1
  O  O259  1  0.14324021  0.92730911  0.24017646  1
  O  O260  1  0.82994331  0.84707757  0.35393391  1
  O  O261  1  0.85325231  0.33021491  0.26004021  1
  O  O262  1  0.98064452  0.34116698  0.33629944  1
  O  O263  1  0.00206134  0.82070069  0.24463461  1
  O  O264  1  0.35215988  0.31954652  0.24552815  1
  O  O265  1  0.34358731  0.84213066  0.33719862  1
  O  O266  1  0.49673301  0.82967929  0.26289430  1
  O  O267  1  0.47425012  0.34793692  0.35467189  1
  O  O268  1  0.73357887  0.05297607  0.43419936  1
  O  O269  1  0.00978869  0.17874627  0.42547787  1
  O  O270  1  0.60358763  0.68011595  0.44979175  1
  O  O271  1  0.12343981  0.56098602  0.43575269  1
  O  O272  1  0.53086167  0.03790835  0.37591310  1
  O  O273  1  0.48090922  0.50391037  0.45380431  1
  O  O274  1  0.34024006  0.13033330  0.50981184  1
  O  O275  1  0.27705638  0.67370526  0.41306481  1
  O  O276  1  0.37707455  0.17311893  0.41291318  1
  O  O277  1  0.51126887  0.58495549  0.49091792  1
  O  O278  1  0.43029719  0.03803222  0.46591256  1
  O  O279  1  0.40920862  0.53041790  0.37825247  1
  O  O280  1  0.66236675  0.00340560  0.50144457  1
  O  O281  1  0.61162134  0.53918739  0.40996150  1
  O  O282  1  0.19784150  0.17531846  0.37485740  1
  O  O283  1  0.19312500  0.65642994  0.47355168  1
  O  O284  1  0.48557244  0.17281410  0.47304761  1
  O  O285  1  0.45363583  0.67459480  0.37476563  1
  O  O286  1  0.33922144  0.02798812  0.40882137  1
  O  O287  1  0.37075658  0.48955578  0.50109529  1
  O  O288  1  0.91037800  0.97444977  0.38810512  1
  O  O289  1  0.02939578  0.17779992  0.47360840  1
  O  O290  1  0.92102559  0.72719464  0.39724454  1
  O  O291  1  0.62883653  0.22872714  0.39769709  1
  O  O292  1  0.59494879  0.78954050  0.49448987  1
  O  O293  1  0.14112553  0.47760380  0.38928739  1
  O  O294  1  0.94219143  0.47837084  0.42841188  1
  O  O295  1  0.79950671  0.75909820  0.45199529  1
  O  O296  1  0.82587106  0.24103383  0.36013165  1
  O  O297  1  0.70021120  0.73526180  0.36166194  1
  O  O298  1  0.68860046  0.25874564  0.45046587  1
  O  O299  1  0.07924553  0.98234312  0.43109034  1
  O  O300  1  0.83504617  0.36424152  0.45084980  1
  O  O301  1  0.97734456  0.85807280  0.43360631  1
  O  O302  1  0.30782452  0.35736475  0.43214573  1
  O  O303  1  0.43391937  0.88043896  0.44772441  1
  O  O304  1  0.40859006  0.26170895  0.58931367  1
  O  O305  1  0.62487668  0.57816692  0.65187072  1
  O  O306  1  0.29145661  0.00170274  0.56235256  1
  O  O307  1  0.33427897  0.46389772  0.65458304  1
  O  O308  1  0.73106562  0.96480527  0.65255345  1
  O  O309  1  0.67891964  0.50948284  0.56879779  1
  O  O310  1  0.21648464  0.07743178  0.65300329  1
  O  O311  1  0.17646262  0.62341801  0.54737174  1
  O  O312  1  0.81019220  0.13116803  0.49674857  1
  O  O313  1  0.80523015  0.63174466  0.58994583  1
  O  O314  1  0.09664617  0.96319267  0.61895117  1
  O  O315  1  0.03228889  0.52878781  0.52137455  1
  O  O316  1  0.98107479  0.99086935  0.52941084  1
  O  O317  1  0.96393621  0.46411492  0.61665723  1
  O  O318  1  0.93603011  0.12004532  0.58872044  1
  O  O319  1  0.85216826  0.53015911  0.48425218  1
  O  O320  1  0.75986603  0.09947264  0.62259449  1
  O  O321  1  0.71121000  0.61383666  0.53016289  1
  O  O322  1  0.14652531  0.99929350  0.49105385  1
  O  O323  1  0.12220746  0.48840495  0.57922373  1
  O  O324  1  0.88776637  0.97990488  0.58300379  1
  O  O325  1  0.90753945  0.42041052  0.52392719  1
  O  O326  1  0.02236713  0.13543778  0.52948115  1
  O  O327  1  0.04786301  0.59122404  0.62176633  1
  O  O328  1  0.57605026  0.12656765  0.55054214  1
  O  O329  1  0.46653490  0.66759706  0.60422563  1
  O  O330  1  0.47486279  0.90756763  0.60862533  1
  O  O331  1  0.66600293  0.41800761  0.61278954  1
  O  O332  1  0.21715170  0.14225812  0.60371953  1
  O  O333  1  0.96369753  0.82503177  0.53815401  1
  O  O334  1  0.31734603  0.72871199  0.55124920  1
  O  O335  1  0.38997046  0.16504932  0.64205517  1
  O  O336  1  0.49493459  0.43257725  0.56597025  1
  O  O337  1  0.63253829  0.93338364  0.56577861  1
  O  O338  1  0.27581864  0.66250863  0.64234797  1
  O  O339  1  0.21734972  0.22836660  0.55599883  1
  O  O340  1  0.56454663  0.26462960  0.65910547  1
  O  O341  1  0.53363219  0.80422948  0.56319743  1
  O  O342  1  0.40132189  0.77896556  0.64709430  1
  O  O343  1  0.35606818  0.32830820  0.53774739  1
  O  O344  1  0.07545225  0.75050671  0.58823854  1
  O  O345  1  0.03113263  0.27712989  0.64289786  1
  O  O346  1  0.85540343  0.30654567  0.57093863  1
  O  O347  1  0.89979600  0.76457671  0.65641314  1
  O  O348  1  0.62953761  0.05394569  0.74599140  1
  O  O349  1  0.64952201  0.54190549  0.83790391  1
  O  O350  1  0.35766687  0.94841355  0.74440621  1
  O  O351  1  0.37004483  0.43202676  0.84248061  1
  O  O352  1  0.75366591  0.93307715  0.83822687  1
  O  O353  1  0.74296034  0.44634551  0.74683494  1
  O  O354  1  0.27391682  0.03829224  0.83824327  1
  O  O355  1  0.24863270  0.55583483  0.74640935  1
  O  O356  1  0.87103046  0.07328948  0.67911951  1
  O  O357  1  0.88373427  0.55826154  0.77423163  1
  O  O358  1  0.11646371  0.93495531  0.81089756  1
  O  O359  1  0.10113780  0.44780691  0.71861046  1
  O  O360  1  0.99640981  0.94912859  0.71852424  1
  O  O361  1  0.01059740  0.43065733  0.81322494  1
  O  O362  1  0.98966845  0.05525353  0.77090668  1
  O  O363  1  0.97120739  0.57529138  0.67953622  1
  O  O364  1  0.78335085  0.07347296  0.80684859  1
  O  O365  1  0.76862441  0.58336853  0.71424460  1
  O  O366  1  0.20315259  0.93534822  0.68302950  1
  O  O367  1  0.21728719  0.42205457  0.77884569  1
  O  O368  1  0.93419839  0.91736568  0.77725647  1
  O  O369  1  0.92558220  0.43301653  0.68255634  1
  O  O370  1  0.04963075  0.08851847  0.71373837  1
  O  O371  1  0.05477827  0.57213814  0.81104078  1
  O  O372  1  0.51656815  0.12625078  0.69669344  1
  O  O373  1  0.52254364  0.60439648  0.78788518  1
  O  O374  1  0.47812130  0.88125261  0.79410284  1
  O  O375  1  0.46597080  0.38860577  0.70342986  1
  O  O376  1  0.76010202  0.88551192  0.70132921  1
  O  O377  1  0.76044217  0.37629395  0.79707280  1
  O  O378  1  0.23849006  0.11166629  0.78866525  1
  O  O379  1  0.21891675  0.62709229  0.69675099  1
  O  O380  1  0.41911445  0.64345662  0.73095584  1
  O  O381  1  0.43011155  0.13412244  0.82306758  1
  O  O382  1  0.57046214  0.35887562  0.76090928  1
  O  O383  1  0.55131618  0.88213225  0.66586333  1
  O  O384  1  0.68231104  0.38096927  0.66793186  1
  O  O385  1  0.70795419  0.85420645  0.75805359  1
  O  O386  1  0.30127553  0.62757607  0.82515292  1
  O  O387  1  0.28073686  0.14816778  0.73134320  1
  O  O388  1  0.58902937  0.23348408  0.84790118  1
  O  O389  1  0.56453269  0.74886337  0.75331690  1
  O  O390  1  0.43695898  0.73861175  0.82750528  1
  O  O391  1  0.41809613  0.25488129  0.73917146  1
  O  O392  1  0.06793939  0.75528314  0.73891678  1
  O  O393  1  0.07877043  0.23833536  0.83179582  1
  O  O394  1  0.92397648  0.24894425  0.75439775  1
  O  O395  1  0.95130484  0.73170256  0.84739332  1
  O  O396  1  0.67694168  0.02117036  0.92641055  1
  O  O397  1  0.40997510  0.88867412  0.91699032  1
  O  O398  1  0.80817624  0.39685291  0.94869820  1
  O  O399  1  0.26686104  0.52293795  0.92836447  1
  O  O400  1  0.89484813  0.04011109  0.86559281  1
  O  O401  1  0.92118605  0.54095393  0.96671058  1
  O  O402  1  0.10447724  0.92134882  0.99556920  1
  O  O403  1  0.14411405  0.40356727  0.90844136  1
  O  O404  1  0.03569459  0.90599213  0.90237957  1
  O  O405  1  0.06135859  0.41319105  0.00446503  1
  O  O406  1  0.04463719  0.99750412  0.94969173  1
  O  O407  1  0.01079751  0.54863441  0.87375003  1
  O  O408  1  0.78365440  0.06981290  0.98005579  1
  O  O409  1  0.81818101  0.54485925  0.91007367  1
  O  O410  1  0.22726728  0.90022728  0.86589537  1
  O  O411  1  0.26144121  0.41423900  0.96966670  1
  O  O412  1  0.93469518  0.89021388  0.96221885  1
  O  O413  1  0.93859253  0.41650280  0.87212986  1
  O  O414  1  0.08534887  0.04856059  0.89865974  1
  O  O415  1  0.07724107  0.56607272  0.00509808  1
  O  O416  1  0.51624049  0.10582134  0.88023870  1
  O  O417  1  0.40722373  0.93174085  0.96397048  1
  O  O418  1  0.50050147  0.35459521  0.89188238  1
  O  O419  1  0.76792408  0.86298392  0.88746049  1
  O  O420  1  0.80052763  0.28516903  0.99206116  1
  O  O421  1  0.29842453  0.59466160  0.88216323  1
  O  O422  1  0.47347454  0.59418187  0.92482822  1
  O  O423  1  0.63090841  0.30596745  0.94660678  1
  O  O424  1  0.59787952  0.83525361  0.84980579  1
  O  O425  1  0.71855633  0.34509285  0.85533123  1
  O  O426  1  0.73688477  0.81438696  0.94166010  1
  O  O427  1  0.33095834  0.10144360  0.92094418  1
  O  O428  1  0.57039779  0.72284120  0.95025907  1
  O  O429  1  0.44436922  0.22114349  0.92638446  1
  O  O430  1  0.11176781  0.72064543  0.92279116  1
  O  O431  1  0.99387770  0.19241876  0.94683491  1
