# generated using pymatgen
data_Na8Zr5Si4P2O27
_symmetry_space_group_name_H-M   'P 1'
_cell_length_a   9.15937100
_cell_length_b   16.04975191
_cell_length_c   44.22403173
_cell_angle_alpha   90.00000000
_cell_angle_beta   90.00000000
_cell_angle_gamma   55.20191359
_symmetry_Int_Tables_number   1
_chemical_formula_structural   Na8Zr5Si4P2O27
_chemical_formula_sum   'Na64 Zr40 Si32 P16 O216'
_cell_volume   5338.56416073
_cell_formula_units_Z   8
loop_
 _symmetry_equiv_pos_site_id
 _symmetry_equiv_pos_as_xyz
  1  'x, y, z'
loop_
 _atom_site_type_symbol
 _atom_site_label
 _atom_site_symmetry_multiplicity
 _atom_site_fract_x
 _atom_site_fract_y
 _atom_site_fract_z
 _atom_site_occupancy
  Na  Na0  1  0.71397749  0.85533517  0.03323261  1
  Na  Na1  1  0.72516361  0.36135495  0.14627457  1
  Na  Na2  1  0.15654348  0.18334475  0.01405571  1
  Na  Na3  1  0.14867266  0.71514361  0.12034293  1
  Na  Na4  1  0.42203107  0.21523494  0.12026129  1
  Na  Na5  1  0.47772108  0.68313119  0.01402354  1
  Na  Na6  1  0.55203437  0.86148467  0.14632600  1
  Na  Na7  1  0.57542980  0.35547826  0.03325523  1
  Na  Na8  1  0.86330856  0.05218127  0.09774929  1
  Na  Na9  1  0.94067878  0.56308540  0.99930676  1
  Na  Na10  1  0.93333435  0.06337453  0.99927383  1
  Na  Na11  1  0.03330356  0.55186922  0.09768130  1
  Na  Na12  1  0.70743456  0.87570558  0.25209068  1
  Na  Na13  1  0.68597224  0.39205224  0.35621620  1
  Na  Na14  1  0.12110042  0.22915953  0.22500042  1
  Na  Na15  1  0.10648776  0.74380121  0.33352270  1
  Na  Na16  1  0.40606460  0.24360841  0.33352503  1
  Na  Na17  1  0.41900830  0.72935224  0.22500641  1
  Na  Na18  1  0.53066927  0.89191300  0.35635503  1
  Na  Na19  1  0.54053095  0.37583684  0.25224056  1
  Na  Na20  1  0.85143786  0.03628195  0.29864387  1
  Na  Na21  1  0.86685074  0.52189548  0.19236014  1
  Na  Na22  1  0.09064808  0.02123160  0.19226528  1
  Na  Na23  1  0.07509250  0.53682328  0.29854472  1
  Na  Na24  1  0.68451374  0.92103663  0.47641727  1
  Na  Na25  1  0.04002561  0.27039134  0.43102668  1
  Na  Na26  1  0.41943652  0.77012223  0.43101753  1
  Na  Na27  1  0.47358781  0.42106734  0.47638497  1
  Na  Na28  1  0.82508516  0.05329341  0.51176650  1
  Na  Na29  1  0.83868715  0.55204275  0.40397191  1
  Na  Na30  1  0.05691150  0.05256696  0.40411245  1
  Na  Na31  1  0.06838170  0.55321106  0.51156297  1
  Na  Na32  1  0.38601473  0.54476819  0.53315143  1
  Na  Na33  1  0.37458235  0.03842441  0.64629459  1
  Na  Na34  1  0.94364400  0.21658889  0.51403989  1
  Na  Na35  1  0.95222761  0.68469555  0.62032442  1
  Na  Na36  1  0.67860222  0.18479644  0.62030203  1
  Na  Na37  1  0.62224742  0.71689783  0.51399065  1
  Na  Na38  1  0.54744436  0.53868461  0.64635600  1
  Na  Na39  1  0.52478046  0.04438298  0.53337429  1
  Na  Na40  1  0.23609030  0.34815035  0.59774042  1
  Na  Na41  1  0.15871821  0.83731112  0.49931155  1
  Na  Na42  1  0.16686821  0.33694644  0.49936216  1
  Na  Na43  1  0.06687612  0.84795201  0.59773795  1
  Na  Na44  1  0.39249851  0.52421384  0.75227926  1
  Na  Na45  1  0.41422285  0.00801227  0.85627314  1
  Na  Na46  1  0.97795439  0.17075273  0.72500052  1
  Na  Na47  1  0.99322933  0.65627807  0.83347892  1
  Na  Na48  1  0.69388017  0.15617991  0.83353344  1
  Na  Na49  1  0.68015100  0.67082581  0.72514264  1
  Na  Na50  1  0.56980320  0.50801328  0.85623171  1
  Na  Na51  1  0.55874665  0.02424662  0.75220592  1
  Na  Na52  1  0.24894082  0.36345788  0.79862265  1
  Na  Na53  1  0.23289793  0.87842006  0.69239816  1
  Na  Na54  1  0.01072443  0.37794520  0.69243293  1
  Na  Na55  1  0.02484408  0.86302981  0.79874434  1
  Na  Na56  1  0.41605649  0.47872294  0.97632724  1
  Na  Na57  1  0.06028483  0.12965029  0.93097600  1
  Na  Na58  1  0.68118507  0.62984966  0.93108461  1
  Na  Na59  1  0.62691843  0.97844112  0.97629895  1
  Na  Na60  1  0.27489287  0.34693155  0.01167479  1
  Na  Na61  1  0.26183669  0.84738158  0.90409079  1
  Na  Na62  1  0.04262875  0.34789087  0.90396826  1
  Na  Na63  1  0.03127744  0.84708052  0.01163008  1
  Zr  Zr64  1  0.82662945  0.93096910  0.15393910  1
  Zr  Zr65  1  0.82032987  0.43123462  0.04440562  1
  Zr  Zr66  1  0.11195627  0.13730236  0.13454780  1
  Zr  Zr67  1  0.14385465  0.62616448  0.03573301  1
  Zr  Zr68  1  0.60396469  0.12614597  0.03575474  1
  Zr  Zr69  1  0.61397569  0.63721088  0.13457541  1
  Zr  Zr70  1  0.31765888  0.93122970  0.04438992  1
  Zr  Zr71  1  0.31182770  0.43082995  0.15392960  1
  Zr  Zr72  1  0.78977259  0.96894930  0.36720464  1
  Zr  Zr73  1  0.80633513  0.45065110  0.26016135  1
  Zr  Zr74  1  0.07816070  0.16625565  0.34698488  1
  Zr  Zr75  1  0.09834877  0.64844070  0.24099982  1
  Zr  Zr76  1  0.60450369  0.14852439  0.24110138  1
  Zr  Zr77  1  0.58992951  0.66622185  0.34689956  1
  Zr  Zr78  1  0.29180835  0.95080238  0.26027203  1
  Zr  Zr79  1  0.27286921  0.46893105  0.36711810  1
  Zr  Zr80  1  0.74646894  0.51773105  0.47342829  1
  Zr  Zr81  1  0.09621791  0.67853494  0.45237704  1
  Zr  Zr82  1  0.54792367  0.17850340  0.45241638  1
  Zr  Zr83  1  0.21859688  0.01790446  0.47342142  1
  Zr  Zr84  1  0.27307974  0.46915909  0.65399434  1
  Zr  Zr85  1  0.27973102  0.96871736  0.54445255  1
  Zr  Zr86  1  0.98791995  0.26272842  0.63458196  1
  Zr  Zr87  1  0.95633474  0.77384859  0.53577256  1
  Zr  Zr88  1  0.49582125  0.27401739  0.53585393  1
  Zr  Zr89  1  0.48614197  0.76273506  0.63459546  1
  Zr  Zr90  1  0.78233566  0.46874690  0.54445995  1
  Zr  Zr91  1  0.78817516  0.96898702  0.65401991  1
  Zr  Zr92  1  0.31046570  0.43113981  0.86713495  1
  Zr  Zr93  1  0.29306572  0.94941524  0.76028488  1
  Zr  Zr94  1  0.02184766  0.23379477  0.84692292  1
  Zr  Zr95  1  0.00146284  0.75154529  0.74110441  1
  Zr  Zr96  1  0.49507111  0.25151022  0.74102193  1
  Zr  Zr97  1  0.51023496  0.73380791  0.84699665  1
  Zr  Zr98  1  0.80790979  0.44936140  0.76024509  1
  Zr  Zr99  1  0.82727301  0.93112553  0.86716341  1
  Zr  Zr100  1  0.35401691  0.88211617  0.97339185  1
  Zr  Zr101  1  0.00456648  0.72137733  0.95239219  1
  Zr  Zr102  1  0.55223011  0.22129564  0.95233733  1
  Zr  Zr103  1  0.88173254  0.38209224  0.97339787  1
  Si  Si104  1  0.99838537  0.39221709  0.12012936  1
  Si  Si105  1  0.93587838  0.67546872  0.16631915  1
  Si  Si106  1  0.92986199  0.17611348  0.06031386  1
  Si  Si107  1  0.71845207  0.67613553  0.06037999  1
  Si  Si108  1  0.71374021  0.17548843  0.16645020  1
  Si  Si109  1  0.21745082  0.89228574  0.12008353  1
  Si  Si110  1  0.97133253  0.42048928  0.33535645  1
  Si  Si111  1  0.98588990  0.90363566  0.22907498  1
  Si  Si112  1  0.89559054  0.71383047  0.38138865  1
  Si  Si113  1  0.91577631  0.19379707  0.27191844  1
  Si  Si114  1  0.69590406  0.69381445  0.27167307  1
  Si  Si115  1  0.67756468  0.21379546  0.38131013  1
  Si  Si116  1  0.20672500  0.40339108  0.22908456  1
  Si  Si117  1  0.18822551  0.92050313  0.33556026  1
  Si  Si118  1  0.95546195  0.93938705  0.44086257  1
  Si  Si119  1  0.16679297  0.43925061  0.44073538  1
  Si  Si120  1  0.10158589  0.00766825  0.62015589  1
  Si  Si121  1  0.16420705  0.72454683  0.66643035  1
  Si  Si122  1  0.17006298  0.22387174  0.56035866  1
  Si  Si123  1  0.38164635  0.72390681  0.56035120  1
  Si  Si124  1  0.38638553  0.22444363  0.66636728  1
  Si  Si125  1  0.88228425  0.50774117  0.62021262  1
  Si  Si126  1  0.12872719  0.97961908  0.83557059  1
  Si  Si127  1  0.11387758  0.49653759  0.72918331  1
  Si  Si128  1  0.20459217  0.68633331  0.88128170  1
  Si  Si129  1  0.18358902  0.20627458  0.77173428  1
  Si  Si130  1  0.40352250  0.70628086  0.77190577  1
  Si  Si131  1  0.42240816  0.18629478  0.88136875  1
  Si  Si132  1  0.89281682  0.99638706  0.72919115  1
  Si  Si133  1  0.91207430  0.47958646  0.83542719  1
  Si  Si134  1  0.14484639  0.46064896  0.94077386  1
  Si  Si135  1  0.93384981  0.96056152  0.94077631  1
  P  P136  1  0.52368687  0.01922359  0.09430850  1
  P  P137  1  0.43856973  0.51898324  0.09427840  1
  P  P138  1  0.48552620  0.05531298  0.30465767  1
  P  P139  1  0.50154683  0.53882179  0.19837204  1
  P  P140  1  0.42063458  0.03909597  0.19840764  1
  P  P141  1  0.40337818  0.55579175  0.30463390  1
  P  P142  1  0.48794238  0.56436772  0.41044284  1
  P  P143  1  0.38422503  0.06439827  0.41051174  1
  P  P144  1  0.57569205  0.38127390  0.59435054  1
  P  P145  1  0.66170629  0.88068824  0.59437629  1
  P  P146  1  0.61487676  0.34424099  0.80464971  1
  P  P147  1  0.59825180  0.86095677  0.69843260  1
  P  P148  1  0.67904036  0.36124375  0.69844688  1
  P  P149  1  0.69604861  0.84454195  0.80467648  1
  P  P150  1  0.61287707  0.83550316  0.91047127  1
  P  P151  1  0.71611221  0.33533123  0.91042583  1
  O  O152  1  0.82888962  0.48296615  0.14006299  1
  O  O153  1  0.09191616  0.08330688  0.03975172  1
  O  O154  1  0.10455789  0.58400616  0.14663597  1
  O  O155  1  0.72742506  0.08419248  0.14675478  1
  O  O156  1  0.74217988  0.58332449  0.03979310  1
  O  O157  1  0.20609544  0.98291211  0.13998634  1
  O  O158  1  0.58370117  0.97477680  0.17778186  1
  O  O159  1  0.57266706  0.47321789  0.06808939  1
  O  O160  1  0.35457920  0.09288639  0.11353423  1
  O  O161  1  0.24650393  0.69821942  0.03139328  1
  O  O162  1  0.35690028  0.19857860  0.03178952  1
  O  O163  1  0.46077134  0.59229233  0.11361224  1
  O  O164  1  0.48140883  0.97324241  0.06813325  1
  O  O165  1  0.46686484  0.47503385  0.17754862  1
  O  O166  1  0.66821498  0.93466999  0.11538586  1
  O  O167  1  0.24622301  0.11043979  0.18025226  1
  O  O168  1  0.24300258  0.58186700  0.08271317  1
  O  O169  1  0.59442362  0.08162738  0.08275369  1
  O  O170  1  0.53362761  0.61032159  0.18039191  1
  O  O171  1  0.46267646  0.43431676  0.11523278  1
  O  O172  1  0.94903887  0.92312576  0.19262562  1
  O  O173  1  0.95351031  0.41460532  0.08402718  1
  O  O174  1  0.98449583  0.15167485  0.09623202  1
  O  O175  1  0.26848892  0.48993685  0.01914745  1
  O  O176  1  0.75140702  0.98994220  0.01911503  1
  O  O177  1  0.71262935  0.65156324  0.09628370  1
  O  O178  1  0.21718390  0.91479879  0.08398317  1
  O  O179  1  0.20561732  0.42282547  0.19264436  1
  O  O180  1  0.99458115  0.39779238  0.01094712  1
  O  O181  1  0.03942423  0.89118376  0.12634632  1
  O  O182  1  0.89497341  0.67819096  0.05627586  1
  O  O183  1  0.88818463  0.17877695  0.16038517  1
  O  O184  1  0.75451850  0.67904854  0.16031276  1
  O  O185  1  0.74936721  0.17799441  0.05614714  1
  O  O186  1  0.17894420  0.39084401  0.12631958  1
  O  O187  1  0.21006837  0.89779927  0.01097159  1
  O  O188  1  0.90247546  0.78264369  0.15562678  1
  O  O189  1  0.89113963  0.28281026  0.04829071  1
  O  O190  1  0.03578839  0.28500957  0.13230895  1
  O  O191  1  0.39421262  0.78488669  0.13224686  1
  O  O192  1  0.54353273  0.78273792  0.04835569  1
  O  O193  1  0.53311093  0.28272243  0.15567429  1
  O  O194  1  0.81266011  0.99295456  0.24827580  1
  O  O195  1  0.79806209  0.51140155  0.35404374  1
  O  O196  1  0.08876616  0.10320906  0.25290129  1
  O  O197  1  0.07309460  0.62283336  0.36272102  1
  O  O198  1  0.68270148  0.12273929  0.36255848  1
  O  O199  1  0.70454071  0.60309215  0.25265064  1
  O  O200  1  0.17885244  0.01161447  0.35426013  1
  O  O201  1  0.20051631  0.49302684  0.24826112  1
  O  O202  1  0.54628767  0.00611597  0.38939966  1
  O  O203  1  0.56217925  0.49184175  0.28292386  1
  O  O204  1  0.32343997  0.12248159  0.32574903  1
  O  O205  1  0.34300629  0.60641721  0.22011760  1
  O  O206  1  0.44353075  0.10687656  0.22014181  1
  O  O207  1  0.43093625  0.62306375  0.32571664  1
  O  O208  1  0.45473696  0.99121718  0.28299914  1
  O  O209  1  0.44233027  0.50602845  0.38937117  1
  O  O210  1  0.65048812  0.98108093  0.32465330  1
  O  O211  1  0.67001360  0.46399230  0.21750738  1
  O  O212  1  0.21009051  0.13917797  0.39292539  1
  O  O213  1  0.22617769  0.62654961  0.28731687  1
  O  O214  1  0.52053899  0.12629056  0.28731591  1
  O  O215  1  0.51306441  0.63880691  0.39279346  1
  O  O216  1  0.40045802  0.96477006  0.21754666  1
  O  O217  1  0.38756850  0.48130606  0.32463555  1
  O  O218  1  0.92376518  0.96011958  0.40434352  1
  O  O219  1  0.92923334  0.43923816  0.29897420  1
  O  O220  1  0.95928435  0.17744946  0.30829271  1
  O  O221  1  0.98069626  0.65474514  0.20252644  1
  O  O222  1  0.71014433  0.15500661  0.20267929  1
  O  O223  1  0.68528967  0.67742990  0.30806779  1
  O  O224  1  0.19247293  0.93925100  0.29916134  1
  O  O225  1  0.15608879  0.45993959  0.40420533  1
  O  O226  1  0.03005857  0.40174655  0.23456418  1
  O  O227  1  0.00977160  0.92008137  0.34024380  1
  O  O228  1  0.87634227  0.69128168  0.26657646  1
  O  O229  1  0.85636946  0.21147454  0.37297998  1
  O  O230  1  0.72225849  0.71086681  0.37291664  1
  O  O231  1  0.74052016  0.19117103  0.26682923  1
  O  O232  1  0.15014232  0.42052467  0.34006122  1
  O  O233  1  0.16551370  0.90212734  0.23473105  1
  O  O234  1  0.85480963  0.82172847  0.36871797  1
  O  O235  1  0.86900779  0.30332410  0.26002704  1
  O  O236  1  0.00706009  0.31344229  0.34678448  1
  O  O237  1  0.02007826  0.79615439  0.23955676  1
  O  O238  1  0.38743176  0.29618587  0.23970853  1
  O  O239  1  0.36715005  0.81363098  0.34695909  1
  O  O240  1  0.52355078  0.80330539  0.25983255  1
  O  O241  1  0.50210120  0.32162623  0.36869305  1
  O  O242  1  0.78085861  0.03290873  0.45889590  1
  O  O243  1  0.15503576  0.53277408  0.45866596  1
  O  O244  1  0.64970786  0.46380936  0.50221939  1
  O  O245  1  0.33171009  0.63191757  0.43306147  1
  O  O246  1  0.40629563  0.13138618  0.43320188  1
  O  O247  1  0.42281701  0.96377782  0.50229575  1
  O  O248  1  0.65720209  0.48798105  0.42893948  1
  O  O249  1  0.36759288  0.98795477  0.42894030  1
  O  O250  1  0.60791454  0.65986546  0.46723802  1
  O  O251  1  0.92432160  0.69945569  0.41798279  1
  O  O252  1  0.67801732  0.19897462  0.41789317  1
  O  O253  1  0.07305669  0.16010269  0.46727949  1
  O  O254  1  0.99926835  0.43091263  0.44931901  1
  O  O255  1  0.12203420  0.68966909  0.49612345  1
  O  O256  1  0.49967844  0.18978601  0.49615469  1
  O  O257  1  0.13988231  0.93101320  0.44925647  1
  O  O258  1  0.98152608  0.83365011  0.45034362  1
  O  O259  1  0.35225756  0.33351730  0.45019818  1
  O  O260  1  0.27163611  0.91725434  0.64007491  1
  O  O261  1  0.00807609  0.31665502  0.53978831  1
  O  O262  1  0.99528452  0.81577914  0.64672963  1
  O  O263  1  0.37213135  0.31598344  0.64673068  1
  O  O264  1  0.35743871  0.81676829  0.53973116  1
  O  O265  1  0.89412670  0.41703165  0.64012671  1
  O  O266  1  0.51668000  0.42514610  0.67764853  1
  O  O267  1  0.52728675  0.92637321  0.56822691  1
  O  O268  1  0.74472334  0.30773987  0.61362236  1
  O  O269  1  0.85323881  0.70202230  0.53144548  1
  O  O270  1  0.74286574  0.20183774  0.53184366  1
  O  O271  1  0.64025613  0.80712938  0.61373373  1
  O  O272  1  0.61829354  0.42689433  0.56812514  1
  O  O273  1  0.63255732  0.92503645  0.67765453  1
  O  O274  1  0.43092172  0.46595696  0.61535635  1
  O  O275  1  0.85420877  0.28998102  0.68045954  1
  O  O276  1  0.85707239  0.81816369  0.58273952  1
  O  O277  1  0.50510492  0.31874079  0.58282694  1
  O  O278  1  0.56651158  0.78939232  0.68041961  1
  O  O279  1  0.63730011  0.96543923  0.61533148  1
  O  O280  1  0.15133234  0.47705949  0.69274242  1
  O  O281  1  0.14612921  0.98532001  0.58404253  1
  O  O282  1  0.11537416  0.24829181  0.59627556  1
  O  O283  1  0.83184376  0.91012127  0.51922891  1
  O  O284  1  0.34795430  0.41014195  0.51918003  1
  O  O285  1  0.38759010  0.74863381  0.59623839  1
  O  O286  1  0.88245689  0.48525780  0.58409887  1
  O  O287  1  0.89457941  0.97673961  0.69275161  1
  O  O288  1  0.10541076  0.00250610  0.51096611  1
  O  O289  1  0.06002544  0.50914063  0.62642289  1
  O  O290  1  0.20514303  0.72173518  0.55632451  1
  O  O291  1  0.21227203  0.22083359  0.66028803  1
  O  O292  1  0.34517302  0.72126825  0.66034968  1
  O  O293  1  0.35052357  0.22203514  0.55619605  1
  O  O294  1  0.92143434  0.00873275  0.62644306  1
  O  O295  1  0.88991995  0.50224592  0.51106163  1
  O  O296  1  0.19795917  0.61729403  0.65571562  1
  O  O297  1  0.20895133  0.11711689  0.54835935  1
  O  O298  1  0.06321064  0.11517669  0.63229672  1
  O  O299  1  0.70518488  0.61500603  0.63234687  1
  O  O300  1  0.55639818  0.61728299  0.54831196  1
  O  O301  1  0.56746590  0.11731146  0.65568225  1
  O  O302  1  0.28700826  0.40703456  0.74836277  1
  O  O303  1  0.30177313  0.88850609  0.85424768  1
  O  O304  1  0.01086036  0.29694902  0.75266578  1
  O  O305  1  0.02762770  0.77734502  0.86252230  1
  O  O306  1  0.41777719  0.27730356  0.86269579  1
  O  O307  1  0.39506084  0.79692720  0.75286280  1
  O  O308  1  0.92072392  0.38861333  0.85409676  1
  O  O309  1  0.89884594  0.90696491  0.74843078  1
  O  O310  1  0.55436808  0.39379587  0.88924309  1
  O  O311  1  0.53723637  0.90863294  0.78299084  1
  O  O312  1  0.77657057  0.27697914  0.82580561  1
  O  O313  1  0.75699294  0.79343959  0.72015108  1
  O  O314  1  0.65584663  0.29328405  0.72007309  1
  O  O315  1  0.66841867  0.77731257  0.82576491  1
  O  O316  1  0.64592159  0.40843177  0.78309133  1
  O  O317  1  0.65850563  0.89372061  0.88936557  1
  O  O318  1  0.44954910  0.41852749  0.82457451  1
  O  O319  1  0.42967205  0.93550942  0.71758377  1
  O  O320  1  0.89053922  0.26093847  0.89287385  1
  O  O321  1  0.87310620  0.77360650  0.78734711  1
  O  O322  1  0.57991694  0.27336801  0.78722386  1
  O  O323  1  0.58792792  0.76088371  0.89288173  1
  O  O324  1  0.69770877  0.43589826  0.71770896  1
  O  O325  1  0.71229495  0.91886036  0.82467204  1
  O  O326  1  0.17634076  0.43995685  0.90426038  1
  O  O327  1  0.17083271  0.96104154  0.79917675  1
  O  O328  1  0.13965648  0.22247095  0.80810218  1
  O  O329  1  0.11966306  0.74511712  0.70265735  1
  O  O330  1  0.38933838  0.24513859  0.70260399  1
  O  O331  1  0.41354639  0.72289412  0.80828291  1
  O  O332  1  0.90814293  0.46067850  0.79904255  1
  O  O333  1  0.94419526  0.93964597  0.90426759  1
  O  O334  1  0.06913539  0.99825730  0.73476544  1
  O  O335  1  0.09060623  0.47985148  0.84016412  1
  O  O336  1  0.22327548  0.70870819  0.76674078  1
  O  O337  1  0.24358669  0.18890610  0.87287087  1
  O  O338  1  0.37861257  0.68882237  0.87300948  1
  O  O339  1  0.35882573  0.20895593  0.76674106  1
  O  O340  1  0.94967286  0.97977618  0.84015572  1
  O  O341  1  0.93391475  0.49824637  0.73468582  1
  O  O342  1  0.24523648  0.57844624  0.86861310  1
  O  O343  1  0.23043040  0.09676281  0.75984518  1
  O  O344  1  0.09357473  0.08647174  0.84703289  1
  O  O345  1  0.07982926  0.60386687  0.73976315  1
  O  O346  1  0.71180636  0.10374087  0.73965356  1
  O  O347  1  0.73323331  0.58654277  0.84678917  1
  O  O348  1  0.57621360  0.59678436  0.76011526  1
  O  O349  1  0.59790325  0.07844926  0.86874686  1
  O  O350  1  0.31958708  0.36704829  0.95877699  1
  O  O351  1  0.94616190  0.86701450  0.95878650  1
  O  O352  1  0.45069982  0.93596061  0.00220297  1
  O  O353  1  0.76893832  0.76818229  0.93313072  1
  O  O354  1  0.69424439  0.26783660  0.93292537  1
  O  O355  1  0.67747610  0.43616888  0.00222510  1
  O  O356  1  0.44359764  0.91199769  0.92895134  1
  O  O357  1  0.73219349  0.41163936  0.92905146  1
  O  O358  1  0.49273742  0.73993392  0.96726124  1
  O  O359  1  0.17556675  0.70080922  0.91786849  1
  O  O360  1  0.42138281  0.20085251  0.91797743  1
  O  O361  1  0.02694821  0.23984178  0.96735026  1
  O  O362  1  0.10146465  0.96891693  0.94921611  1
  O  O363  1  0.97799175  0.71019814  0.99611364  1
  O  O364  1  0.60051520  0.21019713  0.99607062  1
  O  O365  1  0.96040349  0.46902550  0.94917247  1
  O  O366  1  0.11896646  0.56635102  0.95024559  1
  O  O367  1  0.74820308  0.06630283  0.95017154  1
