# generated using pymatgen
data_Na24Zr16Si14(P2O29)3
_symmetry_space_group_name_H-M   'P 1'
_cell_length_a   9.13268800
_cell_length_b   24.27702622
_cell_length_c   46.19803709
_cell_angle_alpha   90.00000000
_cell_angle_beta   90.00000000
_cell_angle_gamma   56.47052858
_symmetry_Int_Tables_number   1
_chemical_formula_structural   Na24Zr16Si14(P2O29)3
_chemical_formula_sum   'Na96 Zr64 Si56 P24 O348'
_cell_volume   8538.39575766
_cell_formula_units_Z   4
loop_
 _symmetry_equiv_pos_site_id
 _symmetry_equiv_pos_as_xyz
  1  'x, y, z'
loop_
 _atom_site_type_symbol
 _atom_site_label
 _atom_site_symmetry_multiplicity
 _atom_site_fract_x
 _atom_site_fract_y
 _atom_site_fract_z
 _atom_site_occupancy
  Na  Na0  1  0.67512345  0.39761713  0.03773273  1
  Na  Na1  1  0.90241407  0.94141302  0.08857850  1
  Na  Na2  1  0.05990026  0.30495586  0.01691338  1
  Na  Na3  1  0.29600753  0.07173408  0.00359999  1
  Na  Na4  1  0.52805203  0.19961975  0.02496582  1
  Na  Na5  1  0.50262843  0.74104747  0.07939587  1
  Na  Na6  1  0.65705692  0.57116676  0.02630646  1
  Na  Na7  1  0.72983603  0.21692761  0.08643356  1
  Na  Na8  1  0.93946257  0.54348446  0.08846159  1
  Na  Na9  1  0.27523812  0.93334864  0.01387591  1
  Na  Na10  1  0.19424022  0.29518616  0.09271879  1
  Na  Na11  1  0.17552714  0.64790648  0.03986129  1
  Na  Na12  1  0.93219455  0.53603853  0.16425700  1
  Na  Na13  1  0.00229597  0.16314840  0.22855036  1
  Na  Na14  1  0.33189831  0.56968608  0.14175147  1
  Na  Na15  1  0.40013893  0.21593734  0.19024546  1
  Na  Na16  1  0.49612641  0.37989920  0.13773278  1
  Na  Na17  1  0.57842658  0.98799957  0.20345422  1
  Na  Na18  1  0.67455580  0.80697624  0.16922044  1
  Na  Na19  1  0.73572124  0.42264012  0.23502485  1
  Na  Na20  1  0.07036100  0.79689592  0.21910099  1
  Na  Na21  1  0.03499190  0.16087962  0.15221894  1
  Na  Na22  1  0.29056926  0.55799238  0.21998225  1
  Na  Na23  1  0.22581142  0.93136039  0.15154957  1
  Na  Na24  1  0.01584911  0.77066361  0.30324032  1
  Na  Na25  1  0.07118013  0.39120715  0.37247155  1
  Na  Na26  1  0.41364337  0.81935025  0.26887225  1
  Na  Na27  1  0.48312397  0.44422200  0.33340687  1
  Na  Na28  1  0.68391831  0.56846134  0.26968025  1
  Na  Na29  1  0.75318129  0.17282975  0.32898639  1
  Na  Na30  1  0.84147658  0.99453613  0.29232474  1
  Na  Na31  1  0.90710128  0.61415333  0.35907816  1
  Na  Na32  1  0.19949787  0.05035295  0.34106095  1
  Na  Na33  1  0.14013038  0.41862857  0.28304299  1
  Na  Na34  1  0.40390440  0.81502799  0.34752181  1
  Na  Na35  1  0.35887971  0.18252272  0.28310544  1
  Na  Na36  1  0.11843854  0.97361476  0.47771860  1
  Na  Na37  1  0.04755034  0.73020979  0.47190706  1
  Na  Na38  1  0.48112903  0.02220227  0.40022439  1
  Na  Na39  1  0.66120384  0.75993933  0.44823371  1
  Na  Na40  1  0.81385703  0.81135338  0.40755782  1
  Na  Na41  1  0.46472123  0.66596584  0.46105382  1
  Na  Na42  1  0.95495825  0.25363212  0.42517146  1
  Na  Na43  1  0.95163051  0.86427833  0.47649911  1
  Na  Na44  1  0.01343864  0.37630152  0.46312093  1
  Na  Na45  1  0.20695403  0.69239872  0.39991679  1
  Na  Na46  1  0.49137522  0.06716130  0.48378489  1
  Na  Na47  1  0.42640477  0.45115045  0.41145652  1
  Na  Na48  1  0.32486343  0.05238528  0.53773250  1
  Na  Na49  1  0.09759028  0.50859154  0.58857801  1
  Na  Na50  1  0.94011573  0.14505184  0.51691166  1
  Na  Na51  1  0.70400513  0.37827934  0.50360489  1
  Na  Na52  1  0.47196217  0.25038417  0.52497621  1
  Na  Na53  1  0.49735868  0.70894573  0.57939658  1
  Na  Na54  1  0.34293870  0.87884917  0.52630967  1
  Na  Na55  1  0.27012301  0.23307958  0.58643700  1
  Na  Na56  1  0.06053210  0.90651658  0.58846343  1
  Na  Na57  1  0.72477648  0.51666112  0.51387306  1
  Na  Na58  1  0.80573747  0.15480681  0.59271675  1
  Na  Na59  1  0.82448910  0.80209096  0.53986584  1
  Na  Na60  1  0.06783511  0.91396466  0.66425947  1
  Na  Na61  1  0.99768281  0.28684708  0.72854476  1
  Na  Na62  1  0.66810491  0.88031161  0.64175329  1
  Na  Na63  1  0.59985581  0.23408486  0.69024557  1
  Na  Na64  1  0.50387155  0.07009398  0.63773305  1
  Na  Na65  1  0.42159922  0.46198072  0.70344970  1
  Na  Na66  1  0.32545266  0.64303255  0.66921913  1
  Na  Na67  1  0.26428522  0.02735230  0.73502411  1
  Na  Na68  1  0.92963275  0.65310917  0.71910607  1
  Na  Na69  1  0.96505831  0.28910294  0.65221170  1
  Na  Na70  1  0.70944222  0.89200096  0.71998507  1
  Na  Na71  1  0.77420059  0.51863546  0.65154568  1
  Na  Na72  1  0.98417757  0.67933240  0.80324154  1
  Na  Na73  1  0.92882543  0.05878164  0.87246487  1
  Na  Na74  1  0.58637452  0.63064936  0.76887126  1
  Na  Na75  1  0.51683505  0.00576266  0.83339062  1
  Na  Na76  1  0.31608042  0.88153005  0.76967916  1
  Na  Na77  1  0.24683030  0.27718547  0.82897948  1
  Na  Na78  1  0.15847657  0.45549135  0.79232410  1
  Na  Na79  1  0.09292977  0.83583599  0.85907599  1
  Na  Na80  1  0.80048236  0.39965224  0.84106109  1
  Na  Na81  1  0.85986642  0.03137568  0.78303455  1
  Na  Na82  1  0.59609885  0.63496378  0.84752520  1
  Na  Na83  1  0.64113189  0.26747121  0.78310119  1
  Na  Na84  1  0.88157810  0.47638545  0.97771641  1
  Na  Na85  1  0.95245454  0.71979645  0.97190397  1
  Na  Na86  1  0.51884325  0.42780933  0.90021963  1
  Na  Na87  1  0.33879405  0.69006942  0.94823010  1
  Na  Na88  1  0.18616521  0.63864490  0.90755951  1
  Na  Na89  1  0.53530367  0.78402676  0.96105620  1
  Na  Na90  1  0.04505117  0.19635834  0.92516683  1
  Na  Na91  1  0.04837375  0.58572633  0.97649901  1
  Na  Na92  1  0.98659272  0.07369429  0.96311836  1
  Na  Na93  1  0.79305834  0.75759866  0.89991671  1
  Na  Na94  1  0.50861826  0.38283987  0.98378695  1
  Na  Na95  1  0.57359557  0.99885716  0.91145178  1
  Zr  Zr96  1  0.93124852  0.67841399  0.10626596  1
  Zr  Zr97  1  0.93552965  0.08538241  0.03939384  1
  Zr  Zr98  1  0.17254367  0.16222862  0.07053664  1
  Zr  Zr99  1  0.22516334  0.49500867  0.02868904  1
  Zr  Zr100  1  0.73593003  0.47463692  0.10374432  1
  Zr  Zr101  1  0.64728481  0.83635359  0.03520848  1
  Zr  Zr102  1  0.38186689  0.35640524  0.06882118  1
  Zr  Zr103  1  0.38173961  0.75588002  0.01827798  1
  Zr  Zr104  1  0.05181881  0.93257834  0.23048385  1
  Zr  Zr105  1  0.98483086  0.30468364  0.16870583  1
  Zr  Zr106  1  0.31002979  0.42374439  0.20170905  1
  Zr  Zr107  1  0.22964477  0.79994735  0.13344152  1
  Zr  Zr108  1  0.83927715  0.73709340  0.23243395  1
  Zr  Zr109  1  0.77826996  0.11110636  0.16338361  1
  Zr  Zr110  1  0.51333849  0.62039934  0.20269967  1
  Zr  Zr111  1  0.45213329  0.99293016  0.13217322  1
  Zr  Zr112  1  0.18250823  0.18250975  0.36436177  1
  Zr  Zr113  1  0.11400497  0.55616489  0.29778922  1
  Zr  Zr114  1  0.43707744  0.67512710  0.33145436  1
  Zr  Zr115  1  0.36673268  0.05199972  0.26514222  1
  Zr  Zr116  1  0.97754591  0.98825955  0.36251177  1
  Zr  Zr117  1  0.90727760  0.36172157  0.29913767  1
  Zr  Zr118  1  0.62933475  0.87449721  0.33329925  1
  Zr  Zr119  1  0.57940255  0.24519602  0.26695313  1
  Zr  Zr120  1  0.31757083  0.41875420  0.49890735  1
  Zr  Zr121  1  0.22099831  0.81665262  0.42571323  1
  Zr  Zr122  1  0.56649177  0.91421309  0.46327512  1
  Zr  Zr123  1  0.50434123  0.29769404  0.39781578  1
  Zr  Zr124  1  0.08897714  0.23209903  0.50016942  1
  Zr  Zr125  1  0.02952585  0.61792904  0.42495222  1
  Zr  Zr126  1  0.69014138  0.14336757  0.44869110  1
  Zr  Zr127  1  0.68801685  0.49890404  0.40394180  1
  Zr  Zr128  1  0.06875089  0.77159277  0.60626729  1
  Zr  Zr129  1  0.06450156  0.36462152  0.53939523  1
  Zr  Zr130  1  0.82744193  0.28777753  0.57054150  1
  Zr  Zr131  1  0.77482829  0.95499374  0.52868855  1
  Zr  Zr132  1  0.26405652  0.97536368  0.60374467  1
  Zr  Zr133  1  0.35273476  0.61364627  0.53520725  1
  Zr  Zr134  1  0.61809537  0.09359387  0.56882222  1
  Zr  Zr135  1  0.61825080  0.69413123  0.51827999  1
  Zr  Zr136  1  0.94818154  0.51742142  0.73047998  1
  Zr  Zr137  1  0.01516198  0.14531171  0.66870255  1
  Zr  Zr138  1  0.68996579  0.02626118  0.70170934  1
  Zr  Zr139  1  0.77038408  0.65004598  0.63343836  1
  Zr  Zr140  1  0.16073392  0.71290227  0.73243330  1
  Zr  Zr141  1  0.22172724  0.33889260  0.66338236  1
  Zr  Zr142  1  0.48668420  0.82959662  0.70269964  1
  Zr  Zr143  1  0.54787851  0.45706553  0.63216425  1
  Zr  Zr144  1  0.81747268  0.26748997  0.86435824  1
  Zr  Zr145  1  0.88598683  0.89383441  0.79778664  1
  Zr  Zr146  1  0.56291984  0.77486736  0.83145553  1
  Zr  Zr147  1  0.63327233  0.39799870  0.76514001  1
  Zr  Zr148  1  0.02243488  0.46174330  0.86250964  1
  Zr  Zr149  1  0.09271999  0.08827866  0.79913349  1
  Zr  Zr150  1  0.37066934  0.57549501  0.83330053  1
  Zr  Zr151  1  0.42057815  0.20480726  0.76694889  1
  Zr  Zr152  1  0.68244959  0.03125123  0.99890588  1
  Zr  Zr153  1  0.77900433  0.63334918  0.92571236  1
  Zr  Zr154  1  0.43351568  0.53578828  0.96327749  1
  Zr  Zr155  1  0.49566223  0.15231216  0.89781339  1
  Zr  Zr156  1  0.91102939  0.21790594  0.00016762  1
  Zr  Zr157  1  0.97044950  0.83208133  0.92494685  1
  Zr  Zr158  1  0.30985880  0.30663312  0.94868395  1
  Zr  Zr159  1  0.31198370  0.95109738  0.90394104  1
  Si  Si160  1  0.05441817  0.77673325  0.06750348  1
  Si  Si161  1  0.96036494  0.43918213  0.03972061  1
  Si  Si162  1  0.03085255  0.06389657  0.10100858  1
  Si  Si163  1  0.80916289  0.31992291  0.10071579  1
  Si  Si164  1  0.81228766  0.67116190  0.03430444  1
  Si  Si165  1  0.30999389  0.52216777  0.08328907  1
  Si  Si166  1  0.13668926  0.39930450  0.13583673  1
  Si  Si167  1  0.19190041  0.02817690  0.19773866  1
  Si  Si168  1  0.10238092  0.70326779  0.17054543  1
  Si  Si169  1  0.16563629  0.32750131  0.23460751  1
  Si  Si170  1  0.94179966  0.57205078  0.23024197  1
  Si  Si171  1  0.87318811  0.94930120  0.16234123  1
  Si  Si172  1  0.41403065  0.78441377  0.20213567  1
  Si  Si173  1  0.35510639  0.15748799  0.13185344  1
  Si  Si174  1  0.25365503  0.65251645  0.26610038  1
  Si  Si175  1  0.32122627  0.27780124  0.33196978  1
  Si  Si176  1  0.22850485  0.95477248  0.29771202  1
  Si  Si177  1  0.30502836  0.57613570  0.36329159  1
  Si  Si178  1  0.05738600  0.82718321  0.36123290  1
  Si  Si179  1  0.00558872  0.19715294  0.29614869  1
  Si  Si180  1  0.54670262  0.03529037  0.33491672  1
  Si  Si181  1  0.48162447  0.40960396  0.26950425  1
  Si  Si182  1  0.39251285  0.90585418  0.39866941  1
  Si  Si183  1  0.41511608  0.53088748  0.46848326  1
  Si  Si184  1  0.32585122  0.20969022  0.43490156  1
  Si  Si185  1  0.12023249  0.45006746  0.43014195  1
  Si  Si186  1  0.68956274  0.27212609  0.46844149  1
  Si  Si187  1  0.60194072  0.65954277  0.39949189  1
  Si  Si188  1  0.94561798  0.67325892  0.56750702  1
  Si  Si189  1  0.03958954  0.01083058  0.53972382  1
  Si  Si190  1  0.96915497  0.38610358  0.60100826  1
  Si  Si191  1  0.19080263  0.13008036  0.60071517  1
  Si  Si192  1  0.18771017  0.77885147  0.53430427  1
  Si  Si193  1  0.69000934  0.92782958  0.58328919  1
  Si  Si194  1  0.86331483  0.05069081  0.63583566  1
  Si  Si195  1  0.80807689  0.42182565  0.69773679  1
  Si  Si196  1  0.89762962  0.74672826  0.67054631  1
  Si  Si197  1  0.83434979  0.12250477  0.73460226  1
  Si  Si198  1  0.05819811  0.87794936  0.73023885  1
  Si  Si199  1  0.12683049  0.50068351  0.66234327  1
  Si  Si200  1  0.58597806  0.66558733  0.70213295  1
  Si  Si201  1  0.64490239  0.29251332  0.63184322  1
  Si  Si202  1  0.74636167  0.79747482  0.76610220  1
  Si  Si203  1  0.67877225  0.17219693  0.83196342  1
  Si  Si204  1  0.77147184  0.49523170  0.79770920  1
  Si  Si205  1  0.69496788  0.87385927  0.86328691  1
  Si  Si206  1  0.94262054  0.62281405  0.86123489  1
  Si  Si207  1  0.99440034  0.25284723  0.79614164  1
  Si  Si208  1  0.45328851  0.41470799  0.83491288  1
  Si  Si209  1  0.51838241  0.04039472  0.76949686  1
  Si  Si210  1  0.60748717  0.54414159  0.89866897  1
  Si  Si211  1  0.58486559  0.91911809  0.96848185  1
  Si  Si212  1  0.67414670  0.24031476  0.93490308  1
  Si  Si213  1  0.87976309  0.99993926  0.93014518  1
  Si  Si214  1  0.31042825  0.17788227  0.96843777  1
  Si  Si215  1  0.39804750  0.79046302  0.89949350  1
  P  P216  1  0.62286762  0.63265776  0.12896503  1
  P  P217  1  0.53870385  0.99232802  0.05707091  1
  P  P218  1  0.54520196  0.83423722  0.11002179  1
  P  P219  1  0.75686930  0.88996503  0.26016897  1
  P  P220  1  0.69546193  0.25996666  0.19390277  1
  P  P221  1  0.61611922  0.46314069  0.17765915  1
  P  P222  1  0.65885872  0.09511701  0.23710970  1
  P  P223  1  0.89241074  0.14240403  0.38680506  1
  P  P224  1  0.82512618  0.51367254  0.32924494  1
  P  P225  1  0.72284545  0.72131847  0.30475170  1
  P  P226  1  0.78027651  0.34754631  0.37192140  1
  P  P227  1  0.83519068  0.98712038  0.43358654  1
  P  P228  1  0.37715385  0.81733992  0.62896602  1
  P  P229  1  0.46129547  0.45767617  0.55706769  1
  P  P230  1  0.45479812  0.61575871  0.61001989  1
  P  P231  1  0.24313439  0.56002691  0.76016859  1
  P  P232  1  0.30452235  0.19003789  0.69390160  1
  P  P233  1  0.38389152  0.98685280  0.67765816  1
  P  P234  1  0.34113553  0.35488645  0.73710863  1
  P  P235  1  0.10759080  0.30759733  0.88680046  1
  P  P236  1  0.17487348  0.93632613  0.82924381  1
  P  P237  1  0.27715790  0.72867291  0.80475415  1
  P  P238  1  0.21972063  0.10245297  0.87191684  1
  P  P239  1  0.16480377  0.46288227  0.93358420  1
  O  O240  1  0.95851605  0.46432400  0.12210135  1
  O  O241  1  0.87482888  0.82701622  0.04853043  1
  O  O242  1  0.13240989  0.37853685  0.05615588  1
  O  O243  1  0.21787422  0.01058432  0.11565971  1
  O  O244  1  0.73806856  0.08323744  0.02426212  1
  O  O245  1  0.80170726  0.67408380  0.07000644  1
  O  O246  1  0.34296732  0.53967163  0.05065513  1
  O  O247  1  0.32313715  0.18030065  0.09735809  1
  O  O248  1  0.81622312  0.18128958  0.02828774  1
  O  O249  1  0.69742938  0.76712127  0.12246854  1
  O  O250  1  0.46264256  0.70302087  0.12189320  1
  O  O251  1  0.38192770  0.06608921  0.05276984  1
  O  O252  1  0.59179887  0.83709091  0.07848705  1
  O  O253  1  0.40895399  0.39685548  0.03100354  1
  O  O254  1  0.58302324  0.97925845  0.08994971  1
  O  O255  1  0.79961226  0.62761717  0.12547203  1
  O  O256  1  0.69940360  0.98329718  0.04014493  1
  O  O257  1  0.37154204  0.83703050  0.11046611  1
  O  O258  1  0.62120317  0.58238470  0.10846412  1
  O  O259  1  0.49113912  0.94539082  0.04405096  1
  O  O260  1  0.46818039  0.26571664  0.06299776  1
  O  O261  1  0.52862966  0.88915096  0.12970202  1
  O  O262  1  0.03324111  0.71901814  0.08181591  1
  O  O263  1  0.00979988  0.48777225  0.02280216  1
  O  O264  1  0.04339370  0.11465262  0.07734066  1
  O  O265  1  0.84394585  0.37719925  0.09105294  1
  O  O266  1  0.79965435  0.73807065  0.02176445  1
  O  O267  1  0.23578985  0.47510449  0.07606514  1
  O  O268  1  0.42508172  0.82326572  0.03141155  1
  O  O269  1  0.14849399  0.58549176  0.10083417  1
  O  O270  1  0.10427731  0.04269350  0.00904230  1
  O  O271  1  0.96228897  0.24602600  0.08839282  1
  O  O272  1  0.99895503  0.60561416  0.02448691  1
  O  O273  1  0.80422498  0.49037685  0.06378493  1
  O  O274  1  0.88733263  0.11674008  0.12480849  1
  O  O275  1  0.29679784  0.36095298  0.11277443  1
  O  O276  1  0.22247865  0.73989356  0.04386603  1
  O  O277  1  0.87900250  0.41366431  0.01647690  1
  O  O278  1  0.96146757  0.03124997  0.07823405  1
  O  O279  1  0.11273395  0.19889851  0.03179668  1
  O  O280  1  0.10768869  0.81045470  0.09270046  1
  O  O281  1  0.48761512  0.49043222  0.10232048  1
  O  O282  1  0.62075861  0.33730044  0.08832110  1
  O  O283  1  0.62994037  0.67435801  0.02515286  1
  O  O284  1  0.07211334  0.71740925  0.25354974  1
  O  O285  1  0.00906823  0.09316259  0.18522163  1
  O  O286  1  0.27928986  0.63873242  0.18471673  1
  O  O287  1  0.34318548  0.26574175  0.24972354  1
  O  O288  1  0.81253337  0.31632912  0.13623206  1
  O  O289  1  0.91032186  0.92572300  0.19637836  1
  O  O290  1  0.36289967  0.81126861  0.16883223  1
  O  O291  1  0.44168221  0.43690976  0.23617962  1
  O  O292  1  0.76781690  0.39359071  0.18775108  1
  O  O293  1  0.82597430  0.02578282  0.24328881  1
  O  O294  1  0.59406454  0.95933820  0.25270961  1
  O  O295  1  0.54199411  0.33208094  0.18874827  1
  O  O296  1  0.66264216  0.48063789  0.14885217  1
  O  O297  1  0.66146935  0.11671723  0.20571966  1
  O  O298  1  0.61624681  0.61365249  0.16089676  1
  O  O299  1  0.69102618  0.23894991  0.22557673  1
  O  O300  1  0.92541261  0.89066242  0.25704392  1
  O  O301  1  0.87869101  0.24934497  0.18974078  1
  O  O302  1  0.44099336  0.46622145  0.17482960  1
  O  O303  1  0.49377224  0.09233596  0.24053704  1
  O  O304  1  0.76437477  0.83936083  0.23896473  1
  O  O305  1  0.67559183  0.21502890  0.17263515  1
  O  O306  1  0.58949628  0.51381066  0.20128133  1
  O  O307  1  0.65135980  0.14350767  0.25983402  1
  O  O308  1  0.08381944  0.34822375  0.14728308  1
  O  O309  1  0.15805815  0.97052478  0.20678710  1
  O  O310  1  0.14203604  0.75673557  0.15757598  1
  O  O311  1  0.20778545  0.38267636  0.22426873  1
  O  O312  1  0.93036390  0.64162307  0.22793515  1
  O  O313  1  0.87906398  0.01538873  0.15880450  1
  O  O314  1  0.42535129  0.71510210  0.20649871  1
  O  O315  1  0.34127667  0.09235162  0.13179439  1
  O  O316  1  0.25818545  0.83595681  0.22502470  1
  O  O317  1  0.19260180  0.21290586  0.15310202  1
  O  O318  1  0.10108731  0.52046101  0.20823875  1
  O  O319  1  0.02525043  0.89591595  0.14007436  1
  O  O320  1  0.94467622  0.74466227  0.19436898  1
  O  O321  1  0.00524425  0.36584982  0.25884964  1
  O  O322  1  0.41842866  0.61706679  0.24329633  1
  O  O323  1  0.34979922  0.99543154  0.17320188  1
  O  O324  1  0.03893629  0.67500555  0.14517940  1
  O  O325  1  0.11557164  0.29838478  0.20712837  1
  O  O326  1  0.20026713  0.42642747  0.16258866  1
  O  O327  1  0.25696758  0.05181226  0.22558174  1
  O  O328  1  0.59854900  0.77581851  0.21202697  1
  O  O329  1  0.53606622  0.14423684  0.14572375  1
  O  O330  1  0.75895603  0.58043617  0.22038085  1
  O  O331  1  0.67934564  0.96610104  0.15333382  1
  O  O332  1  0.20898245  0.96194519  0.38271049  1
  O  O333  1  0.13909374  0.34249952  0.31941590  1
  O  O334  1  0.40565987  0.88935851  0.31169372  1
  O  O335  1  0.47958044  0.51158223  0.37812729  1
  O  O336  1  0.97925587  0.54537321  0.26396564  1
  O  O337  1  0.05864071  0.16760464  0.32926909  1
  O  O338  1  0.49749774  0.06000583  0.30120835  1
  O  O339  1  0.59704899  0.67077073  0.36463105  1
  O  O340  1  0.88406159  0.65062332  0.31044986  1
  O  O341  1  0.93833997  0.27597158  0.37555064  1
  O  O342  1  0.73074762  0.21087970  0.37813670  1
  O  O343  1  0.65799849  0.58059062  0.31978536  1
  O  O344  1  0.72171098  0.74293503  0.27316169  1
  O  O345  1  0.77626614  0.37150403  0.34073750  1
  O  O346  1  0.74579719  0.87174432  0.29186539  1
  O  O347  1  0.81420037  0.49496041  0.36084120  1
  O  O348  1  0.06323342  0.14002387  0.38878461  1
  O  O349  1  0.98753669  0.51850141  0.32650581  1
  O  O350  1  0.54697060  0.72589709  0.30885456  1
  O  O351  1  0.60266618  0.35304666  0.37814068  1
  O  O352  1  0.91006879  0.09159541  0.36457978  1
  O  O353  1  0.84165406  0.46276703  0.30678902  1
  O  O354  1  0.73050963  0.76911708  0.32582443  1
  O  O355  1  0.79597810  0.39175053  0.39432529  1
  O  O356  1  0.21522388  0.59535304  0.27401388  1
  O  O357  1  0.28282832  0.22144266  0.34066949  1
  O  O358  1  0.27010450  0.01017282  0.28878004  1
  O  O359  1  0.33967403  0.63388402  0.35610379  1
  O  O360  1  0.07293431  0.89079691  0.36012732  1
  O  O361  1  0.98829328  0.26808665  0.29498456  1
  O  O362  1  0.53531372  0.97034166  0.34016459  1
  O  O363  1  0.49835895  0.33926364  0.27162505  1
  O  O364  1  0.39933472  0.08849618  0.35853945  1
  O  O365  1  0.31889474  0.45919751  0.29154456  1
  O  O366  1  0.22714548  0.76841336  0.34303691  1
  O  O367  1  0.15967599  0.14867833  0.27258118  1
  O  O368  1  0.07112302  0.99076179  0.32202363  1
  O  O369  1  0.14047115  0.60940813  0.38609454  1
  O  O370  1  0.54381886  0.86428839  0.37306400  1
  O  O371  1  0.48128133  0.24307703  0.30831324  1
  O  O372  1  0.16186762  0.93130154  0.27042396  1
  O  O373  1  0.24316668  0.55309926  0.33529518  1
  O  O374  1  0.31007490  0.67656893  0.29465571  1
  O  O375  1  0.36893230  0.30147427  0.36207431  1
  O  O376  1  0.74282374  0.01796024  0.34157124  1
  O  O377  1  0.65997836  0.40381221  0.28097995  1
  O  O378  1  0.87929902  0.83758890  0.34818826  1
  O  O379  1  0.82371308  0.20438456  0.28640488  1
  O  O380  1  0.21754081  0.58186769  0.45629442  1
  O  O381  1  0.47417496  0.14127813  0.45249826  1
  O  O382  1  0.06783512  0.80722457  0.39577916  1
  O  O383  1  0.14926874  0.43841549  0.46594060  1
  O  O384  1  0.65914847  0.28190420  0.43354281  1
  O  O385  1  0.66310439  0.95077542  0.49277865  1
  O  O386  1  0.00760027  0.91981662  0.44122925  1
  O  O387  1  0.77439826  0.82794688  0.45879118  1
  O  O388  1  0.84118083  0.00759017  0.40218614  1
  O  O389  1  0.67482663  0.68285845  0.47884833  1
  O  O390  1  0.85965142  0.12630650  0.41776629  1
  O  O391  1  0.67078030  0.98653982  0.43798484  1
  O  O392  1  0.97515536  0.70577761  0.42902840  1
  O  O393  1  0.82969049  0.04119846  0.45452350  1
  O  O394  1  0.38152369  0.84936999  0.41658767  1
  O  O395  1  0.43578463  0.46472358  0.48284155  1
  O  O396  1  0.47147345  0.22833200  0.42449158  1
  O  O397  1  0.20674295  0.14084442  0.50109166  1
  O  O398  1  0.12141434  0.51247847  0.41932132  1
  O  O399  1  0.71040159  0.20083203  0.47836343  1
  O  O400  1  0.60068889  0.59364405  0.40819314  1
  O  O401  1  0.53210890  0.33141995  0.48775907  1
  O  O402  1  0.42608707  0.72131219  0.41455247  1
  O  O403  1  0.41103935  0.89840725  0.48285458  1
  O  O404  1  0.28829257  0.38230256  0.41377127  1
  O  O405  1  0.17510771  0.25851602  0.45837892  1
  O  O406  1  0.56007801  0.50206192  0.44114222  1
  O  O407  1  0.24744371  0.19580205  0.40646819  1
  O  O408  1  0.20722423  0.77871378  0.46007810  1
  O  O409  1  0.45994128  0.94036656  0.42059268  1
  O  O410  1  0.44655885  0.57404033  0.49244595  1
  O  O411  1  0.86590266  0.27169617  0.47373930  1
  O  O412  1  0.78188320  0.64926040  0.41169367  1
  O  O413  1  0.94099961  0.45236098  0.42209776  1
  O  O414  1  0.04147916  0.98567277  0.62210406  1
  O  O415  1  0.12519907  0.62298133  0.54852709  1
  O  O416  1  0.86753547  0.07147276  0.55615848  1
  O  O417  1  0.78213540  0.43942367  0.61565565  1
  O  O418  1  0.26197376  0.36676666  0.52426905  1
  O  O419  1  0.19827781  0.77593245  0.57000752  1
  O  O420  1  0.65702855  0.91032737  0.55065509  1
  O  O421  1  0.67687052  0.26967398  0.59735179  1
  O  O422  1  0.18379938  0.26871611  0.52828605  1
  O  O423  1  0.30256962  0.68287679  0.62246465  1
  O  O424  1  0.53737887  0.74697711  0.62189009  1
  O  O425  1  0.61805657  0.38391299  0.55276903  1
  O  O426  1  0.40825459  0.61287488  0.57848722  1
  O  O427  1  0.59104445  0.05314435  0.53100237  1
  O  O428  1  0.41697805  0.47075385  0.58994694  1
  O  O429  1  0.20041217  0.82237758  0.62547542  1
  O  O430  1  0.30058180  0.46671539  0.54014420  1
  O  O431  1  0.62846845  0.61296685  0.61046552  1
  O  O432  1  0.37880788  0.86761821  0.60846185  1
  O  O433  1  0.50888187  0.50460191  0.54404595  1
  O  O434  1  0.53174629  0.18428541  0.56300173  1
  O  O435  1  0.47139731  0.56084341  0.62970523  1
  O  O436  1  0.96678296  0.73097435  0.58181693  1
  O  O437  1  0.99016372  0.96224042  0.52280025  1
  O  O438  1  0.95660022  0.33535411  0.57734045  1
  O  O439  1  0.15599062  0.07281311  0.59105556  1
  O  O440  1  0.20034969  0.71193440  0.52176873  1
  O  O441  1  0.76422408  0.97489016  0.57606426  1
  O  O442  1  0.57489510  0.62675230  0.53141812  1
  O  O443  1  0.85150050  0.86450984  0.60083754  1
  O  O444  1  0.89573684  0.40731786  0.50904332  1
  O  O445  1  0.03770095  0.20398938  0.58840202  1
  O  O446  1  0.00104201  0.84439490  0.52448742  1
  O  O447  1  0.19571034  0.95963518  0.56378655  1
  O  O448  1  0.11266535  0.33325480  0.62480864  1
  O  O449  1  0.70317829  0.08904649  0.61277607  1
  O  O450  1  0.77751983  0.71010544  0.54387217  1
  O  O451  1  0.12095405  0.03634903  0.51647886  1
  O  O452  1  0.03857340  0.41874300  0.57823694  1
  O  O453  1  0.88729661  0.25110589  0.53180040  1
  O  O454  1  0.89237745  0.63952503  0.59269908  1
  O  O455  1  0.51236657  0.95957070  0.60231690  1
  O  O456  1  0.37921425  0.11268847  0.58831644  1
  O  O457  1  0.37005696  0.77565741  0.52515280  1
  O  O458  1  0.92789576  0.73258246  0.75354866  1
  O  O459  1  0.99093088  0.35683493  0.68521766  1
  O  O460  1  0.72072283  0.81125937  0.68471548  1
  O  O461  1  0.65680238  0.18426412  0.74972198  1
  O  O462  1  0.18748173  0.13365969  0.63623323  1
  O  O463  1  0.08971136  0.52426405  0.69637840  1
  O  O464  1  0.63710690  0.63873158  0.66882945  1
  O  O465  1  0.55830385  0.01308016  0.73617439  1
  O  O466  1  0.23214994  0.05639801  0.68774803  1
  O  O467  1  0.17402208  0.42422203  0.74329149  1
  O  O468  1  0.40592886  0.49065725  0.75270301  1
  O  O469  1  0.45800076  0.11792153  0.68875119  1
  O  O470  1  0.33739238  0.96934151  0.64885262  1
  O  O471  1  0.33850785  0.33329630  0.70571691  1
  O  O472  1  0.38379655  0.83634807  0.66089556  1
  O  O473  1  0.30894419  0.21106299  0.72557308  1
  O  O474  1  0.07457916  0.55933233  0.75704066  1
  O  O475  1  0.12131261  0.20065252  0.68973941  1
  O  O476  1  0.55899955  0.98378932  0.67482484  1
  O  O477  1  0.50621825  0.35766417  0.74053580  1
  O  O478  1  0.23560772  0.61064055  0.73896659  1
  O  O479  1  0.32440888  0.23497075  0.67263263  1
  O  O480  1  0.41054724  0.93618205  0.70128272  1
  O  O481  1  0.34864309  0.30648921  0.75983080  1
  O  O482  1  0.91617502  0.10176974  0.64727918  1
  O  O483  1  0.84193270  0.47947546  0.70678266  1
  O  O484  1  0.85797505  0.69325717  0.65757656  1
  O  O485  1  0.79220917  0.06732705  0.72426712  1
  O  O486  1  0.06964269  0.80837484  0.72793333  1
  O  O487  1  0.12088315  0.43461376  0.65880295  1
  O  O488  1  0.57465586  0.73489487  0.70649890  1
  O  O489  1  0.65882883  0.35763203  0.63176367  1
  O  O490  1  0.74183984  0.61404123  0.72502345  1
  O  O491  1  0.80740808  0.23709635  0.65309830  1
  O  O492  1  0.89889178  0.92953909  0.70823640  1
  O  O493  1  0.97478928  0.55407776  0.64007410  1
  O  O494  1  0.05533261  0.70533009  0.69436834  1
  O  O495  1  0.99475891  0.08415506  0.75884332  1
  O  O496  1  0.58157259  0.83292867  0.74329794  1
  O  O497  1  0.65020904  0.45455577  0.67319733  1
  O  O498  1  0.96105911  0.77499271  0.64517996  1
  O  O499  1  0.88441055  0.15162124  0.70712374  1
  O  O500  1  0.79972419  0.02357431  0.66259127  1
  O  O501  1  0.74304243  0.39818367  0.72557841  1
  O  O502  1  0.40146692  0.67417636  0.71202692  1
  O  O503  1  0.46392320  0.30579108  0.64571938  1
  O  O504  1  0.24103285  0.86956429  0.72037612  1
  O  O505  1  0.32071654  0.48385100  0.65333193  1
  O  O506  1  0.79102072  0.48804880  0.88270972  1
  O  O507  1  0.86091267  0.10750002  0.81941082  1
  O  O508  1  0.59430506  0.56064882  0.81168955  1
  O  O509  1  0.52043465  0.93840892  0.87812639  1
  O  O510  1  0.02074880  0.90462702  0.76396441  1
  O  O511  1  0.94129259  0.28240554  0.82926129  1
  O  O512  1  0.50249236  0.38999665  0.80120404  1
  O  O513  1  0.40294190  0.77923719  0.86463339  1
  O  O514  1  0.11594550  0.79937052  0.81045031  1
  O  O515  1  0.06164250  0.17402507  0.87554481  1
  O  O516  1  0.26927961  0.23912371  0.87813336  1
  O  O517  1  0.34200884  0.86940500  0.81978590  1
  O  O518  1  0.27831746  0.70706124  0.77316006  1
  O  O519  1  0.22373883  0.07849864  0.84073307  1
  O  O520  1  0.25422541  0.57822726  0.79186696  1
  O  O521  1  0.18581259  0.95503713  0.86084043  1
  O  O522  1  0.93675701  0.30997824  0.88877444  1
  O  O523  1  0.01246470  0.93149729  0.82650585  1
  O  O524  1  0.45302937  0.72409317  0.80886034  1
  O  O525  1  0.39730309  0.09696629  0.87814107  1
  O  O526  1  0.08995273  0.35840414  0.86457546  1
  O  O527  1  0.15834979  0.98722730  0.80678712  1
  O  O528  1  0.26946504  0.68087488  0.82581985  1
  O  O529  1  0.20403204  0.05824626  0.89432087  1
  O  O530  1  0.78478975  0.85463794  0.77401034  1
  O  O531  1  0.71715285  0.22855643  0.84066850  1
  O  O532  1  0.72988794  0.43982442  0.78878149  1
  O  O533  1  0.66031842  0.81610782  0.85610434  1
  O  O534  1  0.92703598  0.55920631  0.86013195  1
  O  O535  1  0.01169934  0.18191102  0.79498174  1
  O  O536  1  0.46470968  0.47964636  0.84016927  1
  O  O537  1  0.50164719  0.11073311  0.77161036  1
  O  O538  1  0.60060746  0.36149473  0.85853897  1
  O  O539  1  0.68112179  0.99080350  0.79154105  1
  O  O540  1  0.77285087  0.68158584  0.84304046  1
  O  O541  1  0.84031154  0.30131299  0.77257428  1
  O  O542  1  0.92883902  0.45925690  0.82202336  1
  O  O543  1  0.85955890  0.84059190  0.88608426  1
  O  O544  1  0.45620816  0.58570036  0.87306278  1
  O  O545  1  0.51870737  0.20691473  0.80830858  1
  O  O546  1  0.83810168  0.51869952  0.77041772  1
  O  O547  1  0.75677780  0.89689416  0.83528267  1
  O  O548  1  0.68995467  0.77341963  0.79466045  1
  O  O549  1  0.63108117  0.14851618  0.86207097  1
  O  O550  1  0.25714926  0.43205420  0.84156734  1
  O  O551  1  0.34003142  0.04618995  0.78097840  1
  O  O552  1  0.12070147  0.61240207  0.84818701  1
  O  O553  1  0.17627957  0.24561419  0.78640571  1
  O  O554  1  0.78239567  0.86813711  0.95628130  1
  O  O555  1  0.52581302  0.30872812  0.95249720  1
  O  O556  1  0.93217916  0.64277355  0.89577893  1
  O  O557  1  0.85077802  0.01157195  0.96594378  1
  O  O558  1  0.34082842  0.16811357  0.93353799  1
  O  O559  1  0.33689557  0.49922559  0.99277872  1
  O  O560  1  0.99239252  0.53018855  0.94122853  1
  O  O561  1  0.22562895  0.62205567  0.95879681  1
  O  O562  1  0.15881671  0.44241642  0.90218274  1
  O  O563  1  0.32518647  0.76714037  0.97884538  1
  O  O564  1  0.14031539  0.32369863  0.91776322  1
  O  O565  1  0.32921244  0.46346515  0.93797995  1
  O  O566  1  0.02485547  0.74422299  0.92902138  1
  O  O567  1  0.17030859  0.40880402  0.95452109  1
  O  O568  1  0.61847833  0.60063275  0.91658118  1
  O  O569  1  0.56424565  0.98527847  0.98284049  1
  O  O570  1  0.52853750  0.22166723  0.92448928  1
  O  O571  1  0.79325568  0.30915972  0.00109185  1
  O  O572  1  0.87858253  0.93752861  0.91931872  1
  O  O573  1  0.28959053  0.24917698  0.97835890  1
  O  O574  1  0.39929362  0.85636033  0.90819837  1
  O  O575  1  0.46791668  0.11858477  0.98775061  1
  O  O576  1  0.57390568  0.72869305  0.91455361  1
  O  O577  1  0.58898808  0.55158691  0.98285329  1
  O  O578  1  0.71167591  0.06770756  0.91377797  1
  O  O579  1  0.82488736  0.19148607  0.95838036  1
  O  O580  1  0.43988461  0.94795439  0.94114304  1
  O  O581  1  0.75257117  0.25419681  0.90647061  1
  O  O582  1  0.79277778  0.67128663  0.96007706  1
  O  O583  1  0.54004987  0.50963278  0.92059251  1
  O  O584  1  0.55344387  0.87596863  0.99244607  1
  O  O585  1  0.13409875  0.17830163  0.97373742  1
  O  O586  1  0.21811094  0.80074102  0.91169947  1
  O  O587  1  0.05897534  0.99765519  0.92209639  1
