# generated using pymatgen
data_Na20Zr14Si12P6O77
_symmetry_space_group_name_H-M   'P 1'
_cell_length_a   9.13268800
_cell_length_b   24.27702622
_cell_length_c   39.17318055
_cell_angle_alpha   90.00000000
_cell_angle_beta   90.00000000
_cell_angle_gamma   56.47052858
_symmetry_Int_Tables_number   1
_chemical_formula_structural   Na20Zr14Si12P6O77
_chemical_formula_sum   'Na80 Zr56 Si48 P24 O308'
_cell_volume   7240.05043768
_cell_formula_units_Z   4
loop_
 _symmetry_equiv_pos_site_id
 _symmetry_equiv_pos_as_xyz
  1  'x, y, z'
loop_
 _atom_site_type_symbol
 _atom_site_label
 _atom_site_symmetry_multiplicity
 _atom_site_fract_x
 _atom_site_fract_y
 _atom_site_fract_z
 _atom_site_occupancy
  Na  Na0  1  0.90672240  0.40854381  0.11268230  1
  Na  Na1  1  0.34024951  0.47632690  0.06487359  1
  Na  Na2  1  0.10376915  0.81523287  0.03939028  1
  Na  Na3  1  0.50053442  0.24094287  0.08165260  1
  Na  Na4  1  0.25168290  0.59455901  0.00192835  1
  Na  Na5  1  0.73583580  0.58132258  0.12381700  1
  Na  Na6  1  0.60923860  0.96257934  0.02253700  1
  Na  Na7  1  0.03889203  0.40016587  0.01754373  1
  Na  Na8  1  0.99464564  0.04160034  0.09842964  1
  Na  Na9  1  0.15738429  0.16931180  0.03306996  1
  Na  Na10  1  0.26326587  0.78187096  0.11098730  1
  Na  Na11  1  0.99777124  0.64159737  0.27493324  1
  Na  Na12  1  0.93191884  0.01523801  0.19580409  1
  Na  Na13  1  0.38598395  0.69712634  0.23606820  1
  Na  Na14  1  0.31701730  0.07332639  0.16056322  1
  Na  Na15  1  0.64952579  0.46234693  0.23860275  1
  Na  Na16  1  0.62060768  0.79496703  0.15144576  1
  Na  Na17  1  0.80130547  0.87642177  0.26154238  1
  Na  Na18  1  0.71387574  0.29512974  0.18691431  1
  Na  Na19  1  0.06817312  0.66473366  0.17876029  1
  Na  Na20  1  0.09705565  0.30577920  0.24479976  1
  Na  Na21  1  0.27197494  0.43199971  0.17668910  1
  Na  Na22  1  0.34506801  0.05294198  0.25406370  1
  Na  Na23  1  0.09784926  0.88727028  0.42270515  1
  Na  Na24  1  0.12414935  0.29235603  0.33708352  1
  Na  Na25  1  0.49169742  0.95719655  0.38973075  1
  Na  Na26  1  0.50132358  0.35189949  0.29902370  1
  Na  Na27  1  0.69611017  0.76944765  0.38384397  1
  Na  Na28  1  0.71606082  0.06690654  0.31013000  1
  Na  Na29  1  0.92435441  0.12866326  0.41357141  1
  Na  Na30  1  0.80070003  0.59330482  0.36200793  1
  Na  Na31  1  0.16188482  0.92941588  0.32314584  1
  Na  Na32  1  0.23163154  0.55268136  0.39953615  1
  Na  Na33  1  0.35966979  0.69374235  0.32410857  1
  Na  Na34  1  0.43283519  0.32469599  0.39831321  1
  Na  Na35  1  0.43732314  0.55079355  0.47721246  1
  Na  Na36  1  0.85129814  0.36368105  0.47186819  1
  Na  Na37  1  0.22628650  0.80329396  0.51443326  1
  Na  Na38  1  0.28793802  0.18217721  0.46905137  1
  Na  Na39  1  0.05387735  0.98638163  0.46819678  1
  Na  Na40  1  0.04291806  0.46610639  0.61272351  1
  Na  Na41  1  0.60936763  0.39859380  0.56494940  1
  Na  Na42  1  0.84688773  0.05955195  0.53973333  1
  Na  Na43  1  0.44943360  0.63392672  0.58172983  1
  Na  Na44  1  0.69815713  0.28028550  0.50198360  1
  Na  Na45  1  0.21554737  0.29290326  0.62374304  1
  Na  Na46  1  0.34096078  0.91236097  0.52240709  1
  Na  Na47  1  0.91119805  0.47469943  0.51762860  1
  Na  Na48  1  0.95514030  0.83341013  0.59850350  1
  Na  Na49  1  0.79276172  0.70559206  0.53310317  1
  Na  Na50  1  0.68571069  0.09354300  0.61129866  1
  Na  Na51  1  0.95216783  0.23352644  0.77496801  1
  Na  Na52  1  0.01871077  0.85999444  0.69595440  1
  Na  Na53  1  0.56480694  0.17804819  0.73618853  1
  Na  Na54  1  0.63360374  0.80179776  0.66055341  1
  Na  Na55  1  0.30011361  0.41315771  0.73865606  1
  Na  Na56  1  0.32988305  0.07992729  0.65154035  1
  Na  Na57  1  0.14829801  0.99882170  0.76158004  1
  Na  Na58  1  0.23588851  0.57992176  0.68697434  1
  Na  Na59  1  0.88191266  0.21031624  0.67879415  1
  Na  Na60  1  0.85194423  0.56949980  0.74484961  1
  Na  Na61  1  0.67832337  0.44293556  0.67671087  1
  Na  Na62  1  0.60514731  0.82197573  0.75397731  1
  Na  Na63  1  0.85227454  0.98773878  0.92276640  1
  Na  Na64  1  0.82535550  0.58265243  0.83707544  1
  Na  Na65  1  0.45604960  0.91793254  0.88941509  1
  Na  Na66  1  0.44898773  0.52311840  0.79909935  1
  Na  Na67  1  0.25428811  0.10537894  0.88377019  1
  Na  Na68  1  0.23399831  0.80822738  0.81007051  1
  Na  Na69  1  0.02488955  0.74662026  0.91353333  1
  Na  Na70  1  0.14959831  0.28203406  0.86197776  1
  Na  Na71  1  0.78800572  0.94561297  0.82316351  1
  Na  Na72  1  0.71859284  0.32242858  0.89957087  1
  Na  Na73  1  0.58992758  0.18148987  0.82424668  1
  Na  Na74  1  0.51800093  0.55000946  0.89818604  1
  Na  Na75  1  0.51242958  0.32422811  0.97723634  1
  Na  Na76  1  0.09846223  0.51143009  0.97177559  1
  Na  Na77  1  0.72417418  0.07153019  0.01437697  1
  Na  Na78  1  0.66083507  0.69314883  0.96905335  1
  Na  Na79  1  0.89580700  0.88861408  0.96819026  1
  Zr  Zr80  1  0.90064376  0.56708722  0.04908652  1
  Zr  Zr81  1  0.95311207  0.18540914  0.11467485  1
  Zr  Zr82  1  0.12819379  0.05596436  0.00311493  1
  Zr  Zr83  1  0.21969601  0.67222696  0.07646940  1
  Zr  Zr84  1  0.75784081  0.36577278  0.02034787  1
  Zr  Zr85  1  0.75194791  0.98456265  0.10928776  1
  Zr  Zr86  1  0.34932295  0.23769175  0.00073587  1
  Zr  Zr87  1  0.43128222  0.86632222  0.07255195  1
  Zr  Zr88  1  0.02115404  0.80835576  0.18912792  1
  Zr  Zr89  1  0.08871752  0.43286128  0.27098858  1
  Zr  Zr90  1  0.28790451  0.30054149  0.15382487  1
  Zr  Zr91  1  0.34157685  0.92806136  0.22774117  1
  Zr  Zr92  1  0.82205708  0.61418798  0.19318598  1
  Zr  Zr93  1  0.88200312  0.23911253  0.26773857  1
  Zr  Zr94  1  0.48774043  0.49383060  0.15754729  1
  Zr  Zr95  1  0.54548345  0.12413228  0.22992655  1
  Zr  Zr96  1  0.13687814  0.06476084  0.34415121  1
  Zr  Zr97  1  0.18259605  0.68893673  0.42034063  1
  Zr  Zr98  1  0.40791006  0.55480593  0.31229621  1
  Zr  Zr99  1  0.46719016  0.17840094  0.38316099  1
  Zr  Zr100  1  0.94083060  0.86894058  0.34291245  1
  Zr  Zr101  1  0.02094380  0.49254968  0.42755501  1
  Zr  Zr102  1  0.59785590  0.75018519  0.30793803  1
  Zr  Zr103  1  0.68150145  0.37730574  0.38941650  1
  Zr  Zr104  1  0.32239919  0.30180272  0.49246738  1
  Zr  Zr105  1  0.48152214  0.80000300  0.45721757  1
  Zr  Zr106  1  0.05219022  0.10988093  0.50015697  1
  Zr  Zr107  1  0.64948688  0.00187766  0.47805678  1
  Zr  Zr108  1  0.04924458  0.30758482  0.54905674  1
  Zr  Zr109  1  0.99692214  0.68953493  0.61467717  1
  Zr  Zr110  1  0.82203778  0.81901812  0.50296070  1
  Zr  Zr111  1  0.73019599  0.20278337  0.57662766  1
  Zr  Zr112  1  0.19204985  0.50926058  0.52042811  1
  Zr  Zr113  1  0.19831086  0.89035586  0.60928723  1
  Zr  Zr114  1  0.60085243  0.63717621  0.50084028  1
  Zr  Zr115  1  0.51924745  0.00845016  0.57257317  1
  Zr  Zr116  1  0.92951842  0.06640603  0.68917249  1
  Zr  Zr117  1  0.86152743  0.44218703  0.77102866  1
  Zr  Zr118  1  0.66204891  0.57442283  0.65386401  1
  Zr  Zr119  1  0.60862159  0.94697459  0.72773168  1
  Zr  Zr120  1  0.12762695  0.26102983  0.69333868  1
  Zr  Zr121  1  0.06803128  0.63581219  0.76771035  1
  Zr  Zr122  1  0.46248710  0.38114478  0.65764575  1
  Zr  Zr123  1  0.40465668  0.75064695  0.72996295  1
  Zr  Zr124  1  0.81282331  0.81026297  0.84415332  1
  Zr  Zr125  1  0.76746652  0.18610976  0.92030309  1
  Zr  Zr126  1  0.54197907  0.32031881  0.81232388  1
  Zr  Zr127  1  0.48227077  0.69679282  0.88307744  1
  Zr  Zr128  1  0.00905866  0.00609575  0.84291451  1
  Zr  Zr129  1  0.92913468  0.38257933  0.92751596  1
  Zr  Zr130  1  0.35238720  0.12476316  0.80791777  1
  Zr  Zr131  1  0.26851124  0.49780614  0.88939236  1
  Zr  Zr132  1  0.62762336  0.57331752  0.99236151  1
  Zr  Zr133  1  0.46864079  0.07497300  0.95726205  1
  Zr  Zr134  1  0.89690374  0.76522335  0.00018716  1
  Zr  Zr135  1  0.30021657  0.87320626  0.97806130  1
  Si  Si136  1  0.11456686  0.27505302  0.07620074  1
  Si  Si137  1  0.07956742  0.57686608  0.12060704  1
  Si  Si138  1  0.02743360  0.94585252  0.03982970  1
  Si  Si139  1  0.77209820  0.21279553  0.03029399  1
  Si  Si140  1  0.85291180  0.81963221  0.10951286  1
  Si  Si141  1  0.32079215  0.03273121  0.08326827  1
  Si  Si142  1  0.24265944  0.52419647  0.23291632  1
  Si  Si143  1  0.17845090  0.89833273  0.14885127  1
  Si  Si144  1  0.19239406  0.83547605  0.26753753  1
  Si  Si145  1  0.13463310  0.20912164  0.19255805  1
  Si  Si146  1  0.91941869  0.44926668  0.18743811  1
  Si  Si147  1  0.97281210  0.07583461  0.26398080  1
  Si  Si148  1  0.39760077  0.65530701  0.16073786  1
  Si  Si149  1  0.45789339  0.28682881  0.23380462  1
  Si  Si150  1  0.35190051  0.77822127  0.37953396  1
  Si  Si151  1  0.29087054  0.15585065  0.30511099  1
  Si  Si152  1  0.30773459  0.08953866  0.42370554  1
  Si  Si153  1  0.25676947  0.46109757  0.34898639  1
  Si  Si154  1  0.02702571  0.70500851  0.33978338  1
  Si  Si155  1  0.11647110  0.32598391  0.41801729  1
  Si  Si156  1  0.50916510  0.91259183  0.31224612  1
  Si  Si157  1  0.57999048  0.54310570  0.39389796  1
  Si  Si158  1  0.43021195  0.41445985  0.45944844  1
  Si  Si159  1  0.65953885  0.14658288  0.46469903  1
  Si  Si160  1  0.83547278  0.59981256  0.57628289  1
  Si  Si161  1  0.87062120  0.29817152  0.62065162  1
  Si  Si162  1  0.92286557  0.92902005  0.53981281  1
  Si  Si163  1  0.17795592  0.66223865  0.53033606  1
  Si  Si164  1  0.09765040  0.05523522  0.60963596  1
  Si  Si165  1  0.62920099  0.84214740  0.58309027  1
  Si  Si166  1  0.70708528  0.35098134  0.73296787  1
  Si  Si167  1  0.77197169  0.97650880  0.64884917  1
  Si  Si168  1  0.75771694  0.03959765  0.76757747  1
  Si  Si169  1  0.81517822  0.66593340  0.69254023  1
  Si  Si170  1  0.03020879  0.42591329  0.68756774  1
  Si  Si171  1  0.97740105  0.79907398  0.76401385  1
  Si  Si172  1  0.55268123  0.21986678  0.66092629  1
  Si  Si173  1  0.49212451  0.58796109  0.73382752  1
  Si  Si174  1  0.59825955  0.09679567  0.87956818  1
  Si  Si175  1  0.65944292  0.71908463  0.80507126  1
  Si  Si176  1  0.64083397  0.78582681  0.92363927  1
  Si  Si177  1  0.69352194  0.41385035  0.84894404  1
  Si  Si178  1  0.92312091  0.16991163  0.83970781  1
  Si  Si179  1  0.83317201  0.54924033  0.91795565  1
  Si  Si180  1  0.44079138  0.96235630  0.81215895  1
  Si  Si181  1  0.37027366  0.33203817  0.89397675  1
  Si  Si182  1  0.51983379  0.46065979  0.95936162  1
  Si  Si183  1  0.28947930  0.72865060  0.96464186  1
  P  P184  1  0.60585121  0.51409112  0.07069861  1
  P  P185  1  0.56569770  0.34741047  0.11706801  1
  P  P186  1  0.56398471  0.69827896  0.05384908  1
  P  P187  1  0.73593816  0.76654990  0.22488608  1
  P  P188  1  0.67122252  0.13604549  0.14410869  1
  P  P189  1  0.70033872  0.59605734  0.27737522  1
  P  P190  1  0.63415485  0.97231837  0.19628954  1
  P  P191  1  0.85835164  0.01795740  0.38154412  1
  P  P192  1  0.79896147  0.39071119  0.30407072  1
  P  P193  1  0.81781486  0.85209832  0.42742044  1
  P  P194  1  0.74962818  0.22882980  0.35255061  1
  P  P195  1  0.89342959  0.65106752  0.44905031  1
  P  P196  1  0.34390947  0.36080543  0.57082083  1
  P  P197  1  0.38421768  0.52753571  0.61719286  1
  P  P198  1  0.38599794  0.17643390  0.55386991  1
  P  P199  1  0.21405654  0.10849903  0.72489348  1
  P  P200  1  0.27871798  0.73886263  0.64418408  1
  P  P201  1  0.24989444  0.27895822  0.77743954  1
  P  P202  1  0.31632315  0.90251898  0.69635800  1
  P  P203  1  0.09145658  0.85710036  0.88149346  1
  P  P204  1  0.15086045  0.48445877  0.80410995  1
  P  P205  1  0.13223161  0.02292046  0.92747497  1
  P  P206  1  0.20017619  0.64621800  0.85252558  1
  P  P207  1  0.05704706  0.22376383  0.94894779  1
  O  O208  1  0.95691736  0.34006895  0.05583023  1
  O  O209  1  0.24388216  0.52073825  0.14289393  1
  O  O210  1  0.17563263  0.88864788  0.06528063  1
  O  O211  1  0.80695969  0.19283548  0.07094389  1
  O  O212  1  0.86196120  0.51318578  0.01537879  1
  O  O213  1  0.35797803  0.67069432  0.12012923  1
  O  O214  1  0.24825419  0.06284796  0.04533041  1
  O  O215  1  0.73862121  0.28017703  0.12677163  1
  O  O216  1  0.69499642  0.65231629  0.08177999  1
  O  O217  1  0.46812189  0.58119132  0.05191393  1
  O  O218  1  0.56478527  0.37162653  0.08128794  1
  O  O219  1  0.66368408  0.65074973  0.02147359  1
  O  O220  1  0.52681606  0.50616345  0.10383796  1
  O  O221  1  0.77327242  0.51137548  0.08060583  1
  O  O222  1  0.41156951  0.33756834  0.12161629  1
  O  O223  1  0.37510166  0.71485401  0.05747947  1
  O  O224  1  0.63966261  0.45969252  0.04526477  1
  O  O225  1  0.69034324  0.08557501  0.11719926  1
  O  O226  1  0.48986954  0.14476141  0.97963144  1
  O  O227  1  0.55533693  0.76282652  0.05104944  1
  O  O228  1  0.06573557  0.22168458  0.08579841  1
  O  O229  1  0.13008269  0.62307699  0.09938994  1
  O  O230  1  0.03422891  0.01129677  0.03196458  1
  O  O231  1  0.76197903  0.28101326  0.02087578  1
  O  O232  1  0.82535348  0.89191254  0.10725546  1
  O  O233  1  0.26741503  0.32384563  0.98554011  1
  O  O234  1  0.35205912  0.95915081  0.08356214  1
  O  O235  1  0.09542853  0.55515234  0.02442591  1
  O  O236  1  0.16618303  0.08346840  0.11026175  1
  O  O237  1  0.93623252  0.15009919  0.00923190  1
  O  O238  1  0.03717248  0.76850823  0.08852824  1
  O  O239  1  0.87767985  0.37707510  0.98222716  1
  O  O240  1  0.83198116  0.97998994  0.05762130  1
  O  O241  1  0.28483045  0.23464729  0.05011859  1
  O  O242  1  0.35138027  0.85575929  0.12349390  1
  O  O243  1  0.03391781  0.53610315  0.09407721  1
  O  O244  1  0.06151166  0.90648546  0.00322776  1
  O  O245  1  0.16494887  0.30232588  0.10903502  1
  O  O246  1  0.50485730  0.02584935  0.09072004  1
  O  O247  1  0.58841615  0.22141500  0.01842032  1
  O  O248  1  0.68013462  0.82336349  0.09464894  1
  O  O249  1  0.06060987  0.59040996  0.21790631  1
  O  O250  1  0.99779696  0.96141628  0.13199523  1
  O  O251  1  0.36881910  0.76876424  0.28423371  1
  O  O252  1  0.31160481  0.14226453  0.20791677  1
  O  O253  1  0.94718857  0.42715165  0.22766017  1
  O  O254  1  0.88652996  0.79508693  0.14993026  1
  O  O255  1  0.48258297  0.93202099  0.27158652  1
  O  O256  1  0.42388228  0.31155449  0.19383572  1
  O  O257  1  0.85593856  0.52486597  0.28297401  1
  O  O258  1  0.79488628  0.90166476  0.20320830  1
  O  O259  1  0.57121844  0.83434828  0.21534105  1
  O  O260  1  0.50086879  0.20444810  0.13743762  1
  O  O261  1  0.70059649  0.62024589  0.24067176  1
  O  O262  1  0.63677154  0.99502223  0.15969051  1
  O  O263  1  0.72184989  0.74451279  0.26121424  1
  O  O264  1  0.66803234  0.11273549  0.18077874  1
  O  O265  1  0.90193901  0.76857950  0.22367219  1
  O  O266  1  0.83273774  0.14091332  0.14031524  1
  O  O267  1  0.52093150  0.60383767  0.28235258  1
  O  O268  1  0.45961525  0.97611583  0.20155709  1
  O  O269  1  0.75211373  0.71597386  0.19846081  1
  O  O270  1  0.77592979  0.34882415  0.27728177  1
  O  O271  1  0.55166646  0.39498519  0.14608002  1
  O  O272  1  0.64014544  0.01871226  0.22262023  1
  O  O273  1  0.19244299  0.47064098  0.24192708  1
  O  O274  1  0.13211930  0.84393031  0.16095692  1
  O  O275  1  0.24201695  0.88870142  0.25754607  1
  O  O276  1  0.18137440  0.26366020  0.18309275  1
  O  O277  1  0.89818744  0.52096526  0.18303122  1
  O  O278  1  0.96062171  0.14578385  0.26196678  1
  O  O279  1  0.41409354  0.58635251  0.16914826  1
  O  O280  1  0.47125144  0.21688616  0.23614053  1
  O  O281  1  0.23354379  0.71152686  0.18442633  1
  O  O282  1  0.29676704  0.33848538  0.25941180  1
  O  O283  1  0.08424615  0.39734832  0.16273898  1
  O  O284  1  0.13512579  0.02296593  0.23875485  1
  O  O285  1  0.91723659  0.62256730  0.14704921  1
  O  O286  1  0.97447408  0.24702305  0.22095262  1
  O  O287  1  0.40955987  0.48559729  0.20614050  1
  O  O288  1  0.45158011  0.11766209  0.27708950  1
  O  O289  1  0.13161934  0.81077746  0.23511997  1
  O  O290  1  0.06628908  0.18764669  0.15982871  1
  O  O291  1  0.30579544  0.54664352  0.26625066  1
  O  O292  1  0.22576755  0.92545651  0.18315078  1
  O  O293  1  0.57734049  0.65079872  0.17149669  1
  O  O294  1  0.63685610  0.28125621  0.24596873  1
  O  O295  1  0.74510367  0.45421380  0.17215412  1
  O  O296  1  0.79342462  0.08243287  0.25137225  1
  O  O297  1  0.19105917  0.83830647  0.35788856  1
  O  O298  1  0.11360012  0.22246171  0.28975356  1
  O  O299  1  0.48724757  0.02193410  0.43697814  1
  O  O300  1  0.44641187  0.39911695  0.36399270  1
  O  O301  1  0.07345286  0.67910194  0.37998676  1
  O  O302  1  0.00787444  0.05066134  0.30400025  1
  O  O303  1  0.61984149  0.16836156  0.42462227  1
  O  O304  1  0.51973286  0.57273167  0.35450568  1
  O  O305  1  0.96367191  0.78240856  0.44256229  1
  O  O306  1  0.92031954  0.15971100  0.35765270  1
  O  O307  1  0.68133168  0.08190547  0.37068051  1
  O  O308  1  0.64214512  0.46327675  0.29946781  1
  O  O309  1  0.89618911  0.87088025  0.39834695  1
  O  O310  1  0.75035546  0.25305003  0.31605262  1
  O  O311  1  0.86593785  0.99666226  0.41863920  1
  O  O312  1  0.80625543  0.36639218  0.34074015  1
  O  O313  1  0.00971737  0.02850087  0.37565069  1
  O  O314  1  0.97648970  0.38341901  0.29708341  1
  O  O315  1  0.65589921  0.85621541  0.41433775  1
  O  O316  1  0.58906908  0.22379127  0.35727233  1
  O  O317  1  0.88216584  0.96602429  0.35423050  1
  O  O318  1  0.93207964  0.59440205  0.42431518  1
  O  O319  1  0.71643336  0.64167637  0.30277270  1
  O  O320  1  0.74086436  0.27643892  0.38010818  1
  O  O321  1  0.28759556  0.73441770  0.39873809  1
  O  O322  1  0.24751627  0.10076185  0.31575306  1
  O  O323  1  0.34164338  0.14630607  0.41181446  1
  O  O324  1  0.29193407  0.51961261  0.33914754  1
  O  O325  1  0.01752554  0.77364486  0.33771166  1
  O  O326  1  0.09173665  0.39734850  0.42412824  1
  O  O327  1  0.51547224  0.84359285  0.31792424  1
  O  O328  1  0.58997803  0.47322343  0.39555841  1
  O  O329  1  0.34816285  0.96772881  0.33683806  1
  O  O330  1  0.40891809  0.59665003  0.41949575  1
  O  O331  1  0.18371611  0.65153291  0.31450483  1
  O  O332  1  0.26473030  0.28095599  0.38908529  1
  O  O333  1  0.02582010  0.87314141  0.29459796  1
  O  O334  1  0.09121855  0.49497945  0.37566529  1
  O  O335  1  0.51836478  0.73077817  0.35401902  1
  O  O336  1  0.62250400  0.37048833  0.44026775  1
  O  O337  1  0.23058313  0.06788378  0.39269487  1
  O  O338  1  0.21207284  0.43473952  0.31432739  1
  O  O339  1  0.40720088  0.81357505  0.40698877  1
  O  O340  1  0.35650258  0.17854955  0.33770516  1
  O  O341  1  0.69215859  0.90278444  0.32569937  1
  O  O342  1  0.76366862  0.53270467  0.40581594  1
  O  O343  1  0.84151264  0.71401546  0.33079365  1
  O  O344  1  0.92883406  0.33662384  0.41015947  1
  O  O345  1  0.28708041  0.45986761  0.43035987  1
  O  O346  1  0.19684320  0.28663139  0.45493272  1
  O  O347  1  0.61137377  0.83113771  0.48279636  1
  O  O348  1  0.74597084  0.71743232  0.43417281  1
  O  O349  1  0.83488084  0.64170459  0.48473165  1
  O  O350  1  0.07151108  0.64707172  0.44993717  1
  O  O351  1  0.87251912  0.18030648  0.53139179  1
  O  O352  1  0.78172625  0.89637860  0.46038914  1
  O  O353  1  0.40595274  0.35539197  0.47415581  1
  O  O354  1  0.13709448  0.02538071  0.51613356  1
  O  O355  1  0.59888621  0.09708430  0.47714935  1
  O  O356  1  0.56090935  0.21567752  0.48638806  1
  O  O357  1  0.25395767  0.87274572  0.47284843  1
  O  O358  1  0.16881305  0.12158080  0.45694922  1
  O  O359  1  0.53582386  0.99375732  0.51750033  1
  O  O360  1  0.43176115  0.45828646  0.49138504  1
  O  O361  1  0.87442293  0.10838570  0.46962844  1
  O  O362  1  0.99299697  0.53491047  0.55584271  1
  O  O363  1  0.70610953  0.35437560  0.64287006  1
  O  O364  1  0.77500754  0.98595507  0.56542321  1
  O  O365  1  0.14316556  0.68215441  0.57097275  1
  O  O366  1  0.08783969  0.36168619  0.51547106  1
  O  O367  1  0.59071005  0.20481538  0.62024574  1
  O  O368  1  0.70145552  0.81223569  0.54513446  1
  O  O369  1  0.21151572  0.59484637  0.62687749  1
  O  O370  1  0.25442311  0.22226455  0.58176710  1
  O  O371  1  0.48176715  0.29371077  0.55203586  1
  O  O372  1  0.38492769  0.50328454  0.58142624  1
  O  O373  1  0.28650091  0.22401041  0.52149967  1
  O  O374  1  0.42298956  0.36871057  0.60396194  1
  O  O375  1  0.17668057  0.36339195  0.58071832  1
  O  O376  1  0.53848780  0.53730267  0.62168597  1
  O  O377  1  0.57470119  0.16000524  0.55767862  1
  O  O378  1  0.30999896  0.41516464  0.54534832  1
  O  O379  1  0.25977915  0.78948130  0.61740585  1
  O  O380  1  0.46110920  0.73019874  0.47979191  1
  O  O381  1  0.39530400  0.11176952  0.55099970  1
  O  O382  1  0.88441527  0.65315488  0.58585664  1
  O  O383  1  0.82016375  0.25182173  0.59953230  1
  O  O384  1  0.91611842  0.86358819  0.53184570  1
  O  O385  1  0.18823865  0.59396292  0.52095100  1
  O  O386  1  0.12475947  0.98303384  0.60727659  1
  O  O387  1  0.68250074  0.55101401  0.48567941  1
  O  O388  1  0.59831572  0.91564843  0.58354414  1
  O  O389  1  0.85460148  0.31939376  0.52438844  1
  O  O390  1  0.78382365  0.79135445  0.61009937  1
  O  O391  1  0.01391753  0.72487083  0.50923006  1
  O  O392  1  0.91280065  0.10661265  0.58883685  1
  O  O393  1  0.07217970  0.49792528  0.48231516  1
  O  O394  1  0.11834032  0.89486603  0.55759205  1
  O  O395  1  0.66509284  0.64023881  0.55023740  1
  O  O396  1  0.59890193  0.01922098  0.62353285  1
  O  O397  1  0.91590329  0.33884736  0.59399172  1
  O  O398  1  0.88813514  0.96870400  0.50328682  1
  O  O399  1  0.78540046  0.57236922  0.60908082  1
  O  O400  1  0.44514857  0.84906650  0.59059198  1
  O  O401  1  0.36160747  0.65367544  0.51848018  1
  O  O402  1  0.27033927  0.05140124  0.59467510  1
  O  O403  1  0.88898984  0.28471750  0.71798114  1
  O  O404  1  0.95270532  0.91343304  0.63204947  1
  O  O405  1  0.58149253  0.10631937  0.78429703  1
  O  O406  1  0.63813797  0.73277945  0.70785494  1
  O  O407  1  0.00224976  0.44842654  0.72772180  1
  O  O408  1  0.06483469  0.07952817  0.65008749  1
  O  O409  1  0.46717768  0.94299129  0.77150446  1
  O  O410  1  0.52654843  0.56319971  0.69386482  1
  O  O411  1  0.09432365  0.35020958  0.78290520  1
  O  O412  1  0.15557309  0.97317044  0.70331366  1
  O  O413  1  0.37925153  0.04088578  0.71529556  1
  O  O414  1  0.44920379  0.67052515  0.63750203  1
  O  O415  1  0.24961356  0.25460605  0.74078746  1
  O  O416  1  0.31378981  0.87990764  0.65972821  1
  O  O417  1  0.22779811  0.13066259  0.76121688  1
  O  O418  1  0.28129900  0.76195385  0.68093229  1
  O  O419  1  0.04861777  0.10610402  0.72374756  1
  O  O420  1  0.11731364  0.73399679  0.64020136  1
  O  O421  1  0.42925647  0.27124843  0.78233542  1
  O  O422  1  0.49081220  0.89875780  0.70165027  1
  O  O423  1  0.19678873  0.15930162  0.69848634  1
  O  O424  1  0.17422049  0.52619770  0.77728211  1
  O  O425  1  0.39811653  0.48003268  0.64623088  1
  O  O426  1  0.31013842  0.85612053  0.72264867  1
  O  O427  1  0.75764559  0.40441878  0.74201220  1
  O  O428  1  0.81851452  0.03082186  0.66101716  1
  O  O429  1  0.70772337  0.98650210  0.75751397  1
  O  O430  1  0.76819352  0.61148631  0.68304854  1
  O  O431  1  0.05032633  0.35437494  0.68340222  1
  O  O432  1  0.98949159  0.72915114  0.76187305  1
  O  O433  1  0.53815330  0.28841074  0.66943282  1
  O  O434  1  0.47899898  0.65786143  0.73619161  1
  O  O435  1  0.71700966  0.16317012  0.68437315  1
  O  O436  1  0.65279104  0.53644775  0.75953406  1
  O  O437  1  0.86603868  0.47763915  0.66271149  1
  O  O438  1  0.81539977  0.85214059  0.73877723  1
  O  O439  1  0.03313494  0.25261836  0.64709072  1
  O  O440  1  0.97498271  0.62790803  0.72098807  1
  O  O441  1  0.54024997  0.38971630  0.70619237  1
  O  O442  1  0.49865214  0.75721368  0.77706225  1
  O  O443  1  0.81899772  0.06423854  0.73522495  1
  O  O444  1  0.88393116  0.68737551  0.65987488  1
  O  O445  1  0.64370186  0.32865756  0.76632014  1
  O  O446  1  0.72443059  0.94942648  0.68313366  1
  O  O447  1  0.37251831  0.22478479  0.67178632  1
  O  O448  1  0.31302087  0.59355305  0.74587380  1
  O  O449  1  0.20545250  0.42024473  0.67228952  1
  O  O450  1  0.15707210  0.79238616  0.75149983  1
  O  O451  1  0.75907983  0.03666184  0.85795115  1
  O  O452  1  0.83659364  0.65243553  0.78974484  1
  O  O453  1  0.46086450  0.85338736  0.93676330  1
  O  O454  1  0.50358574  0.47582035  0.86385546  1
  O  O455  1  0.87723069  0.19558646  0.87994977  1
  O  O456  1  0.94205809  0.82423478  0.80401384  1
  O  O457  1  0.32925076  0.70712571  0.92454408  1
  O  O458  1  0.43033960  0.30231848  0.85459100  1
  O  O459  1  0.98595206  0.09263635  0.94250580  1
  O  O460  1  0.02925077  0.71522289  0.85768190  1
  O  O461  1  0.26864994  0.79325729  0.87059502  1
  O  O462  1  0.30757299  0.41185155  0.79958374  1
  O  O463  1  0.05439587  0.00393999  0.89837128  1
  O  O464  1  0.19966979  0.62195646  0.81602928  1
  O  O465  1  0.08363441  0.87834619  0.91860220  1
  O  O466  1  0.14346078  0.50886125  0.84075570  1
  O  O467  1  0.94030536  0.84644546  0.87555809  1
  O  O468  1  0.97326861  0.49182778  0.79712569  1
  O  O469  1  0.29425373  0.01878249  0.91444094  1
  O  O470  1  0.36038265  0.65148889  0.85719481  1
  O  O471  1  0.06762639  0.90906336  0.85421130  1
  O  O472  1  0.01820673  0.28064320  0.92435247  1
  O  O473  1  0.23381783  0.23347842  0.80293321  1
  O  O474  1  0.20952102  0.59853023  0.88009329  1
  O  O475  1  0.66197578  0.14086137  0.89864820  1
  O  O476  1  0.70264493  0.77420926  0.81567056  1
  O  O477  1  0.60777467  0.72884753  0.91176359  1
  O  O478  1  0.65870914  0.35527613  0.83912102  1
  O  O479  1  0.93214095  0.10137182  0.83755150  1
  O  O480  1  0.85742222  0.47795548  0.92409998  1
  O  O481  1  0.43457422  0.03134400  0.81783434  1
  O  O482  1  0.36061358  0.40185009  0.89559496  1
  O  O483  1  0.60169754  0.90725605  0.83676195  1
  O  O484  1  0.54136447  0.27853324  0.91955465  1
  O  O485  1  0.76626567  0.22360883  0.81450919  1
  O  O486  1  0.68473432  0.59427533  0.88907462  1
  O  O487  1  0.92418138  0.00169790  0.79464455  1
  O  O488  1  0.85906006  0.38003775  0.87563574  1
  O  O489  1  0.43178873  0.14405431  0.85401578  1
  O  O490  1  0.32735650  0.50479819  0.94023557  1
  O  O491  1  0.71845256  0.80734742  0.89265140  1
  O  O492  1  0.73847335  0.44029775  0.81437937  1
  O  O493  1  0.54312300  0.06146560  0.90706989  1
  O  O494  1  0.59353150  0.69647678  0.83766044  1
  O  O495  1  0.25785710  0.97216739  0.82569829  1
  O  O496  1  0.18628722  0.34264053  0.90585612  1
  O  O497  1  0.10869237  0.16081122  0.83069785  1
  O  O498  1  0.02104872  0.53837244  0.91005421  1
  O  O499  1  0.66276580  0.41546084  0.93020269  1
  O  O500  1  0.75366040  0.58850804  0.95491085  1
  O  O501  1  0.33858622  0.04403591  0.98296465  1
  O  O502  1  0.20436209  0.15747537  0.93399091  1
  O  O503  1  0.11593187  0.23284292  0.98466020  1
  O  O504  1  0.87890456  0.22782407  0.94986603  1
  O  O505  1  0.07707331  0.69454099  0.03126890  1
  O  O506  1  0.16818542  0.97875753  0.96049244  1
  O  O507  1  0.54415311  0.51964768  0.97417413  1
  O  O508  1  0.81295348  0.84957891  0.01626981  1
  O  O509  1  0.34987656  0.77817594  0.97722096  1
  O  O510  1  0.38887934  0.65941851  0.98622235  1
  O  O511  1  0.69602570  0.00215269  0.97290476  1
  O  O512  1  0.77909433  0.75407762  0.95700413  1
  O  O513  1  0.41493559  0.88090947  0.01746014  1
  O  O514  1  0.51843847  0.41664807  0.99122078  1
  O  O515  1  0.07468123  0.76666063  0.96961111  1
