# generated using pymatgen
data_Na23Zr16Si14P7O89
_symmetry_space_group_name_H-M   'P 1'
_cell_length_a   9.13268800
_cell_length_b   24.27702622
_cell_length_c   44.14330758
_cell_angle_alpha   90.00000000
_cell_angle_beta   90.00000000
_cell_angle_gamma   56.47052858
_symmetry_Int_Tables_number   1
_chemical_formula_structural   Na23Zr16Si14P7O89
_chemical_formula_sum   'Na92 Zr64 Si56 P28 O356'
_cell_volume   8158.63733408
_cell_formula_units_Z   4
loop_
 _symmetry_equiv_pos_site_id
 _symmetry_equiv_pos_as_xyz
  1  'x, y, z'
loop_
 _atom_site_type_symbol
 _atom_site_label
 _atom_site_symmetry_multiplicity
 _atom_site_fract_x
 _atom_site_fract_y
 _atom_site_fract_z
 _atom_site_occupancy
  Na  Na0  1  0.87237226  0.88494813  0.10197843  1
  Na  Na1  1  0.08332472  0.32857306  0.03590634  1
  Na  Na2  1  0.12104041  0.94343832  0.09041900  1
  Na  Na3  1  0.41541201  0.98067233  0.00806956  1
  Na  Na4  1  0.53611013  0.67566344  0.06488541  1
  Na  Na5  1  0.65010019  0.47745641  0.01943147  1
  Na  Na6  1  0.73016146  0.09131028  0.09335899  1
  Na  Na7  1  0.99136641  0.54568836  0.08201961  1
  Na  Na8  1  0.94578802  0.91477877  0.01704497  1
  Na  Na9  1  0.29879514  0.27793875  0.10022696  1
  Na  Na10  1  0.13305924  0.68473103  0.01935844  1
  Na  Na11  1  0.98248448  0.52900034  0.16207393  1
  Na  Na12  1  0.03382497  0.15575828  0.23204170  1
  Na  Na13  1  0.35228408  0.56543585  0.13359215  1
  Na  Na14  1  0.40005562  0.19594628  0.20460079  1
  Na  Na15  1  0.65016018  0.26556207  0.11841756  1
  Na  Na16  1  0.68766902  0.92449035  0.19693935  1
  Na  Na17  1  0.77306831  0.73304334  0.15942047  1
  Na  Na18  1  0.79455045  0.41405653  0.23096248  1
  Na  Na19  1  0.14070974  0.78259185  0.21907440  1
  Na  Na20  1  0.06987587  0.16816459  0.15014771  1
  Na  Na21  1  0.33018460  0.55445412  0.21874045  1
  Na  Na22  1  0.30520905  0.91633101  0.15719784  1
  Na  Na23  1  0.05952529  0.75136940  0.30918383  1
  Na  Na24  1  0.10458708  0.38333762  0.38018101  1
  Na  Na25  1  0.42275254  0.81189959  0.27763089  1
  Na  Na26  1  0.57347432  0.47939180  0.32389295  1
  Na  Na27  1  0.69629489  0.60153776  0.27619343  1
  Na  Na28  1  0.77370806  0.20512294  0.34144931  1
  Na  Na29  1  0.85028696  0.03997962  0.29623896  1
  Na  Na30  1  0.91884074  0.71893772  0.37827475  1
  Na  Na31  1  0.24607922  0.04980759  0.34795774  1
  Na  Na32  1  0.17765457  0.42244274  0.28535993  1
  Na  Na33  1  0.46775370  0.80259650  0.35157779  1
  Na  Na34  1  0.39938779  0.18225719  0.28667081  1
  Na  Na35  1  0.19687957  0.01015135  0.43712797  1
  Na  Na36  1  0.80724133  0.55292335  0.47082361  1
  Na  Na37  1  0.62846342  0.06296338  0.40262546  1
  Na  Na38  1  0.82532266  0.86148827  0.40572420  1
  Na  Na39  1  0.86824754  0.40438657  0.46494951  1
  Na  Na40  1  0.01144796  0.23440857  0.43171239  1
  Na  Na41  1  0.21209005  0.90803226  0.49126518  1
  Na  Na42  1  0.37602548  0.28993797  0.48074141  1
  Na  Na43  1  0.41409951  0.64158164  0.45498672  1
  Na  Na44  1  0.45642697  0.09481895  0.47554486  1
  Na  Na45  1  0.27375097  0.48890578  0.38385157  1
  Na  Na46  1  0.12762755  0.61505439  0.60197459  1
  Na  Na47  1  0.91668650  0.17142493  0.53590654  1
  Na  Na48  1  0.87897018  0.55654790  0.59042823  1
  Na  Na49  1  0.58459606  0.51929233  0.50807047  1
  Na  Na50  1  0.46392540  0.82429577  0.56490385  1
  Na  Na51  1  0.34991426  0.02252832  0.51943466  1
  Na  Na52  1  0.26983759  0.40869993  0.59335621  1
  Na  Na53  1  0.00863437  0.95431271  0.58201516  1
  Na  Na54  1  0.05421288  0.58520820  0.51704830  1
  Na  Na55  1  0.70126149  0.22205598  0.60022420  1
  Na  Na56  1  0.86699691  0.81526181  0.51934799  1
  Na  Na57  1  0.01739513  0.97103237  0.66207292  1
  Na  Na58  1  0.96618731  0.34424836  0.73204451  1
  Na  Na59  1  0.64769631  0.93457424  0.63359081  1
  Na  Na60  1  0.59993695  0.30405982  0.70460180  1
  Na  Na61  1  0.34981650  0.23445785  0.61841350  1
  Na  Na62  1  0.31235764  0.57549342  0.69694025  1
  Na  Na63  1  0.22693021  0.76695487  0.65941935  1
  Na  Na64  1  0.20543181  0.08594978  0.73096176  1
  Na  Na65  1  0.85928637  0.71741168  0.71906951  1
  Na  Na66  1  0.93013469  0.33184073  0.65015245  1
  Na  Na67  1  0.66980677  0.94555609  0.71873859  1
  Na  Na68  1  0.69482451  0.58367202  0.65719890  1
  Na  Na69  1  0.94048453  0.74862886  0.80918093  1
  Na  Na70  1  0.89543614  0.11665034  0.88018571  1
  Na  Na71  1  0.57726325  0.68810564  0.77763179  1
  Na  Na72  1  0.42651957  0.02061406  0.82389037  1
  Na  Na73  1  0.30371532  0.89846436  0.77619167  1
  Na  Na74  1  0.22631451  0.29486508  0.84144983  1
  Na  Na75  1  0.14970789  0.46002396  0.79623781  1
  Na  Na76  1  0.08117467  0.78105045  0.87827322  1
  Na  Na77  1  0.75392954  0.45018620  0.84795889  1
  Na  Na78  1  0.82232911  0.07756012  0.78536056  1
  Na  Na79  1  0.53223234  0.69741087  0.85157773  1
  Na  Na80  1  0.60061177  0.31774292  0.78667230  1
  Na  Na81  1  0.80313754  0.48985341  0.93712545  1
  Na  Na82  1  0.19271284  0.94708702  0.97080906  1
  Na  Na83  1  0.37154347  0.43702755  0.90262562  1
  Na  Na84  1  0.17468972  0.63850376  0.90572495  1
  Na  Na85  1  0.13180843  0.09559315  0.96494301  1
  Na  Na86  1  0.98854570  0.26559988  0.93171571  1
  Na  Na87  1  0.78791393  0.59196505  0.99126440  1
  Na  Na88  1  0.62397876  0.21005124  0.98074047  1
  Na  Na89  1  0.58594423  0.85838676  0.95498575  1
  Na  Na90  1  0.54357321  0.40517250  0.97554246  1
  Na  Na91  1  0.72633290  0.01107599  0.88385402  1
  Zr  Zr92  1  0.96821107  0.68339096  0.09265778  1
  Zr  Zr93  1  0.94000766  0.08452861  0.02724828  1
  Zr  Zr94  1  0.25706515  0.16853866  0.06051427  1
  Zr  Zr95  1  0.20410813  0.52744039  0.00943836  1
  Zr  Zr96  1  0.78160498  0.47461234  0.09683245  1
  Zr  Zr97  1  0.72884029  0.83844685  0.02892610  1
  Zr  Zr98  1  0.44444615  0.37439773  0.05422069  1
  Zr  Zr99  1  0.37141783  0.75979861  0.99137793  1
  Zr  Zr100  1  0.09255381  0.92823365  0.23172908  1
  Zr  Zr101  1  0.03545808  0.30498184  0.16336398  1
  Zr  Zr102  1  0.35645664  0.42210782  0.19797752  1
  Zr  Zr103  1  0.29752822  0.79435713  0.13124725  1
  Zr  Zr104  1  0.89292014  0.73038594  0.23268407  1
  Zr  Zr105  1  0.83541120  0.11023929  0.16198291  1
  Zr  Zr106  1  0.55939910  0.61511243  0.20073849  1
  Zr  Zr107  1  0.48197032  0.99275419  0.13282273  1
  Zr  Zr108  1  0.21570863  0.18292273  0.36817777  1
  Zr  Zr109  1  0.16013541  0.55181999  0.30355488  1
  Zr  Zr110  1  0.45053174  0.66995153  0.34195476  1
  Zr  Zr111  1  0.42732899  0.04754295  0.26537155  1
  Zr  Zr112  1  0.03115578  0.98777890  0.36476047  1
  Zr  Zr113  1  0.95402846  0.35982026  0.30135551  1
  Zr  Zr114  1  0.67327830  0.87390362  0.33154869  1
  Zr  Zr115  1  0.62067837  0.24493791  0.26753137  1
  Zr  Zr116  1  0.39630869  0.41389230  0.50017318  1
  Zr  Zr117  1  0.29289535  0.79592090  0.42344614  1
  Zr  Zr118  1  0.57745104  0.90948919  0.46764126  1
  Zr  Zr119  1  0.53316672  0.30643407  0.40656168  1
  Zr  Zr120  1  0.16252496  0.23207131  0.50951005  1
  Zr  Zr121  1  0.02870076  0.62071196  0.43787084  1
  Zr  Zr122  1  0.78607258  0.11527009  0.47504683  1
  Zr  Zr123  1  0.69993177  0.50736841  0.40632664  1
  Zr  Zr124  1  0.03176317  0.81662002  0.59266036  1
  Zr  Zr125  1  0.06001510  0.41546379  0.52724912  1
  Zr  Zr126  1  0.74293422  0.33145918  0.56051190  1
  Zr  Zr127  1  0.79589958  0.97256084  0.50943599  1
  Zr  Zr128  1  0.21837750  0.02539878  0.59683416  1
  Zr  Zr129  1  0.27117294  0.66153097  0.52892071  1
  Zr  Zr130  1  0.55554752  0.12560743  0.55422045  1
  Zr  Zr131  1  0.62859219  0.74019793  0.49137218  1
  Zr  Zr132  1  0.90742634  0.57177642  0.73172917  1
  Zr  Zr133  1  0.96453728  0.19502711  0.66336210  1
  Zr  Zr134  1  0.64352792  0.07790588  0.69797870  1
  Zr  Zr135  1  0.70239904  0.70567471  0.63124195  1
  Zr  Zr136  1  0.10707953  0.76962076  0.73268151  1
  Zr  Zr137  1  0.16456753  0.38978599  0.66197998  1
  Zr  Zr138  1  0.44059043  0.88489803  0.70074091  1
  Zr  Zr139  1  0.51803606  0.50724506  0.63282065  1
  Zr  Zr140  1  0.78429869  0.31706815  0.86817942  1
  Zr  Zr141  1  0.83988646  0.94817955  0.80355585  1
  Zr  Zr142  1  0.54949691  0.83003702  0.84195105  1
  Zr  Zr143  1  0.57267809  0.45245299  0.76536947  1
  Zr  Zr144  1  0.96885458  0.51221498  0.86476104  1
  Zr  Zr145  1  0.04595575  0.14018088  0.80135596  1
  Zr  Zr146  1  0.32673685  0.62609149  0.83154623  1
  Zr  Zr147  1  0.37931600  0.25506233  0.76753207  1
  Zr  Zr148  1  0.60371265  0.08609438  0.00017637  1
  Zr  Zr149  1  0.70712142  0.70406827  0.92344105  1
  Zr  Zr150  1  0.42256648  0.59049853  0.96764295  1
  Zr  Zr151  1  0.46682372  0.19355995  0.90656045  1
  Zr  Zr152  1  0.83747516  0.26792712  0.00951239  1
  Zr  Zr153  1  0.97130882  0.87926874  0.93787250  1
  Zr  Zr154  1  0.21394408  0.38472122  0.97505007  1
  Zr  Zr155  1  0.30013925  0.99261116  0.90632076  1
  Si  Si156  1  0.13225234  0.77552828  0.06102760  1
  Si  Si157  1  0.01301956  0.45430772  0.03399062  1
  Si  Si158  1  0.09246268  0.07794256  0.09707711  1
  Si  Si159  1  0.86848023  0.31276034  0.08871588  1
  Si  Si160  1  0.81296074  0.68191538  0.02997528  1
  Si  Si161  1  0.34450590  0.54110546  0.06649514  1
  Si  Si162  1  0.19656617  0.39793326  0.12772805  1
  Si  Si163  1  0.23834866  0.02420852  0.19885512  1
  Si  Si164  1  0.15091422  0.69937625  0.16417958  1
  Si  Si165  1  0.21042526  0.32838768  0.23378362  1
  Si  Si166  1  0.98691322  0.56785171  0.23162363  1
  Si  Si167  1  0.92301818  0.94802644  0.15836870  1
  Si  Si168  1  0.46728007  0.77762380  0.20303775  1
  Si  Si169  1  0.40579238  0.15095478  0.13618262  1
  Si  Si170  1  0.30697909  0.64482863  0.26879702  1
  Si  Si171  1  0.36643360  0.27687606  0.33621031  1
  Si  Si172  1  0.27200892  0.95520314  0.29957224  1
  Si  Si173  1  0.29237319  0.60089685  0.36797546  1
  Si  Si174  1  0.10435662  0.82852104  0.35644813  1
  Si  Si175  1  0.04859972  0.19573431  0.29788811  1
  Si  Si176  1  0.59246196  0.03492169  0.33804887  1
  Si  Si177  1  0.52864596  0.40834193  0.26997652  1
  Si  Si178  1  0.44714667  0.89609032  0.39542611  1
  Si  Si179  1  0.45277117  0.51195817  0.44807146  1
  Si  Si180  1  0.40091305  0.20300840  0.43640862  1
  Si  Si181  1  0.15158055  0.44459876  0.43671751  1
  Si  Si182  1  0.75421657  0.26727045  0.48105011  1
  Si  Si183  1  0.63873473  0.66720760  0.41343469  1
  Si  Si184  1  0.86773829  0.72448306  0.56102139  1
  Si  Si185  1  0.98697738  0.04569592  0.53399135  1
  Si  Si186  1  0.90754264  0.42205249  0.59707621  1
  Si  Si187  1  0.13152709  0.18724157  0.58871331  1
  Si  Si188  1  0.18706046  0.81807590  0.52997375  1
  Si  Si189  1  0.65547397  0.95889419  0.56648898  1
  Si  Si190  1  0.80339510  0.10208390  0.62772449  1
  Si  Si191  1  0.76165501  0.47579172  0.69885427  1
  Si  Si192  1  0.84906102  0.80063424  0.66417723  1
  Si  Si193  1  0.78955869  0.17162251  0.73378520  1
  Si  Si194  1  0.01308330  0.93215800  0.73162446  1
  Si  Si195  1  0.07693470  0.55200560  0.65836248  1
  Si  Si196  1  0.53271075  0.72238097  0.70303338  1
  Si  Si197  1  0.59423011  0.34904846  0.63618178  1
  Si  Si198  1  0.69303547  0.85517533  0.76879294  1
  Si  Si199  1  0.63357862  0.22311182  0.83620947  1
  Si  Si200  1  0.72799816  0.54479445  0.79957156  1
  Si  Si201  1  0.70764470  0.89909752  0.86797564  1
  Si  Si202  1  0.89566833  0.67147042  0.85644624  1
  Si  Si203  1  0.95139911  0.30426446  0.79788820  1
  Si  Si204  1  0.40754581  0.46507210  0.83804804  1
  Si  Si205  1  0.47135139  0.09165686  0.76997425  1
  Si  Si206  1  0.55284060  0.60390765  0.89542674  1
  Si  Si207  1  0.54727193  0.98803045  0.94807270  1
  Si  Si208  1  0.59910068  0.29697942  0.93640933  1
  Si  Si209  1  0.84842422  0.05538810  0.93671977  1
  Si  Si210  1  0.24579500  0.23272179  0.98104984  1
  Si  Si211  1  0.36127259  0.83278440  0.91342834  1
  P  P212  1  0.63680843  0.99958813  0.06083806  1
  P  P213  1  0.53930296  0.21944202  0.04892091  1
  P  P214  1  0.57913297  0.84286161  0.10242993  1
  P  P215  1  0.68985579  0.63168778  0.12606640  1
  P  P216  1  0.74397343  0.26065786  0.19174161  1
  P  P217  1  0.64648537  0.46490350  0.17176532  1
  P  P218  1  0.70570797  0.09335642  0.23704657  1
  P  P219  1  0.80967160  0.88365750  0.25767971  1
  P  P220  1  0.86957894  0.51349683  0.33531139  1
  P  P221  1  0.76866387  0.71506958  0.30752552  1
  P  P222  1  0.81852939  0.34864594  0.37585865  1
  P  P223  1  0.92992154  0.13849798  0.40152926  1
  P  P224  1  0.02541942  0.75431906  0.46067933  1
  P  P225  1  0.94785064  0.95404559  0.43635411  1
  P  P226  1  0.36319206  0.50040789  0.56083646  1
  P  P227  1  0.46069397  0.28056206  0.54891771  1
  P  P228  1  0.42085222  0.65714379  0.60242843  1
  P  P229  1  0.30999373  0.86835852  0.62608264  1
  P  P230  1  0.25601972  0.23935207  0.69174012  1
  P  P231  1  0.35350929  0.03510693  0.67176678  1
  P  P232  1  0.29428558  0.40664547  0.73704372  1
  P  P233  1  0.19031431  0.61634958  0.75768174  1
  P  P234  1  0.13044471  0.98649387  0.83530870  1
  P  P235  1  0.23133772  0.78492997  0.80752538  1
  P  P236  1  0.18146161  0.15134854  0.87585794  1
  P  P237  1  0.07007810  0.36150332  0.90153330  1
  P  P238  1  0.97463085  0.74564981  0.96068524  1
  P  P239  1  0.05218377  0.54595102  0.93635691  1
  O  O240  1  0.01189173  0.46235038  0.11392245  1
  O  O241  1  0.94386981  0.83849693  0.04983316  1
  O  O242  1  0.18522712  0.39612781  0.05257422  1
  O  O243  1  0.24578607  0.01236821  0.11515089  1
  O  O244  1  0.83781282  0.02798813  0.01796863  1
  O  O245  1  0.82492061  0.65403681  0.06459094  1
  O  O246  1  0.31838147  0.57563170  0.03340519  1
  O  O247  1  0.34878064  0.17283194  0.10022177  1
  O  O248  1  0.63668879  0.15987472  0.02575601  1
  O  O249  1  0.74035924  0.77123860  0.10832876  1
  O  O250  1  0.51372328  0.07470638  0.04789187  1
  O  O251  1  0.54371798  0.27734465  0.03445965  1
  O  O252  1  0.58918985  0.86424625  0.07020168  1
  O  O253  1  0.53287455  0.99578370  0.08717640  1
  O  O254  1  0.81117172  0.98429639  0.07357526  1
  O  O255  1  0.34667014  0.23863236  0.05173886  1
  O  O256  1  0.40529166  0.84748918  0.10726183  1
  O  O257  1  0.69862305  0.58304485  0.10226275  1
  O  O258  1  0.65413136  0.95513643  0.03408033  1
  O  O259  1  0.62945200  0.19959571  0.07947861  1
  O  O260  1  0.40384830  0.68119492  0.97657824  1
  O  O261  1  0.11540715  0.71407019  0.07254475  1
  O  O262  1  0.00678515  0.52138430  0.02872205  1
  O  O263  1  0.16120943  0.11910061  0.07818077  1
  O  O264  1  0.87654584  0.37848673  0.08646358  1
  O  O265  1  0.83188463  0.74298668  0.03992775  1
  O  O266  1  0.34095553  0.47604880  0.05467117  1
  O  O267  1  0.14553501  0.84859467  0.97580186  1
  O  O268  1  0.17662106  0.58472631  0.08910975  1
  O  O269  1  0.13699008  0.03197536  0.00357221  1
  O  O270  1  0.00530357  0.25877491  0.06020107  1
  O  O271  1  0.98333508  0.62694166  0.00972493  1
  O  O272  1  0.83181739  0.48120237  0.05308362  1
  O  O273  1  0.52853318  0.87083186  0.00437472  1
  O  O274  1  0.35917877  0.35942458  0.10357178  1
  O  O275  1  0.27659506  0.75083238  0.03305006  1
  O  O276  1  0.99818989  0.42016261  0.00252526  1
  O  O277  1  0.00846003  0.05392903  0.07124293  1
  O  O278  1  0.19533579  0.79959294  0.08965516  1
  O  O279  1  0.52289880  0.51796510  0.08407447  1
  O  O280  1  0.67150081  0.32968773  0.08251405  1
  O  O281  1  0.62672686  0.70719571  0.01237897  1
  O  O282  1  0.11954849  0.71183821  0.25800320  1
  O  O283  1  0.06361572  0.09008386  0.18409699  1
  O  O284  1  0.33500571  0.63288949  0.17619656  1
  O  O285  1  0.38806692  0.26150698  0.24746789  1
  O  O286  1  0.94314071  0.28117982  0.12275371  1
  O  O287  1  0.96032442  0.92331234  0.19373040  1
  O  O288  1  0.42915765  0.80367927  0.16779328  1
  O  O289  1  0.48613253  0.43541395  0.23503530  1
  O  O290  1  0.80017870  0.39242656  0.17754113  1
  O  O291  1  0.86111907  0.02232408  0.24376871  1
  O  O292  1  0.52369716  0.70115640  0.11899455  1
  O  O293  1  0.58710163  0.33141815  0.18645687  1
  O  O294  1  0.66862220  0.48606697  0.14022257  1
  O  O295  1  0.71534158  0.11605967  0.20479010  1
  O  O296  1  0.67963613  0.60926089  0.15854985  1
  O  O297  1  0.74018944  0.23652945  0.22415090  1
  O  O298  1  0.85700234  0.63369113  0.12573794  1
  O  O299  1  0.92247755  0.25385127  0.18750597  1
  O  O300  1  0.46538957  0.47380925  0.17346095  1
  O  O301  1  0.52730129  0.09936084  0.23966063  1
  O  O302  1  0.81683975  0.83600204  0.23326223  1
  O  O303  1  0.73540043  0.21488511  0.16800119  1
  O  O304  1  0.65474714  0.50855083  0.19665433  1
  O  O305  1  0.59105417  0.88775135  0.12610051  1
  O  O306  1  0.14204170  0.34575812  0.14008442  1
  O  O307  1  0.18999749  0.97052459  0.20755030  1
  O  O308  1  0.18505102  0.75697341  0.15449273  1
  O  O309  1  0.25882352  0.38088213  0.22302801  1
  O  O310  1  0.99194710  0.63441950  0.22916546  1
  O  O311  1  0.91978922  0.01595493  0.15374958  1
  O  O312  1  0.45859845  0.71211644  0.20608791  1
  O  O313  1  0.39282860  0.08776306  0.14177272  1
  O  O314  1  0.31312050  0.83236858  0.22598490  1
  O  O315  1  0.26039408  0.20983537  0.15841008  1
  O  O316  1  0.13645737  0.51625149  0.20730030  1
  O  O317  1  0.08400320  0.89319674  0.13626790  1
  O  O318  1  0.00508147  0.73010642  0.19179468  1
  O  O319  1  0.93759570  0.12402871  0.12202415  1
  O  O320  1  0.44996786  0.61323928  0.24101304  1
  O  O321  1  0.40568516  0.98289129  0.17545655  1
  O  O322  1  0.07229521  0.68052743  0.13537494  1
  O  O323  1  0.13690911  0.30642842  0.20541239  1
  O  O324  1  0.24335471  0.42575692  0.15752286  1
  O  O325  1  0.29497717  0.05064814  0.22760114  1
  O  O326  1  0.66217006  0.76072248  0.21120728  1
  O  O327  1  0.59788169  0.13841468  0.14110597  1
  O  O328  1  0.79286502  0.58433697  0.22229848  1
  O  O329  1  0.73898568  0.95693854  0.14728668  1
  O  O330  1  0.28379059  0.96126335  0.37885487  1
  O  O331  1  0.17962919  0.34222663  0.32429122  1
  O  O332  1  0.43807563  0.88770259  0.31521837  1
  O  O333  1  0.50229700  0.57608694  0.37300621  1
  O  O334  1  0.02645767  0.54151863  0.26683922  1
  O  O335  1  0.08004613  0.17071857  0.33340947  1
  O  O336  1  0.56205053  0.05895820  0.30254452  1
  O  O337  1  0.49337110  0.70520276  0.38571249  1
  O  O338  1  0.93749390  0.64601404  0.31223837  1
  O  O339  1  0.98799894  0.27858827  0.38076869  1
  O  O340  1  0.65213453  0.95475069  0.25036295  1
  O  O341  1  0.71173998  0.58584042  0.33024738  1
  O  O342  1  0.75346837  0.73836379  0.27408714  1
  O  O343  1  0.81064099  0.37029936  0.34245305  1
  O  O344  1  0.78794034  0.86144271  0.28898052  1
  O  O345  1  0.87014522  0.49160543  0.36829612  1
  O  O346  1  0.98343159  0.88043258  0.25627705  1
  O  O347  1  0.04600371  0.50710816  0.32962362  1
  O  O348  1  0.60162517  0.71645621  0.31526251  1
  O  O349  1  0.65689194  0.34563099  0.38273046  1
  O  O350  1  0.94046455  0.09156632  0.37641396  1
  O  O351  1  0.85289137  0.46804595  0.31239540  1
  O  O352  1  0.78174577  0.76380647  0.32849072  1
  O  O353  1  0.70844912  0.13887157  0.26157280  1
  O  O354  1  0.27323922  0.58795292  0.27893624  1
  O  O355  1  0.32581380  0.22026968  0.34455023  1
  O  O356  1  0.34063451  0.00257157  0.29000836  1
  O  O357  1  0.22501809  0.67299865  0.35179567  1
  O  O358  1  0.10092638  0.89642326  0.35493310  1
  O  O359  1  0.03981638  0.26526995  0.29612774  1
  O  O360  1  0.59630476  0.96658712  0.34030578  1
  O  O361  1  0.54286155  0.33802465  0.27208593  1
  O  O362  1  0.42959313  0.08759790  0.36062324  1
  O  O363  1  0.37432075  0.45782804  0.29417966  1
  O  O364  1  0.27045771  0.77203155  0.33633415  1
  O  O365  1  0.21138013  0.14299912  0.27575234  1
  O  O366  1  0.10659872  0.00170290  0.32304785  1
  O  O367  1  0.05783704  0.36585831  0.26046986  1
  O  O368  1  0.62228651  0.85308312  0.37414954  1
  O  O369  1  0.52040365  0.24296659  0.30998389  1
  O  O370  1  0.19921610  0.93243934  0.27198005  1
  O  O371  1  0.29140565  0.54920894  0.34362216  1
  O  O372  1  0.39571890  0.66066686  0.29707228  1
  O  O373  1  0.43611863  0.29581778  0.36612318  1
  O  O374  1  0.77250189  0.02664928  0.35105657  1
  O  O375  1  0.71243777  0.40109495  0.28018319  1
  O  O376  1  0.92315077  0.83672371  0.34645344  1
  O  O377  1  0.86606537  0.20496763  0.28662268  1
  O  O378  1  0.27421425  0.58283840  0.45726164  1
  O  O379  1  0.58899926  0.13378163  0.44353057  1
  O  O380  1  0.12508318  0.80669895  0.39220685  1
  O  O381  1  0.25692230  0.39968347  0.46752998  1
  O  O382  1  0.69016744  0.29677575  0.44669633  1
  O  O383  1  0.61379547  0.98329149  0.47992197  1
  O  O384  1  0.11351058  0.88451427  0.44487700  1
  O  O385  1  0.76177310  0.20789659  0.39592500  1
  O  O386  1  0.87009578  0.82750811  0.46341360  1
  O  O387  1  0.00255492  0.98650794  0.41249538  1
  O  O388  1  0.93184567  0.11348419  0.43419755  1
  O  O389  1  0.07090156  0.71661165  0.49119919  1
  O  O390  1  0.09383571  0.14241628  0.39852909  1
  O  O391  1  0.19200914  0.75156186  0.44985756  1
  O  O392  1  0.79510679  0.95312761  0.42378528  1
  O  O393  1  0.08306648  0.32643220  0.51466866  1
  O  O394  1  0.98086239  0.71917925  0.43657890  1
  O  O395  1  0.90484336  0.99617954  0.46604500  1
  O  O396  1  0.82820630  0.39733866  0.39694111  1
  O  O397  1  0.39344679  0.84401664  0.40467495  1
  O  O398  1  0.47580559  0.45683626  0.47265880  1
  O  O399  1  0.42240215  0.26411801  0.42972618  1
  O  O400  1  0.33972145  0.14213937  0.52373555  1
  O  O401  1  0.10442417  0.52095987  0.43810724  1
  O  O402  1  0.70470932  0.21128853  0.48601571  1
  O  O403  1  0.66953803  0.59573472  0.42102088  1
  O  O404  1  0.66969710  0.32899998  0.50638713  1
  O  O405  1  0.53096259  0.71896959  0.44325364  1
  O  O406  1  0.34456054  0.95920348  0.48178729  1
  O  O407  1  0.29861534  0.40079434  0.40959243  1
  O  O408  1  0.27803799  0.22173529  0.46765354  1
  O  O409  1  0.16427483  0.61129059  0.39585463  1
  O  O410  1  0.67823180  0.08474167  0.50479439  1
  O  O411  1  0.48721838  0.49316466  0.41202117  1
  O  O412  1  0.30712012  0.18716506  0.40994465  1
  O  O413  1  0.50948322  0.92156560  0.42393131  1
  O  O414  1  0.62670407  0.51554469  0.45333243  1
  O  O415  1  0.96904339  0.22924844  0.48715445  1
  O  O416  1  0.82148245  0.66082283  0.40710414  1
  O  O417  1  0.96679556  0.45065345  0.43014745  1
  O  O418  1  0.98807071  0.03766400  0.61391987  1
  O  O419  1  0.05612794  0.66149343  0.54983880  1
  O  O420  1  0.81477315  0.10387080  0.55257668  1
  O  O421  1  0.75422346  0.48763427  0.61515028  1
  O  O422  1  0.16222151  0.47199419  0.51796924  1
  O  O423  1  0.17510464  0.84594373  0.56459229  1
  O  O424  1  0.68164463  0.92436785  0.53340160  1
  O  O425  1  0.65121519  0.32716583  0.60022031  1
  O  O426  1  0.36335533  0.34011967  0.52574739  1
  O  O427  1  0.25962340  0.72876349  0.60833050  1
  O  O428  1  0.48630052  0.42529189  0.54788888  1
  O  O429  1  0.45628577  0.22265856  0.53446018  1
  O  O430  1  0.41078457  0.63575732  0.57020146  1
  O  O431  1  0.46712750  0.50421567  0.58717269  1
  O  O432  1  0.18882855  0.51570453  0.57357410  1
  O  O433  1  0.65334128  0.26136419  0.55173905  1
  O  O434  1  0.59468424  0.65252472  0.60725854  1
  O  O435  1  0.30132813  0.91697464  0.60227473  1
  O  O436  1  0.34584049  0.54486468  0.53407931  1
  O  O437  1  0.37049518  0.30043048  0.57947161  1
  O  O438  1  0.59616105  0.81879581  0.47656479  1
  O  O439  1  0.88464874  0.78592483  0.57253913  1
  O  O440  1  0.99322857  0.97861517  0.52872368  1
  O  O441  1  0.83879554  0.38089826  0.57817969  1
  O  O442  1  0.12342990  0.12152671  0.58646410  1
  O  O443  1  0.16814673  0.75699758  0.53990917  1
  O  O444  1  0.65900612  0.02395950  0.55466757  1
  O  O445  1  0.85447644  0.65139862  0.47580202  1
  O  O446  1  0.82334031  0.91528343  0.58910676  1
  O  O447  1  0.86301758  0.46801051  0.50357243  1
  O  O448  1  0.99469434  0.24122712  0.56019953  1
  O  O449  1  0.01669329  0.87306409  0.50972610  1
  O  O450  1  0.16817158  0.01880930  0.55308562  1
  O  O451  1  0.47151710  0.62912840  0.50437534  1
  O  O452  1  0.64079260  0.14059581  0.60356631  1
  O  O453  1  0.72341368  0.74918241  0.53304270  1
  O  O454  1  0.00179215  0.07984236  0.50252550  1
  O  O455  1  0.99154638  0.44606846  0.57124150  1
  O  O456  1  0.80452054  0.70046725  0.58964699  1
  O  O457  1  0.47705547  0.98203950  0.58406186  1
  O  O458  1  0.32848798  0.17032042  0.58251341  1
  O  O459  1  0.37330006  0.79279309  0.51237538  1
  O  O460  1  0.88044796  0.78816154  0.75799374  1
  O  O461  1  0.93642557  0.40992356  0.68410176  1
  O  O462  1  0.66499167  0.86711775  0.67619753  1
  O  O463  1  0.61192266  0.23850476  0.74746981  1
  O  O464  1  0.05684648  0.21883119  0.62275483  1
  O  O465  1  0.03962001  0.57671007  0.69372559  1
  O  O466  1  0.57084054  0.69631709  0.66779053  1
  O  O467  1  0.51386285  0.06459330  0.73503483  1
  O  O468  1  0.19978883  0.10758000  0.67754421  1
  O  O469  1  0.13887417  0.47767703  0.74376713  1
  O  O470  1  0.47612034  0.79887625  0.61901887  1
  O  O471  1  0.41289154  0.16858515  0.68645508  1
  O  O472  1  0.33139318  0.01394728  0.64022067  1
  O  O473  1  0.28464610  0.38394887  0.70478599  1
  O  O474  1  0.32020942  0.89078859  0.65856531  1
  O  O475  1  0.25981494  0.26347200  0.72415174  1
  O  O476  1  0.14283136  0.86637684  0.62574556  1
  O  O477  1  0.07752687  0.24615448  0.68750655  1
  O  O478  1  0.53459157  0.02621123  0.67346400  1
  O  O479  1  0.47268206  0.40064126  0.73966037  1
  O  O480  1  0.18317468  0.66399685  0.73326119  1
  O  O481  1  0.26459410  0.28512859  0.66800082  1
  O  O482  1  0.34525570  0.99145485  0.69665318  1
  O  O483  1  0.40895383  0.61225062  0.62609987  1
  O  O484  1  0.85793288  0.15425030  0.64008662  1
  O  O485  1  0.80997178  0.52948822  0.70755203  1
  O  O486  1  0.81488756  0.74304973  0.65448777  1
  O  O487  1  0.74115917  0.11913318  0.72302633  1
  O  O488  1  0.00804609  0.86558834  0.72915923  1
  O  O489  1  0.08004758  0.48409484  0.65374044  1
  O  O490  1  0.54139919  0.78789158  0.70607830  1
  O  O491  1  0.60727676  0.41222208  0.64176447  1
  O  O492  1  0.68686470  0.66764156  0.72598372  1
  O  O493  1  0.73958116  0.29017383  0.65841468  1
  O  O494  1  0.86353336  0.98376648  0.70730318  1
  O  O495  1  0.91601324  0.60684814  0.63625592  1
  O  O496  1  0.99491875  0.76989588  0.69179052  1
  O  O497  1  0.06240603  0.37597285  0.62202315  1
  O  O498  1  0.54999469  0.88677771  0.74101592  1
  O  O499  1  0.59433025  0.51710677  0.67545156  1
  O  O500  1  0.92767470  0.81947993  0.63537227  1
  O  O501  1  0.86307919  0.19358769  0.70541450  1
  O  O502  1  0.75656509  0.07426110  0.65751579  1
  O  O503  1  0.70502069  0.44935229  0.72759713  1
  O  O504  1  0.33780974  0.73929517  0.71120237  1
  O  O505  1  0.40208007  0.36163619  0.64110441  1
  O  O506  1  0.20713272  0.91567012  0.72230311  1
  O  O507  1  0.26103162  0.54305176  0.64728826  1
  O  O508  1  0.71622341  0.53873045  0.87885519  1
  O  O509  1  0.82036268  0.15776285  0.82428764  1
  O  O510  1  0.56193207  0.61229448  0.81521892  1
  O  O511  1  0.49772360  0.92390413  0.87300268  1
  O  O512  1  0.97354516  0.95848252  0.76684223  1
  O  O513  1  0.91995271  0.32927930  0.83340994  1
  O  O514  1  0.43796031  0.44103488  0.80254402  1
  O  O515  1  0.50659276  0.79479526  0.88570290  1
  O  O516  1  0.06251885  0.85398646  0.81224267  1
  O  O517  1  0.01200342  0.22139793  0.88077473  1
  O  O518  1  0.34783662  0.54524960  0.75037317  1
  O  O519  1  0.28827643  0.91415074  0.83023779  1
  O  O520  1  0.24649314  0.76164411  0.77408562  1
  O  O521  1  0.18933402  0.12969675  0.84245196  1
  O  O522  1  0.21201034  0.63857262  0.78898355  1
  O  O523  1  0.12991151  0.00837425  0.86829339  1
  O  O524  1  0.01654703  0.61958101  0.75627538  1
  O  O525  1  0.95400431  0.99288810  0.82962464  1
  O  O526  1  0.39839701  0.78353116  0.81525847  1
  O  O527  1  0.34309181  0.15437114  0.88272938  1
  O  O528  1  0.05953148  0.40843287  0.87641804  1
  O  O529  1  0.14711454  0.03195144  0.81239263  1
  O  O530  1  0.21826848  0.73618942  0.82848909  1
  O  O531  1  0.29153770  0.36112494  0.76156884  1
  O  O532  1  0.72680135  0.91204207  0.77893717  1
  O  O533  1  0.67419222  0.27971678  0.84455536  1
  O  O534  1  0.65936990  0.49742645  0.79000668  1
  O  O535  1  0.77499626  0.82699919  0.85179530  1
  O  O536  1  0.89909948  0.60357064  0.85493048  1
  O  O537  1  0.96016769  0.23473033  0.79612728  1
  O  O538  1  0.40370191  0.53340639  0.84030448  1
  O  O539  1  0.45714242  0.16197554  0.77208923  1
  O  O540  1  0.57040896  0.41239435  0.86062294  1
  O  O541  1  0.62566856  0.04216732  0.79417896  1
  O  O542  1  0.72957987  0.72796033  0.83632581  1
  O  O543  1  0.78862615  0.35700100  0.77574859  1
  O  O544  1  0.89340696  0.49829345  0.82304740  1
  O  O545  1  0.94215970  0.13413844  0.76047087  1
  O  O546  1  0.37770324  0.64690925  0.87414945  1
  O  O547  1  0.47960013  0.25703477  0.80998336  1
  O  O548  1  0.80076832  0.56756785  0.77198065  1
  O  O549  1  0.70859603  0.95079903  0.84362548  1
  O  O550  1  0.60432411  0.83932232  0.79706833  1
  O  O551  1  0.56385553  0.20417669  0.86612094  1
  O  O552  1  0.22750057  0.47334851  0.85105623  1
  O  O553  1  0.28755647  0.09890694  0.78018379  1
  O  O554  1  0.07686100  0.66327516  0.84645051  1
  O  O555  1  0.13392449  0.29503768  0.78662338  1
  O  O556  1  0.72580211  0.91714757  0.95727490  1
  O  O557  1  0.41100794  0.36619560  0.94353298  1
  O  O558  1  0.87491563  0.69329440  0.89220213  1
  O  O559  1  0.74309001  0.10030109  0.96753385  1
  O  O560  1  0.30983642  0.20321892  0.94669532  1
  O  O561  1  0.38623732  0.51669464  0.97992853  1
  O  O562  1  0.88651419  0.61548370  0.94487830  1
  O  O563  1  0.23822205  0.29209860  0.89592886  1
  O  O564  1  0.12995587  0.67246101  0.96340901  1
  O  O565  1  0.99746912  0.51350323  0.91249233  1
  O  O566  1  0.06816381  0.38651408  0.93420032  1
  O  O567  1  0.92914747  0.78333597  0.99121028  1
  O  O568  1  0.90616572  0.35758212  0.89852937  1
  O  O569  1  0.80804576  0.74841049  0.94985676  1
  O  O570  1  0.20494792  0.54686363  0.92379535  1
  O  O571  1  0.91694997  0.17356561  0.01467009  1
  O  O572  1  0.01918241  0.78080450  0.93659180  1
  O  O573  1  0.09516712  0.50381503  0.96604586  1
  O  O574  1  0.17182781  0.10263547  0.89693518  1
  O  O575  1  0.60654840  0.65597539  0.90467258  1
  O  O576  1  0.52419146  0.04316200  0.97265831  1
  O  O577  1  0.57765284  0.23586116  0.92971996  1
  O  O578  1  0.66027082  0.35785877  0.02373794  1
  O  O579  1  0.89555469  0.97903148  0.93810611  1
  O  O580  1  0.29531393  0.28870595  0.98601356  1
  O  O581  1  0.33047499  0.90425852  0.92101590  1
  O  O582  1  0.33033810  0.17099795  0.00638504  1
  O  O583  1  0.46906556  0.78102386  0.94324615  1
  O  O584  1  0.65545811  0.54079014  0.98178738  1
  O  O585  1  0.70137534  0.09920883  0.90959587  1
  O  O586  1  0.72197322  0.27825301  0.96765545  1
  O  O587  1  0.83575214  0.88868582  0.89585657  1
  O  O588  1  0.32177178  0.41525588  0.00479448  1
  O  O589  1  0.51285925  0.00681133  0.91202291  1
  O  O590  1  0.69288270  0.31283597  0.90994853  1
  O  O591  1  0.49051975  0.57842929  0.92393276  1
  O  O592  1  0.37334566  0.98443136  0.95333205  1
  O  O593  1  0.03096854  0.27074669  0.98715485  1
  O  O594  1  0.17852607  0.83917404  0.90710251  1
  O  O595  1  0.03323267  0.04932260  0.93014631  1
