# generated using pymatgen
data_Na23Zr16Si14P7O89
_symmetry_space_group_name_H-M   'P 1'
_cell_length_a   9.13268800
_cell_length_b   24.27702622
_cell_length_c   46.19946991
_cell_angle_alpha   90.00000000
_cell_angle_beta   90.00000000
_cell_angle_gamma   56.47052858
_symmetry_Int_Tables_number   1
_chemical_formula_structural   Na23Zr16Si14P7O89
_chemical_formula_sum   'Na92 Zr64 Si56 P28 O356'
_cell_volume   8538.66057327
_cell_formula_units_Z   4
loop_
 _symmetry_equiv_pos_site_id
 _symmetry_equiv_pos_as_xyz
  1  'x, y, z'
loop_
 _atom_site_type_symbol
 _atom_site_label
 _atom_site_symmetry_multiplicity
 _atom_site_fract_x
 _atom_site_fract_y
 _atom_site_fract_z
 _atom_site_occupancy
  Na  Na0  1  0.90658058  0.90634225  0.09695911  1
  Na  Na1  1  0.06045312  0.30329043  0.02218551  1
  Na  Na2  1  0.28467342  0.93824182  0.07260080  1
  Na  Na3  1  0.32539394  0.02107004  0.01863333  1
  Na  Na4  1  0.52582636  0.69977485  0.07244539  1
  Na  Na5  1  0.60772098  0.52575925  0.03417254  1
  Na  Na6  1  0.72092952  0.10331290  0.09911082  1
  Na  Na7  1  0.99028302  0.53904812  0.08925510  1
  Na  Na8  1  0.07956051  0.88871397  0.00970636  1
  Na  Na9  1  0.20130568  0.30781816  0.09060345  1
  Na  Na10  1  0.10856118  0.67798095  0.03203353  1
  Na  Na11  1  0.96919560  0.53466763  0.16710285  1
  Na  Na12  1  0.04181607  0.15935279  0.22954583  1
  Na  Na13  1  0.34598717  0.57010914  0.13823683  1
  Na  Na14  1  0.40305230  0.19748083  0.20472495  1
  Na  Na15  1  0.61495269  0.30959922  0.13686856  1
  Na  Na16  1  0.65227080  0.95516973  0.20310594  1
  Na  Na17  1  0.71918620  0.79292107  0.16497029  1
  Na  Na18  1  0.78349921  0.41683439  0.23104725  1
  Na  Na19  1  0.11289416  0.79894889  0.21426901  1
  Na  Na20  1  0.05879690  0.17114089  0.15076761  1
  Na  Na21  1  0.32765162  0.55996390  0.21991647  1
  Na  Na22  1  0.27131998  0.93116693  0.15210014  1
  Na  Na23  1  0.10566182  0.78749754  0.29402885  1
  Na  Na24  1  0.16304555  0.41721160  0.35859673  1
  Na  Na25  1  0.46964698  0.82587587  0.26753304  1
  Na  Na26  1  0.53620193  0.45131172  0.33398065  1
  Na  Na27  1  0.70780383  0.58047756  0.27028206  1
  Na  Na28  1  0.78444048  0.19561791  0.33411777  1
  Na  Na29  1  0.85614181  0.03467391  0.29414305  1
  Na  Na30  1  0.89552517  0.67475077  0.36560045  1
  Na  Na31  1  0.24262758  0.05154250  0.34489398  1
  Na  Na32  1  0.16708105  0.42945164  0.27883048  1
  Na  Na33  1  0.44524905  0.81351469  0.34679801  1
  Na  Na34  1  0.39658489  0.18486244  0.28434471  1
  Na  Na35  1  0.25246872  0.03604757  0.42315149  1
  Na  Na36  1  0.45824983  0.67983493  0.47966199  1
  Na  Na37  1  0.57024315  0.07789315  0.40437802  1
  Na  Na38  1  0.78415971  0.87825929  0.40121710  1
  Na  Na39  1  0.93900490  0.44824966  0.47261244  1
  Na  Na40  1  0.97403543  0.29951598  0.42543565  1
  Na  Na41  1  0.10276045  0.99990101  0.48322584  1
  Na  Na42  1  0.40853676  0.29779201  0.47124091  1
  Na  Na43  1  0.29243156  0.67707879  0.40996434  1
  Na  Na44  1  0.28448360  0.08341258  0.50135178  1
  Na  Na45  1  0.52511135  0.44010314  0.41312115  1
  Na  Na46  1  0.09165882  0.56565598  0.59605060  1
  Na  Na47  1  0.92725846  0.16703153  0.52229954  1
  Na  Na48  1  0.71020238  0.53236656  0.57273396  1
  Na  Na49  1  0.67402103  0.45042222  0.51727342  1
  Na  Na50  1  0.48925987  0.76199946  0.57399088  1
  Na  Na51  1  0.40738533  0.93966226  0.53222216  1
  Na  Na52  1  0.28503939  0.36880118  0.59878713  1
  Na  Na53  1  0.01087645  0.93373189  0.59414911  1
  Na  Na54  1  0.91666654  0.58707850  0.50882250  1
  Na  Na55  1  0.80356451  0.16585155  0.59256002  1
  Na  Na56  1  0.88673389  0.79745133  0.53200926  1
  Na  Na57  1  0.03724473  0.94094656  0.67017168  1
  Na  Na58  1  0.95881097  0.31552870  0.73122679  1
  Na  Na59  1  0.65864738  0.90319015  0.63947202  1
  Na  Na60  1  0.59710923  0.27735622  0.70531299  1
  Na  Na61  1  0.39150692  0.16258424  0.63885959  1
  Na  Na62  1  0.35426670  0.51606072  0.70376976  1
  Na  Na63  1  0.28502967  0.67998527  0.66663887  1
  Na  Na64  1  0.21903302  0.05729008  0.73380748  1
  Na  Na65  1  0.89055966  0.67508876  0.71499662  1
  Na  Na66  1  0.94151920  0.30395090  0.65195176  1
  Na  Na67  1  0.67602525  0.91460811  0.72189179  1
  Na  Na68  1  0.73416041  0.54146156  0.65257299  1
  Na  Na69  1  0.89311510  0.68742305  0.79507219  1
  Na  Na70  1  0.83183736  0.05884569  0.86008892  1
  Na  Na71  1  0.52822620  0.64800749  0.76786688  1
  Na  Na72  1  0.45841693  0.02538862  0.83581423  1
  Na  Na73  1  0.29599105  0.89300072  0.77209073  1
  Na  Na74  1  0.21438560  0.28089882  0.83594544  1
  Na  Na75  1  0.14644436  0.44022866  0.79524085  1
  Na  Na76  1  0.10186486  0.79995998  0.86741159  1
  Na  Na77  1  0.75697795  0.42385368  0.84586407  1
  Na  Na78  1  0.83436819  0.04610254  0.78043913  1
  Na  Na79  1  0.55494878  0.66215180  0.84695664  1
  Na  Na80  1  0.60500026  0.29042898  0.78556304  1
  Na  Na81  1  0.74661973  0.43849533  0.92229796  1
  Na  Na82  1  0.53764163  0.79663679  0.98101828  1
  Na  Na83  1  0.40880640  0.40043757  0.90334391  1
  Na  Na84  1  0.21364753  0.59493592  0.90118992  1
  Na  Na85  1  0.05606104  0.02666293  0.97354751  1
  Na  Na86  1  0.02058419  0.17575747  0.92815966  1
  Na  Na87  1  0.84181386  0.51022533  0.98032035  1
  Na  Na88  1  0.57832227  0.18148129  0.97115387  1
  Na  Na89  1  0.70615247  0.79914360  0.91144548  1
  Na  Na90  1  0.69974081  0.39400265  0.99906710  1
  Na  Na91  1  0.46938988  0.03651314  0.91486279  1
  Zr  Zr92  1  0.95341642  0.68119275  0.10284290  1
  Zr  Zr93  1  0.92759119  0.04998082  0.03716383  1
  Zr  Zr94  1  0.25289968  0.17084570  0.07167933  1
  Zr  Zr95  1  0.15745648  0.53883378  0.01993396  1
  Zr  Zr96  1  0.77256937  0.48036344  0.10066206  1
  Zr  Zr97  1  0.75637980  0.85607369  0.01824157  1
  Zr  Zr98  1  0.41474213  0.36773640  0.07310512  1
  Zr  Zr99  1  0.37688244  0.70781034  0.00340964  1
  Zr  Zr100  1  0.09213870  0.93214784  0.23203228  1
  Zr  Zr101  1  0.02972315  0.30571933  0.16740965  1
  Zr  Zr102  1  0.35446003  0.42628365  0.20161555  1
  Zr  Zr103  1  0.28705311  0.79962043  0.13359840  1
  Zr  Zr104  1  0.88850482  0.73706054  0.23223420  1
  Zr  Zr105  1  0.83436753  0.11108818  0.16629395  1
  Zr  Zr106  1  0.55151612  0.62103855  0.20222299  1
  Zr  Zr107  1  0.49468955  0.99124606  0.13463610  1
  Zr  Zr108  1  0.21863398  0.18674074  0.36315702  1
  Zr  Zr109  1  0.15338070  0.55889756  0.30047742  1
  Zr  Zr110  1  0.47295610  0.67740940  0.33439359  1
  Zr  Zr111  1  0.41410634  0.05350827  0.26511581  1
  Zr  Zr112  1  0.01295294  0.99063110  0.36192591  1
  Zr  Zr113  1  0.95342051  0.36475475  0.29739037  1
  Zr  Zr114  1  0.67048280  0.87516348  0.33185121  1
  Zr  Zr115  1  0.61843195  0.24761804  0.26680735  1
  Zr  Zr116  1  0.32844736  0.44536510  0.47770855  1
  Zr  Zr117  1  0.24706947  0.81323726  0.42717318  1
  Zr  Zr118  1  0.57042489  0.92335751  0.46390657  1
  Zr  Zr119  1  0.54823161  0.30650916  0.39489033  1
  Zr  Zr120  1  0.12125830  0.26984202  0.49477060  1
  Zr  Zr121  1  0.08635883  0.61531255  0.43477157  1
  Zr  Zr122  1  0.77517564  0.13652730  0.45797719  1
  Zr  Zr123  1  0.73798687  0.50517303  0.39955021  1
  Zr  Zr124  1  0.05171918  0.79113241  0.60365847  1
  Zr  Zr125  1  0.07206430  0.42367768  0.53688216  1
  Zr  Zr126  1  0.75412858  0.30102219  0.57197422  1
  Zr  Zr127  1  0.84772461  0.93443756  0.52125486  1
  Zr  Zr128  1  0.24193685  0.99079336  0.60486045  1
  Zr  Zr129  1  0.24220702  0.61785795  0.51717347  1
  Zr  Zr130  1  0.59086407  0.10576953  0.57454682  1
  Zr  Zr131  1  0.62040525  0.76679609  0.50448069  1
  Zr  Zr132  1  0.91019946  0.54199139  0.73279286  1
  Zr  Zr133  1  0.97365997  0.16888037  0.66915529  1
  Zr  Zr134  1  0.64706008  0.04918777  0.70386676  1
  Zr  Zr135  1  0.71967928  0.67349553  0.63486427  1
  Zr  Zr136  1  0.11246052  0.73858994  0.73343658  1
  Zr  Zr137  1  0.16932430  0.36260964  0.66691111  1
  Zr  Zr138  1  0.45274033  0.85233916  0.70417291  1
  Zr  Zr139  1  0.50886300  0.48207570  0.63492626  1
  Zr  Zr140  1  0.77711369  0.29065453  0.86555845  1
  Zr  Zr141  1  0.84547028  0.91729528  0.80237778  1
  Zr  Zr142  1  0.52564318  0.79900471  0.83598848  1
  Zr  Zr143  1  0.58545279  0.42195916  0.76613125  1
  Zr  Zr144  1  0.98286142  0.48517753  0.86270534  1
  Zr  Zr145  1  0.04443797  0.11190373  0.79940037  1
  Zr  Zr146  1  0.32770183  0.60146254  0.83243923  1
  Zr  Zr147  1  0.38052298  0.22884500  0.76856386  1
  Zr  Zr148  1  0.65722948  0.03572622  0.97883995  1
  Zr  Zr149  1  0.74797841  0.66319900  0.92814516  1
  Zr  Zr150  1  0.43308567  0.55180170  0.96356662  1
  Zr  Zr151  1  0.44636877  0.17055221  0.89650979  1
  Zr  Zr152  1  0.86347232  0.20699684  0.99643589  1
  Zr  Zr153  1  0.91089994  0.86079675  0.93685053  1
  Zr  Zr154  1  0.20732296  0.34724249  0.96402226  1
  Zr  Zr155  1  0.25743839  0.97127683  0.90112516  1
  Si  Si156  1  0.11456684  0.77057072  0.06715610  1
  Si  Si157  1  0.01018131  0.43487004  0.03531720  1
  Si  Si158  1  0.08702560  0.07791197  0.10266477  1
  Si  Si159  1  0.86288872  0.31862893  0.09701263  1
  Si  Si160  1  0.77734264  0.69828270  0.03072940  1
  Si  Si161  1  0.33280595  0.53261939  0.07436609  1
  Si  Si162  1  0.17121064  0.40224598  0.13690153  1
  Si  Si163  1  0.24119908  0.02627173  0.19919116  1
  Si  Si164  1  0.14417904  0.70407102  0.16774733  1
  Si  Si165  1  0.21043885  0.33024413  0.23353583  1
  Si  Si166  1  0.98129258  0.57428630  0.23125336  1
  Si  Si167  1  0.92235541  0.94828339  0.16279754  1
  Si  Si168  1  0.46056034  0.78391437  0.20276532  1
  Si  Si169  1  0.40590636  0.15431183  0.13965090  1
  Si  Si170  1  0.29541255  0.65398953  0.26696332  1
  Si  Si171  1  0.36277507  0.28166720  0.32998064  1
  Si  Si172  1  0.26826865  0.95847424  0.29765508  1
  Si  Si173  1  0.32627677  0.58179354  0.36734638  1
  Si  Si174  1  0.09867542  0.82994819  0.35911267  1
  Si  Si175  1  0.04548828  0.20093787  0.29499920  1
  Si  Si176  1  0.58536175  0.03780130  0.33406000  1
  Si  Si177  1  0.52361208  0.41145133  0.26988030  1
  Si  Si178  1  0.41634554  0.90330290  0.39559673  1
  Si  Si179  1  0.49863610  0.53892557  0.46167131  1
  Si  Si180  1  0.37907569  0.21817186  0.42930463  1
  Si  Si181  1  0.17913522  0.44660938  0.42299181  1
  Si  Si182  1  0.71264774  0.30020719  0.46384614  1
  Si  Si183  1  0.64435712  0.66669259  0.40440215  1
  Si  Si184  1  0.88989696  0.70258650  0.56765658  1
  Si  Si185  1  0.01769735  0.02672226  0.54348211  1
  Si  Si186  1  0.91843093  0.39436676  0.60292346  1
  Si  Si187  1  0.14407435  0.15323648  0.59864510  1
  Si  Si188  1  0.22607679  0.77384550  0.53194318  1
  Si  Si189  1  0.67128158  0.94153989  0.57589245  1
  Si  Si190  1  0.83297214  0.07193073  0.63893965  1
  Si  Si191  1  0.76231950  0.44735303  0.70000477  1
  Si  Si192  1  0.85782121  0.77045528  0.66884943  1
  Si  Si193  1  0.78998708  0.14588997  0.73530095  1
  Si  Si194  1  0.02083977  0.90094397  0.73321517  1
  Si  Si195  1  0.08261150  0.52489852  0.66356699  1
  Si  Si196  1  0.54288629  0.69027129  0.70405233  1
  Si  Si197  1  0.59812326  0.31906669  0.64000363  1
  Si  Si198  1  0.70716803  0.82136515  0.76872906  1
  Si  Si199  1  0.63474007  0.19515232  0.83187431  1
  Si  Si200  1  0.73268464  0.51651322  0.79846790  1
  Si  Si201  1  0.67060864  0.89490323  0.86911607  1
  Si  Si202  1  0.90029700  0.64553837  0.85997912  1
  Si  Si203  1  0.95330430  0.27542991  0.79705977  1
  Si  Si204  1  0.41296320  0.43890686  0.83517514  1
  Si  Si205  1  0.47608375  0.06501137  0.77205983  1
  Si  Si206  1  0.57889614  0.57282559  0.89568041  1
  Si  Si207  1  0.49808211  0.93739666  0.96290661  1
  Si  Si208  1  0.60702417  0.26118559  0.93100474  1
  Si  Si209  1  0.81475156  0.03000422  0.92439958  1
  Si  Si210  1  0.26959758  0.18224923  0.96646761  1
  Si  Si211  1  0.35139558  0.80988819  0.90562342  1
  P  P212  1  0.61579479  0.00631349  0.06134069  1
  P  P213  1  0.53255490  0.21457355  0.04287442  1
  P  P214  1  0.57781883  0.84216880  0.10580113  1
  P  P215  1  0.67186989  0.63464088  0.12940891  1
  P  P216  1  0.74385174  0.26241897  0.19483454  1
  P  P217  1  0.64120357  0.46916193  0.17392958  1
  P  P218  1  0.70337440  0.09648798  0.23799803  1
  P  P219  1  0.80377484  0.88878118  0.25993208  1
  P  P220  1  0.86080315  0.51643103  0.32629550  1
  P  P221  1  0.76227829  0.72185685  0.30497806  1
  P  P222  1  0.82964233  0.35133920  0.36938250  1
  P  P223  1  0.94189546  0.14023737  0.39104338  1
  P  P224  1  0.97613437  0.76835000  0.45868872  1
  P  P225  1  0.87709938  0.97549633  0.43256046  1
  P  P226  1  0.38871458  0.46671054  0.56149755  1
  P  P227  1  0.47076664  0.25819089  0.54229327  1
  P  P228  1  0.42639073  0.63157787  0.60732484  1
  P  P229  1  0.33484661  0.83756641  0.63169512  1
  P  P230  1  0.25753861  0.21276609  0.69647076  1
  P  P231  1  0.36245394  0.00533137  0.67698146  1
  P  P232  1  0.29850402  0.37843382  0.73887272  1
  P  P233  1  0.19720304  0.58666769  0.76053540  1
  P  P234  1  0.13769869  0.96008411  0.82788760  1
  P  P235  1  0.23728146  0.75468652  0.80607637  1
  P  P236  1  0.16277454  0.12598207  0.87180886  1
  P  P237  1  0.05941742  0.33581441  0.89328777  1
  P  P238  1  0.02804439  0.70558868  0.95850568  1
  P  P239  1  0.10927200  0.50117612  0.93438317  1
  O  O240  1  0.99457142  0.46711209  0.12372777  1
  O  O241  1  0.95830139  0.83165815  0.04775269  1
  O  O242  1  0.18523170  0.38817274  0.05720280  1
  O  O243  1  0.26049858  0.01242143  0.11676395  1
  O  O244  1  0.83519139  0.01097749  0.00711518  1
  O  O245  1  0.80874159  0.68343955  0.06601512  1
  O  O246  1  0.29576864  0.57160557  0.04364381  1
  O  O247  1  0.36924802  0.17991009  0.10521192  1
  O  O248  1  0.67532386  0.14580938  0.05423680  1
  O  O249  1  0.73186219  0.77143545  0.11533557  1
  O  O250  1  0.51513349  0.70599169  0.12313493  1
  O  O251  1  0.44824785  0.07572565  0.05342314  1
  O  O252  1  0.58805952  0.22629419  0.01301688  1
  O  O253  1  0.59026083  0.86137753  0.07522927  1
  O  O254  1  0.59089930  0.98487363  0.09177327  1
  O  O255  1  0.78177510  0.00805769  0.06445642  1
  O  O256  1  0.35131987  0.21974666  0.04393985  1
  O  O257  1  0.40029929  0.84675385  0.10979735  1
  O  O258  1  0.66548276  0.58898823  0.10689968  1
  O  O259  1  0.63014480  0.95746796  0.03754814  1
  O  O260  1  0.50850352  0.26987834  0.06414118  1
  O  O261  1  0.48185054  0.61315479  0.98637172  1
  O  O262  1  0.05344885  0.72272789  0.07943405  1
  O  O263  1  0.02859484  0.49389761  0.01978798  1
  O  O264  1  0.14060261  0.12739876  0.08865729  1
  O  O265  1  0.87468638  0.38352710  0.09587513  1
  O  O266  1  0.76430267  0.76739450  0.02178850  1
  O  O267  1  0.31431417  0.47035157  0.06283054  1
  O  O268  1  0.29747731  0.78824868  0.98557319  1
  O  O269  1  0.17152779  0.57909623  0.09694661  1
  O  O270  1  0.15751252  0.97469524  0.02806021  1
  O  O271  1  0.02829345  0.26242092  0.07597055  1
  O  O272  1  0.95455782  0.63307825  0.01593115  1
  O  O273  1  0.86935258  0.49020503  0.06439595  1
  O  O274  1  0.87177546  0.86730190  0.98460578  1
  O  O275  1  0.33809136  0.36866365  0.11331224  1
  O  O276  1  0.27950118  0.72191744  0.04473153  1
  O  O277  1  0.86111372  0.42205838  0.02466187  1
  O  O278  1  0.01042526  0.05106251  0.07885352  1
  O  O279  1  0.17814657  0.79846800  0.09311005  1
  O  O280  1  0.52315983  0.50980886  0.08661137  1
  O  O281  1  0.66609766  0.33772845  0.08763052  1
  O  O282  1  0.60267921  0.69966941  0.02014484  1
  O  O283  1  0.11728744  0.72018723  0.25355795  1
  O  O284  1  0.06368116  0.09330295  0.18643296  1
  O  O285  1  0.32246918  0.63859598  0.18141529  1
  O  O286  1  0.38662628  0.26379210  0.24696139  1
  O  O287  1  0.90462634  0.29170272  0.13107593  1
  O  O288  1  0.96077483  0.92197396  0.19646081  1
  O  O289  1  0.41642140  0.81051742  0.16917867  1
  O  O290  1  0.48499269  0.43842364  0.23635900  1
  O  O291  1  0.80054141  0.39741975  0.17977311  1
  O  O292  1  0.85776183  0.02452367  0.24355110  1
  O  O293  1  0.64912518  0.96057290  0.25386311  1
  O  O294  1  0.58727505  0.33352029  0.18875289  1
  O  O295  1  0.65145660  0.49216827  0.14364030  1
  O  O296  1  0.71419900  0.11965599  0.20734917  1
  O  O297  1  0.66770057  0.61345079  0.16079960  1
  O  O298  1  0.73745434  0.23905703  0.22558795  1
  O  O299  1  0.84814214  0.62986776  0.12566287  1
  O  O300  1  0.92215645  0.25635291  0.19181346  1
  O  O301  1  0.46489147  0.47368157  0.17656199  1
  O  O302  1  0.52489595  0.10265679  0.24013634  1
  O  O303  1  0.79589816  0.84332223  0.23718063  1
  O  O304  1  0.73916305  0.21707629  0.17157260  1
  O  O305  1  0.64371510  0.51394506  0.19789578  1
  O  O306  1  0.57905837  0.88827023  0.12980592  1
  O  O307  1  0.13847353  0.34362246  0.14363186  1
  O  O308  1  0.19104079  0.97375804  0.20917618  1
  O  O309  1  0.18604661  0.75858604  0.15688621  1
  O  O310  1  0.25930173  0.38396081  0.22522040  1
  O  O311  1  0.97993683  0.64192610  0.22800490  1
  O  O312  1  0.92386962  0.01560974  0.16024613  1
  O  O313  1  0.46159798  0.71636779  0.20590769  1
  O  O314  1  0.40067167  0.08845865  0.14028488  1
  O  O315  1  0.30614641  0.83692313  0.22532159  1
  O  O316  1  0.24959369  0.20912697  0.16091860  1
  O  O317  1  0.13847657  0.52104822  0.20924895  1
  O  O318  1  0.07380705  0.89515956  0.14006496  1
  O  O319  1  0.98859724  0.74229471  0.19256025  1
  O  O320  1  0.93362359  0.11928254  0.12737959  1
  O  O321  1  0.45161581  0.61745787  0.24213033  1
  O  O322  1  0.39948566  0.98697019  0.17514015  1
  O  O323  1  0.07565323  0.67971989  0.14088656  1
  O  O324  1  0.14465499  0.30765257  0.20557342  1
  O  O325  1  0.23316140  0.42546429  0.16455044  1
  O  O326  1  0.31104580  0.05004788  0.22594254  1
  O  O327  1  0.64750640  0.77295050  0.21252298  1
  O  O328  1  0.59542213  0.14138095  0.14755000  1
  O  O329  1  0.79434195  0.58569501  0.22102918  1
  O  O330  1  0.73442778  0.96073842  0.15288224  1
  O  O331  1  0.24198273  0.97113137  0.38263148  1
  O  O332  1  0.18714651  0.34792122  0.31652313  1
  O  O333  1  0.44660162  0.89146224  0.31003389  1
  O  O334  1  0.50923607  0.51780851  0.38082446  1
  O  O335  1  0.01808038  0.54915154  0.26503192  1
  O  O336  1  0.09072670  0.17313642  0.32842655  1
  O  O337  1  0.53861016  0.06555438  0.30056212  1
  O  O338  1  0.60082428  0.69312576  0.37015230  1
  O  O339  1  0.92182363  0.65163795  0.31208381  1
  O  O340  1  0.98610066  0.27989778  0.37503682  1
  O  O341  1  0.78372186  0.21229960  0.38614777  1
  O  O342  1  0.70341057  0.58822462  0.32073032  1
  O  O343  1  0.76794892  0.74237552  0.27341074  1
  O  O344  1  0.84381166  0.37571743  0.33931801  1
  O  O345  1  0.79575568  0.86704862  0.29101109  1
  O  O346  1  0.84438997  0.49364178  0.35643734  1
  O  O347  1  0.98228219  0.88226122  0.25655956  1
  O  O348  1  0.03785820  0.51151173  0.32472567  1
  O  O349  1  0.58655648  0.72658120  0.30909966  1
  O  O350  1  0.65435771  0.35491286  0.36969683  1
  O  O351  1  0.92699584  0.09686541  0.36802378  1
  O  O352  1  0.86097183  0.47210130  0.30195136  1
  O  O353  1  0.76692408  0.76954793  0.32682799  1
  O  O354  1  0.70960980  0.14051975  0.26166591  1
  O  O355  1  0.25092832  0.59946926  0.27624038  1
  O  O356  1  0.31447356  0.22861909  0.33991319  1
  O  O357  1  0.31534418  0.01167372  0.28740517  1
  O  O358  1  0.36638879  0.63856741  0.35826753  1
  O  O359  1  0.11552616  0.89306037  0.35625740  1
  O  O360  1  0.03814183  0.26997745  0.29315444  1
  O  O361  1  0.57675559  0.97193352  0.33714425  1
  O  O362  1  0.53294158  0.34202856  0.27155367  1
  O  O363  1  0.43923794  0.09170426  0.35741857  1
  O  O364  1  0.36547190  0.46285515  0.29217658  1
  O  O365  1  0.25343209  0.77287717  0.33835266  1
  O  O366  1  0.19895335  0.14964324  0.27191826  1
  O  O367  1  0.11382696  0.99721038  0.32222341  1
  O  O368  1  0.04876235  0.36871087  0.25720431  1
  O  O369  1  0.56620277  0.86676406  0.36992793  1
  O  O370  1  0.52216655  0.24126813  0.30619837  1
  O  O371  1  0.19611340  0.93550004  0.27093023  1
  O  O372  1  0.27320960  0.55718697  0.33851177  1
  O  O373  1  0.36624235  0.67543341  0.29461256  1
  O  O374  1  0.43601914  0.30344157  0.35699623  1
  O  O375  1  0.77893364  0.02298746  0.34120819  1
  O  O376  1  0.70828324  0.40176692  0.27998532  1
  O  O377  1  0.90568255  0.84617485  0.35128398  1
  O  O378  1  0.85943416  0.21080955  0.28586649  1
  O  O379  1  0.34595020  0.58600109  0.43834468  1
  O  O380  1  0.54053439  0.15219520  0.44490525  1
  O  O381  1  0.13274176  0.80382389  0.39335756  1
  O  O382  1  0.22430141  0.40243793  0.45252673  1
  O  O383  1  0.66714210  0.32539775  0.42968827  1
  O  O384  1  0.69299210  0.95607678  0.48996321  1
  O  O385  1  0.04253502  0.90627509  0.44124829  1
  O  O386  1  0.82680510  0.83489416  0.44634791  1
  O  O387  1  0.89953705  0.99223947  0.40062502  1
  O  O388  1  0.94674048  0.11577870  0.42220346  1
  O  O389  1  0.92465946  0.75455099  0.48809747  1
  O  O390  1  0.11926711  0.13377516  0.38691564  1
  O  O391  1  0.15320277  0.76648497  0.45699152  1
  O  O392  1  0.70951454  0.97499971  0.43157233  1
  O  O393  1  0.03453205  0.36134390  0.51219885  1
  O  O394  1  0.01332905  0.71126484  0.43720777  1
  O  O395  1  0.87064766  0.02809981  0.45198033  1
  O  O396  1  0.82576631  0.39615417  0.39394877  1
  O  O397  1  0.36536417  0.85206648  0.40791893  1
  O  O398  1  0.49491839  0.47517720  0.47257027  1
  O  O399  1  0.44676884  0.26535271  0.41845316  1
  O  O400  1  0.14630669  0.19586882  0.51261937  1
  O  O401  1  0.19064541  0.50779663  0.43738827  1
  O  O402  1  0.73294747  0.22902435  0.46547878  1
  O  O403  1  0.64067331  0.59962766  0.40404943  1
  O  O404  1  0.53984156  0.35318073  0.48391905  1
  O  O405  1  0.47493367  0.71979388  0.42541541  1
  O  O406  1  0.34230303  0.00260172  0.46963217  1
  O  O407  1  0.33389834  0.40623177  0.39891014  1
  O  O408  1  0.22599514  0.26125239  0.45388728  1
  O  O409  1  0.16207735  0.61432374  0.39070828  1
  O  O410  1  0.85838204  0.10828586  0.49439808  1
  O  O411  1  0.68842064  0.50263341  0.44410096  1
  O  O412  1  0.30898532  0.19413301  0.40300022  1
  O  O413  1  0.49846398  0.92428399  0.42095510  1
  O  O414  1  0.47275977  0.58169546  0.49125560  1
  O  O415  1  0.88528405  0.29983176  0.47402080  1
  O  O416  1  0.83809108  0.64784320  0.41546517  1
  O  O417  1  0.99145850  0.46941129  0.41008600  1
  O  O418  1  0.01228450  0.00651289  0.62672116  1
  O  O419  1  0.04459591  0.64161835  0.54799926  1
  O  O420  1  0.82887391  0.08355538  0.55920955  1
  O  O421  1  0.74314675  0.45999227  0.61668015  1
  O  O422  1  0.15543401  0.46573235  0.50673345  1
  O  O423  1  0.19984568  0.78662615  0.56738775  1
  O  O424  1  0.70228233  0.90452200  0.54481568  1
  O  O425  1  0.63502498  0.29319444  0.60560401  1
  O  O426  1  0.32582426  0.32615944  0.55406365  1
  O  O427  1  0.27086373  0.70171157  0.61732761  1
  O  O428  1  0.49116486  0.76670737  0.62482621  1
  O  O429  1  0.55816850  0.39706683  0.55439121  1
  O  O430  1  0.41814831  0.24612353  0.51245824  1
  O  O431  1  0.41233536  0.61284576  0.57684641  1
  O  O432  1  0.40956661  0.48924010  0.59209020  1
  O  O433  1  0.22364042  0.46419787  0.56417918  1
  O  O434  1  0.65114452  0.25410810  0.54412225  1
  O  O435  1  0.60256123  0.62813827  0.61106523  1
  O  O436  1  0.34770144  0.88471285  0.61122463  1
  O  O437  1  0.37486534  0.51517925  0.53751975  1
  O  O438  1  0.49991531  0.20137529  0.56352896  1
  O  O439  1  0.53549790  0.86022656  0.48877853  1
  O  O440  1  0.95074917  0.75057779  0.57994425  1
  O  O441  1  0.97257841  0.98133568  0.52290145  1
  O  O442  1  0.86735263  0.34399212  0.58909778  1
  O  O443  1  0.13553195  0.08729858  0.59782472  1
  O  O444  1  0.23913934  0.70538954  0.52231895  1
  O  O445  1  0.68820394  0.00436174  0.56484041  1
  O  O446  1  0.70080089  0.68734066  0.48554879  1
  O  O447  1  0.83532654  0.89355371  0.59773717  1
  O  O448  1  0.83891691  0.49693072  0.52866532  1
  O  O449  1  0.97730643  0.20895871  0.57785196  1
  O  O450  1  0.04823747  0.84010678  0.51793188  1
  O  O451  1  0.14750877  0.97274535  0.56919488  1
  O  O452  1  0.12975104  0.60435233  0.48407347  1
  O  O453  1  0.66905602  0.10495693  0.61467649  1
  O  O454  1  0.72331206  0.75115900  0.54550124  1
  O  O455  1  0.14292682  0.04604084  0.52865789  1
  O  O456  1  0.99565863  0.42091873  0.57910062  1
  O  O457  1  0.82531201  0.67527950  0.59385743  1
  O  O458  1  0.48514262  0.96360271  0.58984396  1
  O  O459  1  0.34052578  0.13490267  0.58903255  1
  O  O460  1  0.39927543  0.77344840  0.52138457  1
  O  O461  1  0.88582070  0.75530720  0.75535369  1
  O  O462  1  0.94090034  0.38025032  0.68753382  1
  O  O463  1  0.67814061  0.83578069  0.68243334  1
  O  O464  1  0.61288221  0.21219742  0.74852277  1
  O  O465  1  0.10403386  0.17973531  0.63277807  1
  O  O466  1  0.04263986  0.55152384  0.69718984  1
  O  O467  1  0.58868854  0.66365775  0.67050830  1
  O  O468  1  0.51482305  0.03780024  0.73855196  1
  O  O469  1  0.20215483  0.07689428  0.68236419  1
  O  O470  1  0.14508108  0.45044440  0.74449423  1
  O  O471  1  0.35224353  0.51486945  0.75454549  1
  O  O472  1  0.41357683  0.14135363  0.69078054  1
  O  O473  1  0.35353363  0.98158713  0.64667530  1
  O  O474  1  0.28822555  0.35533151  0.70819952  1
  O  O475  1  0.33350088  0.85706432  0.66365297  1
  O  O476  1  0.26239162  0.23659313  0.72719092  1
  O  O477  1  0.15918953  0.84290306  0.62630101  1
  O  O478  1  0.07877279  0.21919507  0.69317694  1
  O  O479  1  0.53829363  0.00084680  0.67921354  1
  O  O480  1  0.47735284  0.37197742  0.74120329  1
  O  O481  1  0.20611969  0.63220414  0.73800691  1
  O  O482  1  0.26532593  0.25697968  0.67298939  1
  O  O483  1  0.35923871  0.96042908  0.70064778  1
  O  O484  1  0.42929204  0.58446834  0.63127590  1
  O  O485  1  0.86598346  0.13048105  0.64542752  1
  O  O486  1  0.81138794  0.50016123  0.71004023  1
  O  O487  1  0.81937337  0.71478413  0.65836775  1
  O  O488  1  0.74241549  0.09169091  0.72716199  1
  O  O489  1  0.01995255  0.83389135  0.72941479  1
  O  O490  1  0.07916447  0.45801082  0.66097396  1
  O  O491  1  0.54520727  0.75699535  0.70798466  1
  O  O492  1  0.60429596  0.38465391  0.64061802  1
  O  O493  1  0.69625461  0.63670780  0.72651935  1
  O  O494  1  0.75406707  0.26450506  0.66149587  1
  O  O495  1  0.86388242  0.95488653  0.71133762  1
  O  O496  1  0.93212580  0.57795901  0.64072391  1
  O  O497  1  0.01245808  0.73339827  0.69388252  1
  O  O498  1  0.06957389  0.35414112  0.62817173  1
  O  O499  1  0.55175572  0.85701456  0.74378358  1
  O  O500  1  0.60610794  0.48548968  0.67557398  1
  O  O501  1  0.92568838  0.79453350  0.64184753  1
  O  O502  1  0.85558553  0.16815634  0.70718366  1
  O  O503  1  0.76626807  0.05005225  0.66639642  1
  O  O504  1  0.69080448  0.42428719  0.72689154  1
  O  O505  1  0.35458722  0.70221514  0.71368759  1
  O  O506  1  0.40850067  0.33213512  0.64807423  1
  O  O507  1  0.20864114  0.88887941  0.72303889  1
  O  O508  1  0.27156869  0.51165561  0.65388761  1
  O  O509  1  0.75080506  0.50545002  0.88197530  1
  O  O510  1  0.81021185  0.12904090  0.81822603  1
  O  O511  1  0.55473390  0.58370026  0.81087203  1
  O  O512  1  0.48623108  0.95892609  0.88232005  1
  O  O513  1  0.98370494  0.92598620  0.76695613  1
  O  O514  1  0.90777428  0.30278491  0.83057407  1
  O  O515  1  0.45687993  0.41139084  0.80163075  1
  O  O516  1  0.39583617  0.78355607  0.87137291  1
  O  O517  1  0.07704112  0.82448840  0.81350229  1
  O  O518  1  0.00459845  0.19698156  0.87806529  1
  O  O519  1  0.21464077  0.26403150  0.88705240  1
  O  O520  1  0.29603846  0.88853896  0.82228565  1
  O  O521  1  0.23295306  0.73431160  0.77442233  1
  O  O522  1  0.14857969  0.10210325  0.84165056  1
  O  O523  1  0.20437621  0.60846026  0.79166190  1
  O  O524  1  0.15287122  0.98313957  0.85802453  1
  O  O525  1  0.01909002  0.59303009  0.75702051  1
  O  O526  1  0.96137894  0.96451000  0.82636765  1
  O  O527  1  0.41213348  0.75039644  0.81037210  1
  O  O528  1  0.33696637  0.12303802  0.87201534  1
  O  O529  1  0.07117811  0.37977453  0.87004185  1
  O  O530  1  0.13642106  0.00480532  0.80363624  1
  O  O531  1  0.23286705  0.70638979  0.82754229  1
  O  O532  1  0.29055433  0.33493861  0.76262134  1
  O  O533  1  0.74906443  0.87668351  0.77778749  1
  O  O534  1  0.68360096  0.24780424  0.84236793  1
  O  O535  1  0.68368532  0.46375286  0.78849116  1
  O  O536  1  0.63108490  0.83786536  0.85998821  1
  O  O537  1  0.88428490  0.58230950  0.85666341  1
  O  O538  1  0.96021673  0.20652549  0.79506439  1
  O  O539  1  0.42038464  0.50493924  0.83812910  1
  O  O540  1  0.46605544  0.13456094  0.77353038  1
  O  O541  1  0.56069218  0.38547532  0.85843314  1
  O  O542  1  0.63510700  0.01362991  0.79416265  1
  O  O543  1  0.74424130  0.70328550  0.83971326  1
  O  O544  1  0.79997544  0.32648730  0.77389050  1
  O  O545  1  0.88843914  0.47712245  0.82282021  1
  O  O546  1  0.95147504  0.10784531  0.75900690  1
  O  O547  1  0.42918669  0.61167768  0.87028042  1
  O  O548  1  0.47678585  0.23596012  0.80782449  1
  O  O549  1  0.80581136  0.53890809  0.77172290  1
  O  O550  1  0.72334651  0.91936216  0.84012947  1
  O  O551  1  0.63526598  0.80022489  0.79630553  1
  O  O552  1  0.56022080  0.17286175  0.85845952  1
  O  O553  1  0.22155794  0.45262683  0.84340979  1
  O  O554  1  0.29199497  0.07451243  0.78251220  1
  O  O555  1  0.09230040  0.62993730  0.85190111  1
  O  O556  1  0.13914496  0.26571606  0.78778216  1
  O  O557  1  0.65053898  0.89025823  0.93957763  1
  O  O558  1  0.44063977  0.32364344  0.94801155  1
  O  O559  1  0.86796964  0.66974543  0.89448361  1
  O  O560  1  0.76614039  0.07618887  0.95340820  1
  O  O561  1  0.31976725  0.15859211  0.93212425  1
  O  O562  1  0.32293411  0.51482449  0.98974852  1
  O  O563  1  0.94577607  0.56975399  0.94436138  1
  O  O564  1  0.17420652  0.63915254  0.94559325  1
  O  O565  1  0.07955725  0.48498701  0.90297841  1
  O  O566  1  0.06107419  0.35876509  0.92438460  1
  O  O567  1  0.08968830  0.71646284  0.98771672  1
  O  O568  1  0.88108006  0.34239710  0.88943872  1
  O  O569  1  0.84959608  0.70831940  0.95735767  1
  O  O570  1  0.27804554  0.50003960  0.93228177  1
  O  O571  1  0.96493382  0.11250664  0.01291036  1
  O  O572  1  0.98762345  0.76377158  0.93757986  1
  O  O573  1  0.11399932  0.44969586  0.95470342  1
  O  O574  1  0.16972571  0.08038175  0.89626969  1
  O  O575  1  0.63353803  0.62230707  0.90911441  1
  O  O576  1  0.50108624  0.00158195  0.97353421  1
  O  O577  1  0.54724954  0.21212699  0.91959465  1
  O  O578  1  0.83318829  0.28251152  0.01330096  1
  O  O579  1  0.80436179  0.96914832  0.93925042  1
  O  O580  1  0.23867678  0.25557762  0.97047547  1
  O  O581  1  0.35578425  0.87675125  0.90556128  1
  O  O582  1  0.44664109  0.12819652  0.98550767  1
  O  O583  1  0.52261809  0.75601388  0.92632265  1
  O  O584  1  0.66361773  0.47344498  0.96782882  1
  O  O585  1  0.65884237  0.06999390  0.90037250  1
  O  O586  1  0.76345410  0.21793905  0.95495199  1
  O  O587  1  0.83472950  0.86238361  0.89231307  1
  O  O588  1  0.15930557  0.37319554  0.00298561  1
  O  O589  1  0.30782442  0.97373004  0.94546380  1
  O  O590  1  0.66817929  0.28939718  0.90501681  1
  O  O591  1  0.49575656  0.54984319  0.91996542  1
  O  O592  1  0.52367064  0.89473076  0.99243444  1
  O  O593  1  0.10175013  0.17932576  0.97603783  1
  O  O594  1  0.15873946  0.82841459  0.91680946  1
  O  O595  1  0.00269677  0.00736272  0.91151270  1
