# generated using pymatgen
data_Na21Zr14Si12(PO15)5
_symmetry_space_group_name_H-M   'P 1'
_cell_length_a   9.13268800
_cell_length_b   24.27702622
_cell_length_c   39.81019352
_cell_angle_alpha   90.00000000
_cell_angle_beta   90.00000000
_cell_angle_gamma   56.47052858
_symmetry_Int_Tables_number   1
_chemical_formula_structural   Na21Zr14Si12(PO15)5
_chemical_formula_sum   'Na84 Zr56 Si48 P20 O300'
_cell_volume   7357.78420217
_cell_formula_units_Z   4
loop_
 _symmetry_equiv_pos_site_id
 _symmetry_equiv_pos_as_xyz
  1  'x, y, z'
loop_
 _atom_site_type_symbol
 _atom_site_label
 _atom_site_symmetry_multiplicity
 _atom_site_fract_x
 _atom_site_fract_y
 _atom_site_fract_z
 _atom_site_occupancy
  Na  Na0  1  0.38678602  0.07578555  0.97822446  1
  Na  Na1  1  0.93507781  0.86450788  0.08412393  1
  Na  Na2  1  0.45311168  0.56185207  0.11341444  1
  Na  Na3  1  0.21142650  0.90560877  0.06296001  1
  Na  Na4  1  0.68928689  0.25513941  0.11355601  1
  Na  Na5  1  0.63397679  0.65086498  0.04173722  1
  Na  Na6  1  0.67744183  0.45289051  0.98703848  1
  Na  Na7  1  0.72373428  0.89323351  0.02297948  1
  Na  Na8  1  0.19193235  0.48654489  0.10363947  1
  Na  Na9  1  0.12105214  0.13315939  0.14199317  1
  Na  Na10  1  0.25546795  0.27846024  0.06737633  1
  Na  Na11  1  0.05295261  0.56939005  0.98501736  1
  Na  Na12  1  0.98158370  0.47282878  0.16883801  1
  Na  Na13  1  0.08709370  0.13116650  0.22798220  1
  Na  Na14  1  0.53195711  0.79155878  0.27040070  1
  Na  Na15  1  0.46394976  0.16641302  0.19852159  1
  Na  Na16  1  0.76699005  0.54365263  0.27292581  1
  Na  Na17  1  0.67442499  0.95194603  0.19627380  1
  Na  Na18  1  0.76622125  0.77563925  0.15709021  1
  Na  Na19  1  0.84606735  0.37099738  0.22552347  1
  Na  Na20  1  0.14766702  0.77619717  0.21001816  1
  Na  Na21  1  0.20488350  0.40481000  0.28319863  1
  Na  Na22  1  0.37552402  0.53071468  0.21131771  1
  Na  Na23  1  0.32085141  0.90552775  0.14067562  1
  Na  Na24  1  0.15325231  0.75674934  0.29983289  1
  Na  Na25  1  0.18374194  0.38337856  0.38010950  1
  Na  Na26  1  0.68908500  0.07687880  0.41677961  1
  Na  Na27  1  0.68436875  0.29908735  0.33716829  1
  Na  Na28  1  0.84611146  0.89432196  0.42521992  1
  Na  Na29  1  0.82962247  0.12950902  0.33949045  1
  Na  Na30  1  0.94365044  0.95568760  0.30400233  1
  Na  Na31  1  0.92334884  0.69456755  0.39125870  1
  Na  Na32  1  0.26095900  0.02845094  0.35130367  1
  Na  Na33  1  0.35573796  0.64126517  0.43886052  1
  Na  Na34  1  0.48162850  0.78955722  0.35946701  1
  Na  Na35  1  0.42259958  0.16239380  0.28814068  1
  Na  Na36  1  0.38018752  0.01153218  0.42022365  1
  Na  Na37  1  0.76116697  0.72666657  0.48739215  1
  Na  Na38  1  0.91838477  0.48445773  0.50703648  1
  Na  Na39  1  0.04999175  0.34751800  0.47289131  1
  Na  Na40  1  0.50906728  0.33767288  0.49511405  1
  Na  Na41  1  0.47334381  0.42965502  0.40122040  1
  Na  Na42  1  0.48770691  0.49905673  0.47820224  1
  Na  Na43  1  0.93942713  0.71052970  0.58416684  1
  Na  Na44  1  0.42245290  0.01321886  0.61335270  1
  Na  Na45  1  0.66343984  0.66955271  0.56303230  1
  Na  Na46  1  0.18555343  0.32068582  0.61343642  1
  Na  Na47  1  0.24060239  0.92492854  0.54192789  1
  Na  Na48  1  0.19920170  0.12218521  0.48726424  1
  Na  Na49  1  0.15073366  0.68180384  0.52307346  1
  Na  Na50  1  0.68375555  0.08861592  0.60374463  1
  Na  Na51  1  0.75342660  0.44201640  0.64197859  1
  Na  Na52  1  0.62012516  0.29664615  0.56737769  1
  Na  Na53  1  0.82230206  0.00564091  0.48501402  1
  Na  Na54  1  0.89323118  0.10241645  0.66914751  1
  Na  Na55  1  0.78730727  0.44356012  0.72788716  1
  Na  Na56  1  0.34152064  0.78281070  0.77031717  1
  Na  Na57  1  0.41112964  0.40859591  0.69858420  1
  Na  Na58  1  0.10920852  0.03044762  0.77314477  1
  Na  Na59  1  0.20014980  0.62277656  0.69636033  1
  Na  Na60  1  0.10938773  0.79932014  0.65724260  1
  Na  Na61  1  0.03074194  0.20238534  0.72563966  1
  Na  Na62  1  0.72696155  0.79890376  0.71007202  1
  Na  Na63  1  0.67050155  0.17011050  0.78330866  1
  Na  Na64  1  0.50045167  0.04416976  0.71123084  1
  Na  Na65  1  0.55370679  0.66953823  0.64074059  1
  Na  Na66  1  0.72093262  0.81786238  0.79972102  1
  Na  Na67  1  0.69053848  0.19100606  0.87990387  1
  Na  Na68  1  0.18602663  0.49794356  0.91676896  1
  Na  Na69  1  0.19044281  0.27597366  0.83714184  1
  Na  Na70  1  0.02869876  0.68062667  0.92507693  1
  Na  Na71  1  0.04600966  0.44535653  0.83953189  1
  Na  Na72  1  0.93153278  0.61900977  0.80402703  1
  Na  Na73  1  0.95010357  0.87999951  0.89128824  1
  Na  Na74  1  0.61493743  0.54611621  0.85135966  1
  Na  Na75  1  0.51804285  0.93396044  0.93883008  1
  Na  Na76  1  0.39384709  0.78522460  0.85941668  1
  Na  Na77  1  0.45190320  0.41271238  0.78832401  1
  Na  Na78  1  0.49333914  0.56333229  0.92002264  1
  Na  Na79  1  0.11369458  0.84867091  0.98738010  1
  Na  Na80  1  0.95565229  0.09064779  0.00709308  1
  Na  Na81  1  0.82492225  0.22747266  0.97280323  1
  Na  Na82  1  0.36572568  0.23734196  0.99517243  1
  Na  Na83  1  0.40018399  0.14541298  0.90142525  1
  Zr  Zr84  1  0.01282626  0.64589179  0.08594202  1
  Zr  Zr85  1  0.80077220  0.00415196  0.03849914  1
  Zr  Zr86  1  0.30154385  0.12683227  0.05963676  1
  Zr  Zr87  1  0.35036653  0.76705483  0.11719577  1
  Zr  Zr88  1  0.83846144  0.44532530  0.07011970  1
  Zr  Zr89  1  0.89160188  0.72721591  0.01509412  1
  Zr  Zr90  1  0.49304814  0.34751317  0.04184143  1
  Zr  Zr91  1  0.53739111  0.96743072  0.11066966  1
  Zr  Zr92  1  0.14880601  0.90276173  0.22937307  1
  Zr  Zr93  1  0.08195481  0.27294191  0.15411854  1
  Zr  Zr94  1  0.40280568  0.39671221  0.19134285  1
  Zr  Zr95  1  0.45749172  0.02342920  0.27117525  1
  Zr  Zr96  1  0.94437239  0.70586888  0.23103663  1
  Zr  Zr97  1  0.87728907  0.07955544  0.15528146  1
  Zr  Zr98  1  0.60697622  0.59035544  0.19559344  1
  Zr  Zr99  1  0.66445723  0.21780592  0.27050215  1
  Zr  Zr100  1  0.27001535  0.15780531  0.38666382  1
  Zr  Zr101  1  0.21447088  0.52677106  0.31145212  1
  Zr  Zr102  1  0.52734773  0.65059016  0.34463886  1
  Zr  Zr103  1  0.60373242  0.27065283  0.41929724  1
  Zr  Zr104  1  0.06702145  0.95513782  0.38923714  1
  Zr  Zr105  1  0.99401829  0.33774346  0.30577626  1
  Zr  Zr106  1  0.72408873  0.84529871  0.34708887  1
  Zr  Zr107  1  0.79490725  0.47695694  0.42452124  1
  Zr  Zr108  1  0.32451189  0.78561828  0.44323715  1
  Zr  Zr109  1  0.53848754  0.95243841  0.49017746  1
  Zr  Zr110  1  0.10444867  0.58016175  0.45301060  1
  Zr  Zr111  1  0.75724535  0.17486651  0.48865377  1
  Zr  Zr112  1  0.86280484  0.92917563  0.58604869  1
  Zr  Zr113  1  0.07385671  0.57088911  0.53852680  1
  Zr  Zr114  1  0.57274392  0.44839650  0.55969194  1
  Zr  Zr115  1  0.52418618  0.80819112  0.61732923  1
  Zr  Zr116  1  0.03672627  0.12997116  0.57024525  1
  Zr  Zr117  1  0.98363618  0.84786779  0.51519915  1
  Zr  Zr118  1  0.38226287  0.22774378  0.54194775  1
  Zr  Zr119  1  0.33717378  0.60769454  0.61077656  1
  Zr  Zr120  1  0.72587367  0.67229393  0.72943846  1
  Zr  Zr121  1  0.79345046  0.30224139  0.65423609  1
  Zr  Zr122  1  0.47224218  0.17849335  0.69138655  1
  Zr  Zr123  1  0.41763862  0.55142378  0.77122953  1
  Zr  Zr124  1  0.93029826  0.86936506  0.73113317  1
  Zr  Zr125  1  0.99713909  0.49572953  0.65530739  1
  Zr  Zr126  1  0.26837252  0.98479137  0.69577269  1
  Zr  Zr127  1  0.21066543  0.35715351  0.77045758  1
  Zr  Zr128  1  0.60525387  0.41691158  0.88653834  1
  Zr  Zr129  1  0.66055076  0.04821717  0.81165527  1
  Zr  Zr130  1  0.34775411  0.92423891  0.84472988  1
  Zr  Zr131  1  0.27096287  0.30426345  0.91926198  1
  Zr  Zr132  1  0.80823790  0.61963288  0.88929497  1
  Zr  Zr133  1  0.88156043  0.23694639  0.80577203  1
  Zr  Zr134  1  0.15099301  0.72961708  0.84717616  1
  Zr  Zr135  1  0.07957990  0.09775290  0.92457201  1
  Zr  Zr136  1  0.55017714  0.78931502  0.94333498  1
  Zr  Zr137  1  0.33624627  0.62281417  0.99002446  1
  Zr  Zr138  1  0.77012731  0.99480005  0.95294138  1
  Zr  Zr139  1  0.11826822  0.40007149  0.98859081  1
  Si  Si140  1  0.24007051  0.36436171  0.11563252  1
  Si  Si141  1  0.18087311  0.73540940  0.04294927  1
  Si  Si142  1  0.10098638  0.04507921  0.08089461  1
  Si  Si143  1  0.93272968  0.27868396  0.07114227  1
  Si  Si144  1  0.38274092  0.50898463  0.04792236  1
  Si  Si145  1  0.44441975  0.13240756  0.12323980  1
  Si  Si146  1  0.35333821  0.62239686  0.26951189  1
  Si  Si147  1  0.28938881  0.00004220  0.19238552  1
  Si  Si148  1  0.19814182  0.67654833  0.15823155  1
  Si  Si149  1  0.25620088  0.30148550  0.23076445  1
  Si  Si150  1  0.03600287  0.54358392  0.22887105  1
  Si  Si151  1  0.96992816  0.91899473  0.14994562  1
  Si  Si152  1  0.51664030  0.75394005  0.19629366  1
  Si  Si153  1  0.57060942  0.38152848  0.27196247  1
  Si  Si154  1  0.49994989  0.87337289  0.42078976  1
  Si  Si155  1  0.40905220  0.25314782  0.34552945  1
  Si  Si156  1  0.31976416  0.92340532  0.30731002  1
  Si  Si157  1  0.37092130  0.55992998  0.38447008  1
  Si  Si158  1  0.15917450  0.78863128  0.38006978  1
  Si  Si159  1  0.09305336  0.17253872  0.30545814  1
  Si  Si160  1  0.63488270  0.00447963  0.35268235  1
  Si  Si161  1  0.68303526  0.64657346  0.42618129  1
  Si  Si162  1  0.43598699  0.18272304  0.46290876  1
  Si  Si163  1  0.22812081  0.42376835  0.45209989  1
  Si  Si164  1  0.63504668  0.21099072  0.61567171  1
  Si  Si165  1  0.69419859  0.83986426  0.54318184  1
  Si  Si166  1  0.77337217  0.53015528  0.58095376  1
  Si  Si167  1  0.94241497  0.29662211  0.57131742  1
  Si  Si168  1  0.49272798  0.06642753  0.54801560  1
  Si  Si169  1  0.43007228  0.44271552  0.62329836  1
  Si  Si170  1  0.52208368  0.95240777  0.76967318  1
  Si  Si171  1  0.58523126  0.57502034  0.69244926  1
  Si  Si172  1  0.67722769  0.89839292  0.65826341  1
  Si  Si173  1  0.61913583  0.27366588  0.73081405  1
  Si  Si174  1  0.83904901  0.03148523  0.72903749  1
  Si  Si175  1  0.90407851  0.65644776  0.64997817  1
  Si  Si176  1  0.35821215  0.82134308  0.69645573  1
  Si  Si177  1  0.30481310  0.19321325  0.77198803  1
  Si  Si178  1  0.37590922  0.70125637  0.92077462  1
  Si  Si179  1  0.46648176  0.32142754  0.84541379  1
  Si  Si180  1  0.55540137  0.65132437  0.80740428  1
  Si  Si181  1  0.50334584  0.01525849  0.88449758  1
  Si  Si182  1  0.71576465  0.78640002  0.88017858  1
  Si  Si183  1  0.78244580  0.40224133  0.80542321  1
  Si  Si184  1  0.24019046  0.57026169  0.85268347  1
  Si  Si185  1  0.19174257  0.92800564  0.92619181  1
  Si  Si186  1  0.43938700  0.39207663  0.96273548  1
  Si  Si187  1  0.64630832  0.15119328  0.95207142  1
  P  P188  1  0.73572589  0.59815295  0.11057144  1
  P  P189  1  0.64296962  0.80781626  0.08648555  1
  P  P190  1  0.85067199  0.86170718  0.26306894  1
  P  P191  1  0.78469566  0.23328508  0.18668084  1
  P  P192  1  0.69375905  0.43707305  0.15806409  1
  P  P193  1  0.76047443  0.06479938  0.24095802  1
  P  P194  1  0.96547850  0.11644489  0.41045401  1
  P  P195  1  0.91009010  0.48705024  0.33743773  1
  P  P196  1  0.82804334  0.69068172  0.31495835  1
  P  P197  1  0.88857881  0.32039257  0.39040921  1
  P  P198  1  0.13900357  0.97720751  0.61086282  1
  P  P199  1  0.23223221  0.76723139  0.58659123  1
  P  P200  1  0.02453272  0.71325538  0.76319211  1
  P  P201  1  0.09031338  0.34201505  0.68665523  1
  P  P202  1  0.18167852  0.13794947  0.65815422  1
  P  P203  1  0.11465201  0.51026307  0.74095305  1
  P  P204  1  0.90927620  0.45833891  0.91045240  1
  P  P205  1  0.96532867  0.08775207  0.83750940  1
  P  P206  1  0.04684006  0.88449191  0.81510612  1
  P  P207  1  0.98639373  0.25444244  0.89043658  1
  O  O208  1  0.06450692  0.42409926  0.09594218  1
  O  O209  1  0.02045050  0.78350458  0.01638876  1
  O  O210  1  0.29290240  0.97949509  0.09332200  1
  O  O211  1  0.97377378  0.25437622  0.11104650  1
  O  O212  1  0.31171060  0.54833723  0.01274659  1
  O  O213  1  0.39997328  0.17303587  0.08819458  1
  O  O214  1  0.65849198  0.96231306  0.97935253  1
  O  O215  1  0.78691138  0.74107253  0.10249006  1
  O  O216  1  0.57902165  0.67043195  0.10369068  1
  O  O217  1  0.70885147  0.45649009  0.12220993  1
  O  O218  1  0.69452113  0.81415587  0.05057429  1
  O  O219  1  0.31715338  0.33246563  0.02113388  1
  O  O220  1  0.65380943  0.96763199  0.06987535  1
  O  O221  1  0.91384916  0.59255747  0.10809468  1
  O  O222  1  0.46256627  0.81483568  0.08744899  1
  O  O223  1  0.72977356  0.55390775  0.08325400  1
  O  O224  1  0.62957579  0.86294445  0.10961663  1
  O  O225  1  0.19830112  0.30999559  0.12840079  1
  O  O226  1  0.09934189  0.69349458  0.05727060  1
  O  O227  1  0.14861876  0.08832844  0.05663469  1
  O  O228  1  0.91869799  0.34906782  0.06789109  1
  O  O229  1  0.87171782  0.66124359  0.04232575  1
  O  O230  1  0.37577599  0.44230879  0.05158244  1
  O  O231  1  0.40217383  0.07575104  0.11048284  1
  O  O232  1  0.25281486  0.55617560  0.07883742  1
  O  O233  1  0.97413941  0.91173627  0.03724859  1
  O  O234  1  0.10172618  0.22345838  0.04758284  1
  O  O235  1  0.12945097  0.86310512  0.12513560  1
  O  O236  1  0.92684412  0.44172023  0.02283388  1
  O  O237  1  0.98388105  0.09137697  0.11302245  1
  O  O238  1  0.40975125  0.32839898  0.08978095  1
  O  O239  1  0.36464009  0.68226317  0.02299498  1
  O  O240  1  0.13118128  0.65272607  0.12736294  1
  O  O241  1  0.97876657  0.02451278  0.06068551  1
  O  O242  1  0.49482952  0.08526335  0.02947464  1
  O  O243  1  0.22169318  0.77074177  0.07275820  1
  O  O244  1  0.58622916  0.48548954  0.05408916  1
  O  O245  1  0.63713542  0.10434194  0.13812209  1
  O  O246  1  0.74682155  0.28708885  0.05986316  1
  O  O247  1  0.17586612  0.68772203  0.25325069  1
  O  O248  1  0.09904877  0.06612075  0.18165571  1
  O  O249  1  0.37557097  0.61020509  0.17321299  1
  O  O250  1  0.43738249  0.23529439  0.24574939  1
  O  O251  1  0.07101736  0.52135583  0.26819828  1
  O  O252  1  0.00407992  0.89536738  0.18966085  1
  O  O253  1  0.47718886  0.78104007  0.15731135  1
  O  O254  1  0.53839408  0.40273055  0.23221836  1
  O  O255  1  0.85002154  0.36493443  0.16584046  1
  O  O256  1  0.91863258  0.99365560  0.24782201  1
  O  O257  1  0.69221028  0.93216057  0.25505132  1
  O  O258  1  0.62973405  0.30340860  0.17785418  1
  O  O259  1  0.83406212  0.70999448  0.27800837  1
  O  O260  1  0.76651744  0.08501542  0.20447462  1
  O  O261  1  0.72308258  0.57588767  0.14616539  1
  O  O262  1  0.78106492  0.21400343  0.22372979  1
  O  O263  1  0.02629928  0.85787238  0.25929613  1
  O  O264  1  0.96322199  0.22617159  0.18195887  1
  O  O265  1  0.51608150  0.44376815  0.16344147  1
  O  O266  1  0.58254511  0.07064751  0.24523236  1
  O  O267  1  0.85275231  0.81184076  0.23880586  1
  O  O268  1  0.77423972  0.18581676  0.16226786  1
  O  O269  1  0.70774162  0.48140503  0.18493765  1
  O  O270  1  0.76450555  0.11275769  0.26620379  1
  O  O271  1  0.30690030  0.57095748  0.28411067  1
  O  O272  1  0.25631879  0.94174126  0.20305359  1
  O  O273  1  0.25048442  0.72814615  0.14542397  1
  O  O274  1  0.30070709  0.35481826  0.21774637  1
  O  O275  1  0.03150055  0.61162136  0.22323951  1
  O  O276  1  0.98442402  0.98337610  0.14731916  1
  O  O277  1  0.53170185  0.68354333  0.19915844  1
  O  O278  1  0.57855555  0.31233932  0.27820676  1
  O  O279  1  0.35290046  0.80574180  0.22119315  1
  O  O280  1  0.29802844  0.17498794  0.15268983  1
  O  O281  1  0.19047709  0.48909780  0.20309593  1
  O  O282  1  0.23805338  0.11892147  0.27771954  1
  O  O283  1  0.03912509  0.71743497  0.18562269  1
  O  O284  1  0.10265814  0.33905742  0.25961973  1
  O  O285  1  0.50848665  0.58228233  0.24059575  1
  O  O286  1  0.43348501  0.97172968  0.16174295  1
  O  O287  1  0.26017737  0.89843808  0.27481382  1
  O  O288  1  0.18093456  0.27845802  0.20018329  1
  O  O289  1  0.27217206  0.40094297  0.14674273  1
  O  O290  1  0.36330271  0.02156404  0.22401020  1
  O  O291  1  0.69621393  0.74686915  0.20930300  1
  O  O292  1  0.76138263  0.36758281  0.28230315  1
  O  O293  1  0.85257054  0.55099379  0.21690703  1
  O  O294  1  0.77715086  0.93527417  0.13815140  1
  O  O295  1  0.31292860  0.93335236  0.40456725  1
  O  O296  1  0.22331883  0.31505301  0.33035996  1
  O  O297  1  0.50782030  0.85838475  0.32042031  1
  O  O298  1  0.53352064  0.50876841  0.40988508  1
  O  O299  1  0.20682953  0.74659862  0.41522951  1
  O  O300  1  0.16053525  0.14258103  0.34335375  1
  O  O301  1  0.58205767  0.03003567  0.31348766  1
  O  O302  1  0.61352823  0.67711957  0.38820739  1
  O  O303  1  0.98165788  0.62059874  0.32351103  1
  O  O304  1  0.05063776  0.24998976  0.39698514  1
  O  O305  1  0.81297454  0.18091918  0.39385993  1
  O  O306  1  0.75933162  0.56031456  0.33053940  1
  O  O307  1  0.92940972  0.97208217  0.42818634  1
  O  O308  1  0.88026795  0.33768086  0.35245085  1
  O  O309  1  0.84436516  0.84427006  0.30029754  1
  O  O310  1  0.88162674  0.46330530  0.37050493  1
  O  O311  1  0.13936868  0.11322677  0.40989707  1
  O  O312  1  0.09111954  0.47961904  0.33680137  1
  O  O313  1  0.64622019  0.70018350  0.31924766  1
  O  O314  1  0.71826392  0.32095887  0.39626126  1
  O  O315  1  0.98922788  0.05964413  0.38712624  1
  O  O316  1  0.91240160  0.44350774  0.30791456  1
  O  O317  1  0.83861150  0.73955886  0.33853023  1
  O  O318  1  0.89452077  0.36904612  0.41373084  1
  O  O319  1  0.46826727  0.82549244  0.44471112  1
  O  O320  1  0.38670412  0.19714546  0.36332461  1
  O  O321  1  0.35392470  0.98118235  0.29618645  1
  O  O322  1  0.42048253  0.61044327  0.36877367  1
  O  O323  1  0.19536265  0.84605905  0.39389254  1
  O  O324  1  0.09181047  0.23972794  0.30041655  1
  O  O325  1  0.61092828  0.94219514  0.35789839  1
  O  O326  1  0.71935355  0.57359859  0.42930557  1
  O  O327  1  0.49615982  0.06047051  0.38008960  1
  O  O328  1  0.41196468  0.43383220  0.29661743  1
  O  O329  1  0.29433893  0.74922438  0.34893790  1
  O  O330  1  0.40645688  0.36133603  0.43257932  1
  O  O331  1  0.16705938  0.95369216  0.33596361  1
  O  O332  1  0.19243559  0.60288312  0.40745747  1
  O  O333  1  0.63516459  0.82640407  0.39031234  1
  O  O334  1  0.55710503  0.21292401  0.31557110  1
  O  O335  1  0.37310702  0.14903881  0.43583820  1
  O  O336  1  0.34007835  0.51884670  0.35578068  1
  O  O337  1  0.42672331  0.64966639  0.29817725  1
  O  O338  1  0.48095076  0.28548477  0.37140907  1
  O  O339  1  0.83724558  0.98235783  0.35935935  1
  O  O340  1  0.84896381  0.65252468  0.43679547  1
  O  O341  1  0.95547061  0.82128450  0.37010714  1
  O  O342  1  0.89826622  0.18567244  0.29808554  1
  O  O343  1  0.62833967  0.12631221  0.48018802  1
  O  O344  1  0.21227290  0.40012670  0.48891813  1
  O  O345  1  0.81390171  0.91092591  0.48304419  1
  O  O346  1  0.01467056  0.55571502  0.49374694  1
  O  O347  1  0.91578145  0.10987079  0.44641000  1
  O  O348  1  0.49006807  0.22824669  0.44249998  1
  O  O349  1  0.27800790  0.48016285  0.44790372  1
  O  O350  1  0.74733027  0.24732853  0.46295563  1
  O  O351  1  0.52464062  0.69396524  0.45389712  1
  O  O352  1  0.31746475  0.01766359  0.47468269  1
  O  O353  1  0.29164238  0.22390483  0.49319203  1
  O  O354  1  0.77705913  0.45602363  0.46996441  1
  O  O355  1  0.19004466  0.80920337  0.48379762  1
  O  O356  1  0.58955764  0.90508275  0.44203979  1
  O  O357  1  0.06060874  0.44343357  0.42850178  1
  O  O358  1  0.81014575  0.15138810  0.59583152  1
  O  O359  1  0.85430407  0.79171346  0.51657894  1
  O  O360  1  0.58157999  0.59566485  0.59343887  1
  O  O361  1  0.90159816  0.32105252  0.61120040  1
  O  O362  1  0.56244372  0.02729823  0.51273151  1
  O  O363  1  0.47452086  0.40207412  0.58824084  1
  O  O364  1  0.21601639  0.61271345  0.47940687  1
  O  O365  1  0.08834010  0.83394222  0.60263570  1
  O  O366  1  0.29605947  0.90498214  0.60400714  1
  O  O367  1  0.16621817  0.11844472  0.62235569  1
  O  O368  1  0.18029226  0.76083608  0.55071767  1
  O  O369  1  0.55818830  0.24266206  0.52115169  1
  O  O370  1  0.22073514  0.60745305  0.57001272  1
  O  O371  1  0.96120832  0.98259945  0.60826960  1
  O  O372  1  0.41233307  0.76046775  0.58743085  1
  O  O373  1  0.14512008  0.02144945  0.58356975  1
  O  O374  1  0.24634532  0.71203419  0.60977886  1
  O  O375  1  0.67728544  0.26520215  0.62848176  1
  O  O376  1  0.77616227  0.88163305  0.55742262  1
  O  O377  1  0.72539603  0.48704144  0.55665539  1
  O  O378  1  0.95640592  0.22622454  0.56814324  1
  O  O379  1  0.00435097  0.91363910  0.54245293  1
  O  O380  1  0.50029012  0.13294921  0.55175080  1
  O  O381  1  0.47257363  0.49932656  0.61053137  1
  O  O382  1  0.62314192  0.01894239  0.57880278  1
  O  O383  1  0.90078720  0.66335561  0.53720668  1
  O  O384  1  0.77325045  0.35179091  0.54777226  1
  O  O385  1  0.74453328  0.71202973  0.62510996  1
  O  O386  1  0.94857073  0.13346520  0.52291903  1
  O  O387  1  0.89069948  0.48377955  0.61305379  1
  O  O388  1  0.46518737  0.24714168  0.58984891  1
  O  O389  1  0.51040015  0.89310804  0.52324643  1
  O  O390  1  0.74386412  0.92233320  0.62737804  1
  O  O391  1  0.89568478  0.55070769  0.56076151  1
  O  O392  1  0.37963077  0.48977077  0.52946124  1
  O  O393  1  0.65335739  0.80456180  0.57299496  1
  O  O394  1  0.28924460  0.08999500  0.55433625  1
  O  O395  1  0.23715956  0.47106652  0.63813925  1
  O  O396  1  0.12833119  0.28810286  0.55992971  1
  O  O397  1  0.69931792  0.88703110  0.75337580  1
  O  O398  1  0.77565345  0.50899237  0.68167970  1
  O  O399  1  0.49962004  0.96471589  0.67322059  1
  O  O400  1  0.43822443  0.33980995  0.74588390  1
  O  O401  1  0.80414725  0.05346602  0.76838933  1
  O  O402  1  0.86982928  0.68011154  0.68968435  1
  O  O403  1  0.39758414  0.79417073  0.65747806  1
  O  O404  1  0.33741429  0.17187996  0.73224519  1
  O  O405  1  0.02519735  0.21004593  0.66594607  1
  O  O406  1  0.95626633  0.58139712  0.74779552  1
  O  O407  1  0.18282602  0.64278377  0.75514331  1
  O  O408  1  0.24487989  0.27174004  0.67794654  1
  O  O409  1  0.04005169  0.86565276  0.77809149  1
  O  O410  1  0.10863626  0.48999722  0.70448282  1
  O  O411  1  0.15084015  0.99957670  0.64647241  1
  O  O412  1  0.09407082  0.36139085  0.72368454  1
  O  O413  1  0.84864437  0.71733357  0.75919411  1
  O  O414  1  0.91142365  0.34937107  0.68198673  1
  O  O415  1  0.35930658  0.13137787  0.66336219  1
  O  O416  1  0.29234213  0.50459649  0.74518846  1
  O  O417  1  0.02362141  0.76318190  0.73914866  1
  O  O418  1  0.10126415  0.38932309  0.66223032  1
  O  O419  1  0.16811569  0.09368717  0.68516090  1
  O  O420  1  0.11123130  0.46225993  0.76626356  1
  O  O421  1  0.56909435  0.00357476  0.78445376  1
  O  O422  1  0.61826289  0.63333582  0.70310465  1
  O  O423  1  0.62537934  0.84661972  0.64554815  1
  O  O424  1  0.57368242  0.22064613  0.71769880  1
  O  O425  1  0.84217727  0.96373368  0.72326844  1
  O  O426  1  0.89028658  0.59187629  0.64743839  1
  O  O427  1  0.34437436  0.89149909  0.69930582  1
  O  O428  1  0.29595714  0.26262291  0.77810201  1
  O  O429  1  0.52135047  0.76929012  0.72140409  1
  O  O430  1  0.57653809  0.40008248  0.65271222  1
  O  O431  1  0.68519049  0.08622936  0.70323713  1
  O  O432  1  0.63701664  0.45586362  0.77774220  1
  O  O433  1  0.83624039  0.85762964  0.68568218  1
  O  O434  1  0.77302255  0.23565205  0.75957301  1
  O  O435  1  0.36726283  0.99280868  0.74071164  1
  O  O436  1  0.44095874  0.60327719  0.66185114  1
  O  O437  1  0.61519158  0.67619251  0.77488833  1
  O  O438  1  0.69421970  0.29679491  0.70025036  1
  O  O439  1  0.60323528  0.17424053  0.64676276  1
  O  O440  1  0.51199802  0.55333029  0.72410560  1
  O  O441  1  0.17825262  0.82868298  0.70942291  1
  O  O442  1  0.11435646  0.20684281  0.78231416  1
  O  O443  1  0.02301169  0.02377775  0.71715853  1
  O  O444  1  0.09670498  0.64028229  0.63817421  1
  O  O445  1  0.56274136  0.64112925  0.90459936  1
  O  O446  1  0.65184654  0.25938649  0.83018448  1
  O  O447  1  0.36720800  0.71636548  0.82040583  1
  O  O448  1  0.34114348  0.06599435  0.91007606  1
  O  O449  1  0.66735880  0.82850780  0.91533358  1
  O  O450  1  0.71521219  0.43214235  0.84333081  1
  O  O451  1  0.29311514  0.54467544  0.81349782  1
  O  O452  1  0.26279183  0.89725233  0.88831337  1
  O  O453  1  0.89343933  0.95444820  0.82390849  1
  O  O454  1  0.82436387  0.32479913  0.89702511  1
  O  O455  1  0.06162131  0.39384337  0.89384548  1
  O  O456  1  0.11543560  0.01438778  0.83069666  1
  O  O457  1  0.94609085  0.60260792  0.92820970  1
  O  O458  1  0.99431553  0.23702649  0.85250768  1
  O  O459  1  0.03028320  0.73034582  0.80051374  1
  O  O460  1  0.99407039  0.11155534  0.87053117  1
  O  O461  1  0.73522177  0.46170038  0.90985378  1
  O  O462  1  0.78391987  0.09545355  0.83696997  1
  O  O463  1  0.22890773  0.87476857  0.81934886  1
  O  O464  1  0.15657649  0.25405240  0.89608944  1
  O  O465  1  0.88614444  0.51508236  0.88717785  1
  O  O466  1  0.96335065  0.13107879  0.80791293  1
  O  O467  1  0.03662125  0.83532189  0.83850805  1
  O  O468  1  0.98124138  0.20574155  0.91386168  1
  O  O469  1  0.40804235  0.74885053  0.94480486  1
  O  O470  1  0.48938473  0.37743335  0.86305147  1
  O  O471  1  0.52145477  0.59349562  0.79631764  1
  O  O472  1  0.45398508  0.96476311  0.86869965  1
  O  O473  1  0.68040367  0.72873173  0.89391691  1
  O  O474  1  0.78446187  0.33488771  0.80038209  1
  O  O475  1  0.26335837  0.63272697  0.85795873  1
  O  O476  1  0.15537399  0.00102064  0.92929530  1
  O  O477  1  0.37906142  0.51424965  0.88005332  1
  O  O478  1  0.46363335  0.14112300  0.79667725  1
  O  O479  1  0.58100252  0.82569091  0.84897917  1
  O  O480  1  0.46782130  0.21361839  0.93260020  1
  O  O481  1  0.70804228  0.62114977  0.83604622  1
  O  O482  1  0.68212579  0.97212903  0.90737998  1
  O  O483  1  0.24136096  0.74829575  0.89024797  1
  O  O484  1  0.31793830  0.36180218  0.81556095  1
  O  O485  1  0.50210147  0.42569759  0.93561982  1
  O  O486  1  0.53370327  0.05669240  0.85594663  1
  O  O487  1  0.44755511  0.92528026  0.79817222  1
  O  O488  1  0.39435135  0.28936031  0.87141641  1
  O  O489  1  0.03800684  0.59215302  0.85935909  1
  O  O490  1  0.02543614  0.92220997  0.93664067  1
  O  O491  1  0.91965418  0.75411764  0.87040197  1
  O  O492  1  0.97698949  0.38933923  0.79804910  1
  O  O493  1  0.24716231  0.44864328  0.98000175  1
  O  O494  1  0.66242468  0.17489590  0.98884759  1
  O  O495  1  0.06075500  0.66431123  0.98283903  1
  O  O496  1  0.86018442  0.01912558  0.99367343  1
  O  O497  1  0.95886717  0.46481902  0.94643196  1
  O  O498  1  0.38473341  0.34667379  0.94238170  1
  O  O499  1  0.59630681  0.09481360  0.94796075  1
  O  O500  1  0.12793485  0.32753240  0.96302494  1
  O  O501  1  0.34925331  0.88076453  0.95409326  1
  O  O502  1  0.55670338  0.55743746  0.97439652  1
  O  O503  1  0.58372869  0.35085445  0.99300387  1
  O  O504  1  0.09730587  0.11869807  0.97000932  1
  O  O505  1  0.68423751  0.76593044  0.98392095  1
  O  O506  1  0.28496114  0.66992631  0.94187521  1
  O  O507  1  0.81363583  0.13148644  0.92840010  1
