# generated using pymatgen
data_Na17Zr12Si10(PO13)5
_symmetry_space_group_name_H-M   'P 1'
_cell_length_a   9.15937100
_cell_length_b   16.28925272
_cell_length_c   43.42012909
_cell_angle_alpha   90.00000000
_cell_angle_beta   90.00000000
_cell_angle_gamma   73.67128847
_symmetry_Int_Tables_number   1
_chemical_formula_structural   Na17Zr12Si10(PO13)5
_chemical_formula_sum   'Na68 Zr48 Si40 P20 O260'
_cell_volume   6216.94984447
_cell_formula_units_Z   4
loop_
 _symmetry_equiv_pos_site_id
 _symmetry_equiv_pos_as_xyz
  1  'x, y, z'
loop_
 _atom_site_type_symbol
 _atom_site_label
 _atom_site_symmetry_multiplicity
 _atom_site_fract_x
 _atom_site_fract_y
 _atom_site_fract_z
 _atom_site_occupancy
  Na  Na0  1  0.43153257  0.28532838  0.09049768  1
  Na  Na1  1  0.94439327  0.80433055  0.02734669  1
  Na  Na2  1  0.60203969  0.43336714  0.16256352  1
  Na  Na3  1  0.31635307  0.54370314  0.01417688  1
  Na  Na4  1  0.88963289  0.16995372  0.11278140  1
  Na  Na5  1  0.33266131  0.00917263  0.97085503  1
  Na  Na6  1  0.98802410  0.55770133  0.13306567  1
  Na  Na7  1  0.30006602  0.98108722  0.13386395  1
  Na  Na8  1  0.60711827  0.43397421  0.05927147  1
  Na  Na9  1  0.66667814  0.70781620  0.08759723  1
  Na  Na10  1  0.03828953  0.02826607  0.04516201  1
  Na  Na11  1  0.14316868  0.83784453  0.18368344  1
  Na  Na12  1  0.94894227  0.38861529  0.28369605  1
  Na  Na13  1  0.33757005  0.97072139  0.24657265  1
  Na  Na14  1  0.06436773  0.52684205  0.34388366  1
  Na  Na15  1  0.69608417  0.65106698  0.19420387  1
  Na  Na16  1  0.39014966  0.21932856  0.28943100  1
  Na  Na17  1  0.70992178  0.09237279  0.22047792  1
  Na  Na18  1  0.46214747  0.61632244  0.30884569  1
  Na  Na19  1  0.76889757  0.04013781  0.31551173  1
  Na  Na20  1  0.04779706  0.50620342  0.22730931  1
  Na  Na21  1  0.12134893  0.77098071  0.27273420  1
  Na  Na22  1  0.39880245  0.24105163  0.17866850  1
  Na  Na23  1  0.56238667  0.83362292  0.34061013  1
  Na  Na24  1  0.50447282  0.46035665  0.47229385  1
  Na  Na25  1  0.69238564  0.97058155  0.39547194  1
  Na  Na26  1  0.12785701  0.75249016  0.38350732  1
  Na  Na27  1  0.89170675  0.26606618  0.46169035  1
  Na  Na28  1  0.21460946  0.16581044  0.39370832  1
  Na  Na29  1  0.89890723  0.71581553  0.48598416  1
  Na  Na30  1  0.27123938  0.13490850  0.49170450  1
  Na  Na31  1  0.48596879  0.59198481  0.40789676  1
  Na  Na32  1  0.54934897  0.84972215  0.45601709  1
  Na  Na33  1  0.86202221  0.31892298  0.36085765  1
  Na  Na34  1  0.09359712  0.13969517  0.59046526  1
  Na  Na35  1  0.58137915  0.62041103  0.52750295  1
  Na  Na36  1  0.92306467  0.99137492  0.66261505  1
  Na  Na37  1  0.20898647  0.88136327  0.51412839  1
  Na  Na38  1  0.63570361  0.25503648  0.61272888  1
  Na  Na39  1  0.19240509  0.41605971  0.47086673  1
  Na  Na40  1  0.53774420  0.86726501  0.63303070  1
  Na  Na41  1  0.22483237  0.44414191  0.63376147  1
  Na  Na42  1  0.91791307  0.99031219  0.55911723  1
  Na  Na43  1  0.85836479  0.71781609  0.58757952  1
  Na  Na44  1  0.48657242  0.39661278  0.54518217  1
  Na  Na45  1  0.38119955  0.58681641  0.68376282  1
  Na  Na46  1  0.57643301  0.03654925  0.78342737  1
  Na  Na47  1  0.18771521  0.45410627  0.74654243  1
  Na  Na48  1  0.46064650  0.89799841  0.84379232  1
  Na  Na49  1  0.82927336  0.77388868  0.69414452  1
  Na  Na50  1  0.13253763  0.20757702  0.78894921  1
  Na  Na51  1  0.81485128  0.33293219  0.72025766  1
  Na  Na52  1  0.06264110  0.80851544  0.80879516  1
  Na  Na53  1  0.75540515  0.38549043  0.81559552  1
  Na  Na54  1  0.47736776  0.91851689  0.72720800  1
  Na  Na55  1  0.40360171  0.65411293  0.77270709  1
  Na  Na56  1  0.12609236  0.18367073  0.67849525  1
  Na  Na57  1  0.96246388  0.59171170  0.84059269  1
  Na  Na58  1  0.02051027  0.96475154  0.97229243  1
  Na  Na59  1  0.83308058  0.45459863  0.89522063  1
  Na  Na60  1  0.39765806  0.67218988  0.88346875  1
  Na  Na61  1  0.63257115  0.15892332  0.96163996  1
  Na  Na62  1  0.30943110  0.25928658  0.89357319  1
  Na  Na63  1  0.62669110  0.70886608  0.98609611  1
  Na  Na64  1  0.25247441  0.29100737  0.99170872  1
  Na  Na65  1  0.03926779  0.83300471  0.90787471  1
  Na  Na66  1  0.97628044  0.57485204  0.95599026  1
  Na  Na67  1  0.66262134  0.10599515  0.86078595  1
  Zr  Zr68  1  0.68562624  0.98242863  0.01134660  1
  Zr  Zr69  1  0.37336909  0.55657443  0.10265406  1
  Zr  Zr70  1  0.88334976  0.55680169  0.04423771  1
  Zr  Zr71  1  0.59092075  0.10425088  0.12617358  1
  Zr  Zr72  1  0.26775713  0.82071719  0.09408836  1
  Zr  Zr73  1  0.56789725  0.33262785  0.00480755  1
  Zr  Zr74  1  0.74477331  0.81164922  0.14517284  1
  Zr  Zr75  1  0.98966388  0.29570606  0.05977385  1
  Zr  Zr76  1  0.11252999  0.08129630  0.19018132  1
  Zr  Zr77  1  0.84816605  0.61890309  0.28192656  1
  Zr  Zr78  1  0.32295709  0.64804715  0.22175113  1
  Zr  Zr79  1  0.04684499  0.19105435  0.30628161  1
  Zr  Zr80  1  0.69822443  0.91716939  0.26225414  1
  Zr  Zr81  1  0.97526322  0.37862828  0.17615295  1
  Zr  Zr82  1  0.19804197  0.89079126  0.32714579  1
  Zr  Zr83  1  0.47427811  0.34979805  0.23603533  1
  Zr  Zr84  1  0.57489130  0.16519781  0.36740537  1
  Zr  Zr85  1  0.29741939  0.71971313  0.46501156  1
  Zr  Zr86  1  0.77772066  0.72804592  0.39958870  1
  Zr  Zr87  1  0.53123680  0.24302422  0.48979086  1
  Zr  Zr88  1  0.14789666  0.01300799  0.43546973  1
  Zr  Zr89  1  0.43203619  0.45317209  0.35725258  1
  Zr  Zr90  1  0.72711057  0.98289459  0.49181193  1
  Zr  Zr91  1  0.91177038  0.43472047  0.42101660  1
  Zr  Zr92  1  0.83962420  0.44246671  0.51134597  1
  Zr  Zr93  1  0.15158384  0.86859737  0.60256589  1
  Zr  Zr94  1  0.64152992  0.86846475  0.54420935  1
  Zr  Zr95  1  0.93425062  0.32099220  0.62610471  1
  Zr  Zr96  1  0.25725662  0.60458890  0.59397530  1
  Zr  Zr97  1  0.95683999  0.09238124  0.50482899  1
  Zr  Zr98  1  0.78054308  0.61346957  0.64508362  1
  Zr  Zr99  1  0.53575742  0.12936581  0.55967355  1
  Zr  Zr100  1  0.41261379  0.34372387  0.69006316  1
  Zr  Zr101  1  0.67710765  0.80593753  0.78188380  1
  Zr  Zr102  1  0.20267120  0.77672416  0.72162990  1
  Zr  Zr103  1  0.47773418  0.23383106  0.80618586  1
  Zr  Zr104  1  0.82702064  0.50759785  0.76221422  1
  Zr  Zr105  1  0.54952157  0.04653795  0.67606685  1
  Zr  Zr106  1  0.32661640  0.53418369  0.82699295  1
  Zr  Zr107  1  0.05085873  0.07496558  0.73601262  1
  Zr  Zr108  1  0.94958078  0.25977927  0.86738432  1
  Zr  Zr109  1  0.22783591  0.70528604  0.96500371  1
  Zr  Zr110  1  0.74711916  0.69671817  0.89960797  1
  Zr  Zr111  1  0.99342071  0.18206478  0.98984408  1
  Zr  Zr112  1  0.37668019  0.41194818  0.93533674  1
  Zr  Zr113  1  0.09269158  0.97192683  0.85722292  1
  Zr  Zr114  1  0.79795466  0.44200552  0.99189665  1
  Zr  Zr115  1  0.61332049  0.98999617  0.92091948  1
  Si  Si116  1  0.43399345  0.72727498  0.14807493  1
  Si  Si117  1  0.70319651  0.17701496  0.05144309  1
  Si  Si118  1  0.53082320  0.93164090  0.08365187  1
  Si  Si119  1  0.46328896  0.66909720  0.03986069  1
  Si  Si120  1  0.18804492  0.20671174  0.12912711  1
  Si  Si121  1  0.78257435  0.45562011  0.10771506  1
  Si  Si122  1  0.89233474  0.79409612  0.32364247  1
  Si  Si123  1  0.16653149  0.25941398  0.23410225  1
  Si  Si124  1  0.00877438  0.00882828  0.26416124  1
  Si  Si125  1  0.27462871  0.47770769  0.17689373  1
  Si  Si126  1  0.92178406  0.73737186  0.21935189  1
  Si  Si127  1  0.65630363  0.28385803  0.30886212  1
  Si  Si128  1  0.52048467  0.98992015  0.18817884  1
  Si  Si129  1  0.24873369  0.52341063  0.28182115  1
  Si  Si130  1  0.63695643  0.32777195  0.41622322  1
  Si  Si131  1  0.47244906  0.09652458  0.43854126  1
  Si  Si132  1  0.73193503  0.55411775  0.35760553  1
  Si  Si133  1  0.38507118  0.82173819  0.40078816  1
  Si  Si134  1  0.96810371  0.07579147  0.36618785  1
  Si  Si135  1  0.69604118  0.60740208  0.46106853  1
  Si  Si136  1  0.09147843  0.69773864  0.64791747  1
  Si  Si137  1  0.82244033  0.24797051  0.55141944  1
  Si  Si138  1  0.99398100  0.49383185  0.58358016  1
  Si  Si139  1  0.06172025  0.75606210  0.53974306  1
  Si  Si140  1  0.33710212  0.21844811  0.62897208  1
  Si  Si141  1  0.74251565  0.96974438  0.60771322  1
  Si  Si142  1  0.63282604  0.63051548  0.82360865  1
  Si  Si143  1  0.35810329  0.16553858  0.73398468  1
  Si  Si144  1  0.51615815  0.41606276  0.76400830  1
  Si  Si145  1  0.25069732  0.94697684  0.67682190  1
  Si  Si146  1  0.60366621  0.68739859  0.71929927  1
  Si  Si147  1  0.86880601  0.14130259  0.80884947  1
  Si  Si148  1  0.00498090  0.43519403  0.68808239  1
  Si  Si149  1  0.27616573  0.90121692  0.78175034  1
  Si  Si150  1  0.88758632  0.09737904  0.91624642  1
  Si  Si151  1  0.05186683  0.32863514  0.93848329  1
  Si  Si152  1  0.79323727  0.87063658  0.85756470  1
  Si  Si153  1  0.13996345  0.60339736  0.90072806  1
  Si  Si154  1  0.55643895  0.34913420  0.86605517  1
  Si  Si155  1  0.82902021  0.81736593  0.96096558  1
  P  P156  1  0.96690286  0.95658403  0.13431866  1
  P  P157  1  0.24066353  0.42189167  0.05430550  1
  P  P158  1  0.01453892  0.69518317  0.08829532  1
  P  P159  1  0.42261468  0.03693037  0.31624343  1
  P  P160  1  0.69553917  0.49677546  0.23085931  1
  P  P161  1  0.47471914  0.77091921  0.27302033  1
  P  P162  1  0.74599548  0.22956128  0.18005742  1
  P  P163  1  0.15189718  0.57158512  0.41388377  1
  P  P164  1  0.94712631  0.85870826  0.43982047  1
  P  P165  1  0.19711598  0.31694544  0.36067842  1
  P  P166  1  0.55805585  0.46865497  0.63424579  1
  P  P167  1  0.28439447  0.00314762  0.55424754  1
  P  P168  1  0.51052834  0.73016045  0.58832649  1
  P  P169  1  0.10199599  0.38818168  0.81625082  1
  P  P170  1  0.82976299  0.92812622  0.73077557  1
  P  P171  1  0.05047377  0.65387544  0.77287824  1
  P  P172  1  0.77921804  0.19546645  0.67998119  1
  P  P173  1  0.37287806  0.85340196  0.91383559  1
  P  P174  1  0.57774619  0.56593448  0.93995823  1
  P  P175  1  0.32752636  0.10789766  0.86064948  1
  O  O176  1  0.32413728  0.82457878  0.13934266  1
  O  O177  1  0.58676798  0.27453486  0.04655244  1
  O  O178  1  0.64791201  0.85079012  0.10157064  1
  O  O179  1  0.41307037  0.59139252  0.05773224  1
  O  O180  1  0.14952686  0.12501634  0.14603963  1
  O  O181  1  0.84331254  0.52772266  0.08936021  1
  O  O182  1  0.13697600  0.61346486  0.09834121  1
  O  O183  1  0.57750115  0.02507907  0.96737245  1
  O  O184  1  0.82979231  0.03385846  0.12687225  1
  O  O185  1  0.12121021  0.50747609  0.04829431  1
  O  O186  1  0.08630564  0.76856745  0.08024523  1
  O  O187  1  0.91615972  0.87725755  0.14427036  1
  O  O188  1  0.17234160  0.35323372  0.06788892  1
  O  O189  1  0.05897674  0.97824234  0.16185689  1
  O  O190  1  0.35739945  0.43722332  0.07843359  1
  O  O191  1  0.92950011  0.67790887  0.05884633  1
  O  O192  1  0.66794448  0.21304285  0.14972563  1
  O  O193  1  0.07307225  0.93396417  0.10554745  1
  O  O194  1  0.32437366  0.39076644  0.02340619  1
  O  O195  1  0.90101687  0.71608588  0.11541705  1
  O  O196  1  0.08726828  0.24913484  0.02064583  1
  O  O197  1  0.38604193  0.67588777  0.11843380  1
  O  O198  1  0.67314861  0.11511964  0.02349563  1
  O  O199  1  0.51340374  0.01574252  0.10636208  1
  O  O200  1  0.86940812  0.42023212  0.03710862  1
  O  O201  1  0.41396795  0.75404703  0.06257344  1
  O  O202  1  0.12773042  0.29045806  0.15214674  1
  O  O203  1  0.59590131  0.90431404  0.16754743  1
  O  O204  1  0.82115495  0.36106197  0.09194421  1
  O  O205  1  0.89795760  0.95138279  0.01766828  1
  O  O206  1  0.59503860  0.49174883  0.10947299  1
  O  O207  1  0.65324113  0.63787743  0.03812792  1
  O  O208  1  0.37362765  0.19278037  0.12589275  1
  O  O209  1  0.35756395  0.91754675  0.08319602  1
  O  O210  1  0.57708020  0.45119116  0.00583595  1
  O  O211  1  0.61473391  0.72150250  0.14622742  1
  O  O212  1  0.88023387  0.18481877  0.05154055  1
  O  O213  1  0.58479227  0.95009285  0.04910323  1
  O  O214  1  0.33114280  0.50608707  0.14393546  1
  O  O215  1  0.65715165  0.15286075  0.08636659  1
  O  O216  1  0.84590447  0.45324090  0.14264865  1
  O  O217  1  0.38116049  0.69455329  0.00613260  1
  O  O218  1  0.09872850  0.22052785  0.09607054  1
  O  O219  1  0.76943245  0.87690720  0.30756160  1
  O  O220  1  0.05074879  0.34816716  0.22065124  1
  O  O221  1  0.12666617  0.92715485  0.28165988  1
  O  O222  1  0.40189747  0.39322026  0.19012816  1
  O  O223  1  0.88911765  0.65305948  0.23605332  1
  O  O224  1  0.63450475  0.19450774  0.32326444  1
  O  O225  1  0.55897717  0.07296018  0.17213091  1
  O  O226  1  0.27920411  0.60987404  0.26634289  1
  O  O227  1  0.61364011  0.69263238  0.27944196  1
  O  O228  1  0.87633999  0.14827363  0.18808011  1
  O  O229  1  0.28279392  0.11628158  0.31177859  1
  O  O230  1  0.55885830  0.57695305  0.22511105  1
  O  O231  1  0.52669576  0.85026715  0.26471071  1
  O  O232  1  0.80768546  0.30802769  0.17533863  1
  O  O233  1  0.36978921  0.95768153  0.32514963  1
  O  O234  1  0.63941601  0.41716093  0.23488838  1
  O  O235  1  0.52848431  0.05418302  0.34151883  1
  O  O236  1  0.78435834  0.51069211  0.26001858  1
  O  O237  1  0.37636678  0.75277437  0.24650581  1
  O  O238  1  0.10165924  0.30281240  0.33247825  1
  O  O239  1  0.51178298  0.01980916  0.28524456  1
  O  O240  1  0.80066989  0.48684578  0.20233286  1
  O  O241  1  0.37902349  0.78601718  0.30326407  1
  O  O242  1  0.63147166  0.24483672  0.20723702  1
  O  O243  1  0.92353288  0.71262109  0.29966437  1
  O  O244  1  0.15984382  0.17701973  0.21309902  1
  O  O245  1  0.99401965  0.09688410  0.28408791  1
  O  O246  1  0.25552111  0.55543434  0.20190349  1
  O  O247  1  0.84460127  0.82269464  0.24046735  1
  O  O248  1  0.58252104  0.36074045  0.33400566  1
  O  O249  1  0.04577911  0.99008296  0.34577042  1
  O  O250  1  0.31784221  0.44162494  0.25870206  1
  O  O251  1  0.33554911  0.00368303  0.19024778  1
  O  O252  1  0.06384972  0.53181735  0.28420671  1
  O  O253  1  0.10453116  0.73222095  0.21873536  1
  O  O254  1  0.83526117  0.28150856  0.30414266  1
  O  O255  1  0.83423841  0.99954302  0.26251072  1
  O  O256  1  0.10445714  0.46457915  0.17377222  1
  O  O257  1  0.05967382  0.81078456  0.32896166  1
  O  O258  1  0.34293377  0.26510619  0.23346821  1
  O  O259  1  0.07502174  0.01696083  0.22966032  1
  O  O260  1  0.79697416  0.57115580  0.32362432  1
  O  O261  1  0.38801468  0.69932828  0.18166108  1
  O  O262  1  0.12322345  0.25023489  0.27022175  1
  O  O263  1  0.58812044  0.97957660  0.22342333  1
  O  O264  1  0.32117264  0.51476352  0.31662563  1
  O  O265  1  0.84971670  0.74623268  0.18464653  1
  O  O266  1  0.56463149  0.29574115  0.27628715  1
  O  O267  1  0.51217341  0.41235260  0.40165367  1
  O  O268  1  0.61928699  0.02285534  0.45137385  1
  O  O269  1  0.85968284  0.47620191  0.37431980  1
  O  O270  1  0.36527233  0.73524344  0.41716715  1
  O  O271  1  0.98628108  0.16221413  0.34964630  1
  O  O272  1  0.73462918  0.69198026  0.44503622  1
  O  O273  1  0.08897640  0.78294755  0.44269683  1
  O  O274  1  0.34348221  0.23963918  0.36203972  1
  O  O275  1  0.73738659  0.12738174  0.49354794  1
  O  O276  1  0.01080579  0.64707615  0.40416856  1
  O  O277  1  0.98366568  0.94581007  0.43650266  1
  O  O278  1  0.24576396  0.39924416  0.35560363  1
  O  O279  1  0.09491765  0.49270903  0.42296990  1
  O  O280  1  0.24036332  0.59328461  0.44143811  1
  O  O281  1  0.86233830  0.84184667  0.41049187  1
  O  O282  1  0.04586570  0.11674675  0.46598573  1
  O  O283  1  0.25528795  0.55297067  0.38452429  1
  O  O284  1  0.84400936  0.86365589  0.46797572  1
  O  O285  1  0.10531120  0.32125685  0.39092597  1
  O  O286  1  0.36131217  0.81028436  0.47906106  1
  O  O287  1  0.63708040  0.24714494  0.39369027  1
  O  O288  1  0.43379878  0.18881605  0.45626506  1
  O  O289  1  0.69999244  0.64071756  0.37889904  1
  O  O290  1  0.30275124  0.90780207  0.42063263  1
  O  O291  1  0.72962661  0.52938277  0.43488051  1
  O  O292  1  0.79142603  0.07626766  0.37130952  1
  O  O293  1  0.51320774  0.62687463  0.47013893  1
  O  O294  1  0.56713775  0.81929047  0.39810269  1
  O  O295  1  0.40233179  0.35555889  0.49883117  1
  O  O296  1  0.32133587  0.06375706  0.44349808  1
  O  O297  1  0.56313701  0.53755838  0.35454297  1
  O  O298  1  0.61743818  0.89202678  0.50052365  1
  O  O299  1  0.80993747  0.34076605  0.41347276  1
  O  O300  1  0.49252889  0.10398773  0.40164014  1
  O  O301  1  0.82411367  0.77009666  0.35591583  1
  O  O302  1  0.62188819  0.30753968  0.45280722  1
  O  O303  1  0.06596871  0.07375184  0.39810019  1
  O  O304  1  0.80139782  0.57527148  0.49168660  1
  O  O305  1  0.30971100  0.83049746  0.36606753  1
  O  O306  1  0.20110477  0.60043836  0.63923599  1
  O  O307  1  0.93866019  0.15042551  0.54655990  1
  O  O308  1  0.87673360  0.57484061  0.60139689  1
  O  O309  1  0.11188127  0.83376483  0.55764444  1
  O  O310  1  0.37559798  0.30014038  0.64590052  1
  O  O311  1  0.68177050  0.89763518  0.58934189  1
  O  O312  1  0.38804440  0.81194691  0.59830671  1
  O  O313  1  0.94797029  0.39955128  0.46741437  1
  O  O314  1  0.69509292  0.39125141  0.62684437  1
  O  O315  1  0.40347811  0.91743663  0.54818614  1
  O  O316  1  0.43873338  0.65685013  0.58020761  1
  O  O317  1  0.60916516  0.54782974  0.64423937  1
  O  O318  1  0.35348304  0.07143087  0.56786609  1
  O  O319  1  0.46562220  0.44697279  0.66173332  1
  O  O320  1  0.16750200  0.98792558  0.57836900  1
  O  O321  1  0.59597497  0.74734217  0.55891963  1
  O  O322  1  0.85761908  0.21200605  0.64969360  1
  O  O323  1  0.45204304  0.49148910  0.60545675  1
  O  O324  1  0.20064616  0.03452039  0.52337820  1
  O  O325  1  0.62376360  0.70929767  0.61550332  1
  O  O326  1  0.43764716  0.17585736  0.52060364  1
  O  O327  1  0.13930958  0.74895297  0.61819876  1
  O  O328  1  0.85285445  0.30974126  0.52347015  1
  O  O329  1  0.01101192  0.40979450  0.60631019  1
  O  O330  1  0.65620693  0.00471116  0.53706763  1
  O  O331  1  0.11093763  0.67104479  0.56241204  1
  O  O332  1  0.39726807  0.13470945  0.65200901  1
  O  O333  1  0.92981329  0.52064278  0.66735819  1
  O  O334  1  0.70405527  0.06425948  0.59193187  1
  O  O335  1  0.62731462  0.47325404  0.51769762  1
  O  O336  1  0.93002511  0.93338488  0.60943968  1
  O  O337  1  0.87174344  0.78753376  0.53800055  1
  O  O338  1  0.15155703  0.23241589  0.62571161  1
  O  O339  1  0.16733422  0.50772812  0.58314550  1
  O  O340  1  0.94827056  0.97362289  0.50565836  1
  O  O341  1  0.91068334  0.70358099  0.64612516  1
  O  O342  1  0.64527866  0.24025515  0.55147258  1
  O  O343  1  0.94029059  0.47524845  0.54902575  1
  O  O344  1  0.19321955  0.91855150  0.64397342  1
  O  O345  1  0.86819972  0.27227256  0.58632345  1
  O  O346  1  0.67948268  0.97195835  0.64266293  1
  O  O347  1  0.14398950  0.73052200  0.50604198  1
  O  O348  1  0.42643421  0.20461369  0.59591690  1
  O  O349  1  0.75602691  0.54782523  0.80755456  1
  O  O350  1  0.47381026  0.07669764  0.72056093  1
  O  O351  1  0.39814108  0.49773701  0.78149301  1
  O  O352  1  0.12337432  0.03130910  0.69015420  1
  O  O353  1  0.63630404  0.77172158  0.73600978  1
  O  O354  1  0.89057394  0.23080220  0.82315647  1
  O  O355  1  0.96695338  0.35199142  0.67204714  1
  O  O356  1  0.24578719  0.81466656  0.76631133  1
  O  O357  1  0.91157690  0.73215832  0.77926375  1
  O  O358  1  0.64888408  0.27683238  0.68796070  1
  O  O359  1  0.24213296  0.30887822  0.81199909  1
  O  O360  1  0.96680839  0.84815630  0.72494627  1
  O  O361  1  0.99863795  0.57436698  0.76473870  1
  O  O362  1  0.71714628  0.11716925  0.67520340  1
  O  O363  1  0.15432403  0.46774780  0.82491945  1
  O  O364  1  0.88521655  0.00799867  0.73478402  1
  O  O365  1  0.99585440  0.37139478  0.84155517  1
  O  O366  1  0.74140604  0.91397569  0.75997558  1
  O  O367  1  0.14850319  0.67184957  0.74626980  1
  O  O368  1  0.42278228  0.12229419  0.83246140  1
  O  O369  1  0.01351675  0.40448336  0.78514386  1
  O  O370  1  0.72421190  0.93802182  0.70230670  1
  O  O371  1  0.14628981  0.63914285  0.80311404  1
  O  O372  1  0.89357751  0.18006298  0.70718863  1
  O  O373  1  0.60226733  0.71216410  0.79972825  1
  O  O374  1  0.36539007  0.24790995  0.71300602  1
  O  O375  1  0.52974105  0.32802587  0.78384042  1
  O  O376  1  0.27118660  0.86906190  0.70181959  1
  O  O377  1  0.68060446  0.60209297  0.74046294  1
  O  O378  1  0.94208861  0.06460809  0.83409199  1
  O  O379  1  0.47862422  0.43476489  0.84560402  1
  O  O380  1  0.20750573  0.98275445  0.75848300  1
  O  O381  1  0.18987305  0.42147240  0.69023161  1
  O  O382  1  0.46111538  0.89266521  0.78419212  1
  O  O383  1  0.42094558  0.69247247  0.71864695  1
  O  O384  1  0.68984930  0.14367563  0.80403086  1
  O  O385  1  0.69080802  0.42529672  0.76255075  1
  O  O386  1  0.42043319  0.96059482  0.67353055  1
  O  O387  1  0.46534899  0.61389872  0.82872646  1
  O  O388  1  0.18167160  0.15999843  0.73334953  1
  O  O389  1  0.45042203  0.40834810  0.72942757  1
  O  O390  1  0.72875107  0.85345909  0.82354323  1
  O  O391  1  0.13745480  0.72590363  0.68146836  1
  O  O392  1  0.40134748  0.17468937  0.77011651  1
  O  O393  1  0.93692053  0.44557627  0.72329694  1
  O  O394  1  0.20321245  0.91030807  0.81651148  1
  O  O395  1  0.67595279  0.67864439  0.68461759  1
  O  O396  1  0.96096237  0.12904236  0.77631309  1
  O  O397  1  0.01270347  0.01302073  0.90159637  1
  O  O398  1  0.90517833  0.40243424  0.95133169  1
  O  O399  1  0.66518954  0.94858307  0.87419755  1
  O  O400  1  0.15980852  0.68984972  0.91712391  1
  O  O401  1  0.53903615  0.26260343  0.84949964  1
  O  O402  1  0.79054589  0.73262149  0.94504833  1
  O  O403  1  0.43600303  0.64183332  0.94269534  1
  O  O404  1  0.18082568  0.18501052  0.86210460  1
  O  O405  1  0.78738843  0.29752809  0.99351384  1
  O  O406  1  0.51400764  0.77783527  0.90416075  1
  O  O407  1  0.54113077  0.47887638  0.93655048  1
  O  O408  1  0.27925568  0.02547941  0.85554925  1
  O  O409  1  0.43001371  0.93218118  0.92295956  1
  O  O410  1  0.28418095  0.83170298  0.94134735  1
  O  O411  1  0.66339845  0.58270842  0.91074095  1
  O  O412  1  0.47832415  0.30850445  0.96596634  1
  O  O413  1  0.26956124  0.87202250  0.88446956  1
  O  O414  1  0.67985460  0.56106813  0.96825179  1
  O  O415  1  0.41956016  0.10350371  0.89087635  1
  O  O416  1  0.16412060  0.61462257  0.97903047  1
  O  O417  1  0.88706992  0.17821567  0.89377707  1
  O  O418  1  0.09022435  0.23643423  0.95626886  1
  O  O419  1  0.82476995  0.78391633  0.87878172  1
  O  O420  1  0.22203826  0.51733335  0.92059205  1
  O  O421  1  0.79528092  0.89511815  0.93466220  1
  O  O422  1  0.73297650  0.34889653  0.87123824  1
  O  O423  1  0.01183270  0.79805094  0.97004977  1
  O  O424  1  0.95794669  0.60576545  0.89800311  1
  O  O425  1  0.12253878  0.06948544  0.99880456  1
  O  O426  1  0.20296889  0.36142476  0.94341869  1
  O  O427  1  0.96188516  0.88733672  0.85452849  1
  O  O428  1  0.90713442  0.53326198  0.00054984  1
  O  O429  1  0.71490069  0.08403765  0.91341050  1
  O  O430  1  0.03202188  0.32108799  0.90156866  1
  O  O431  1  0.70000515  0.65419964  0.85604737  1
  O  O432  1  0.90234667  0.11752238  0.95284482  1
  O  O433  1  0.45814319  0.35117489  0.89792497  1
  O  O434  1  0.72363432  0.84969897  0.99157858  1
  O  O435  1  0.21549756  0.59443452  0.86600987  1
