# generated using pymatgen
data_Na17Zr11Si10P5O63
_symmetry_space_group_name_H-M   'P 1'
_cell_length_a   9.15937100
_cell_length_b   16.28925272
_cell_length_c   41.58975427
_cell_angle_alpha   90.00000000
_cell_angle_beta   90.00000000
_cell_angle_gamma   73.67128847
_symmetry_Int_Tables_number   1
_chemical_formula_structural   Na17Zr11Si10P5O63
_chemical_formula_sum   'Na68 Zr44 Si40 P20 O252'
_cell_volume   5954.87442658
_cell_formula_units_Z   4
loop_
 _symmetry_equiv_pos_site_id
 _symmetry_equiv_pos_as_xyz
  1  'x, y, z'
loop_
 _atom_site_type_symbol
 _atom_site_label
 _atom_site_symmetry_multiplicity
 _atom_site_fract_x
 _atom_site_fract_y
 _atom_site_fract_z
 _atom_site_occupancy
  Na  Na0  1  0.18042513  0.79197140  0.17614988  1
  Na  Na1  1  0.39407280  0.18222332  0.00640324  1
  Na  Na2  1  0.93991383  0.86228263  0.04758712  1
  Na  Na3  1  0.61231226  0.33398458  0.11536714  1
  Na  Na4  1  0.01898003  0.70276035  0.00507213  1
  Na  Na5  1  0.94921508  0.13128477  0.10902348  1
  Na  Na6  1  0.51874788  0.83204130  0.02243809  1
  Na  Na7  1  0.15686708  0.44647360  0.10894672  1
  Na  Na8  1  0.33625647  0.94951718  0.12968394  1
  Na  Na9  1  0.60500572  0.41125782  0.02748783  1
  Na  Na10  1  0.74295294  0.65081706  0.08615414  1
  Na  Na11  1  0.05357034  0.06460935  0.03638388  1
  Na  Na12  1  0.78234192  0.89239773  0.38591100  1
  Na  Na13  1  0.90594366  0.31020279  0.26232681  1
  Na  Na14  1  0.37376670  0.89531801  0.23753934  1
  Na  Na15  1  0.09063809  0.41661176  0.32633598  1
  Na  Na16  1  0.84266637  0.57469806  0.17137557  1
  Na  Na17  1  0.49004551  0.15749011  0.28210989  1
  Na  Na18  1  0.77995279  0.05113868  0.21790942  1
  Na  Na19  1  0.50872910  0.59371800  0.31060786  1
  Na  Na20  1  0.83246849  0.01337658  0.31875053  1
  Na  Na21  1  0.11286709  0.46680614  0.22647152  1
  Na  Na22  1  0.17474298  0.73251986  0.27510846  1
  Na  Na23  1  0.42093724  0.21946162  0.17708630  1
  Na  Na24  1  0.36262796  0.37515043  0.46197620  1
  Na  Na25  1  0.87314978  0.04060607  0.43988217  1
  Na  Na26  1  0.20261025  0.69261869  0.37908910  1
  Na  Na27  1  0.76956392  0.36204257  0.47961983  1
  Na  Na28  1  0.35798879  0.99882685  0.38302757  1
  Na  Na29  1  0.05403046  0.61792904  0.48125724  1
  Na  Na30  1  0.25058343  0.18089616  0.43778064  1
  Na  Na31  1  0.53144505  0.55566036  0.41377236  1
  Na  Na32  1  0.65299013  0.83501703  0.45910479  1
  Na  Na33  1  0.93431294  0.25370451  0.36888834  1
  Na  Na34  1  0.64303189  0.90760808  0.67639026  1
  Na  Na35  1  0.43105927  0.51754500  0.50660392  1
  Na  Na36  1  0.88545170  0.83801236  0.54747998  1
  Na  Na37  1  0.21242828  0.36563060  0.61568461  1
  Na  Na38  1  0.80457504  0.99763666  0.50512423  1
  Na  Na39  1  0.87600851  0.56878074  0.60907748  1
  Na  Na40  1  0.30645084  0.86785398  0.52239283  1
  Na  Na41  1  0.66796744  0.25342452  0.60891156  1
  Na  Na42  1  0.48913460  0.75028969  0.62960211  1
  Na  Na43  1  0.22010847  0.28945964  0.52757711  1
  Na  Na44  1  0.08194884  0.04871844  0.58598171  1
  Na  Na45  1  0.77137589  0.63542624  0.53646185  1
  Na  Na46  1  0.04208101  0.80751570  0.88578457  1
  Na  Na47  1  0.91822325  0.38933692  0.76239985  1
  Na  Na48  1  0.45109729  0.80433558  0.73762728  1
  Na  Na49  1  0.73392056  0.28277124  0.82667706  1
  Na  Na50  1  0.98061570  0.12554680  0.67105424  1
  Na  Na51  1  0.33558208  0.54170307  0.78218334  1
  Na  Na52  1  0.04537638  0.64893902  0.71781197  1
  Na  Na53  1  0.31723623  0.10585528  0.81082089  1
  Na  Na54  1  0.99259982  0.68645718  0.81861459  1
  Na  Na55  1  0.71238425  0.23316875  0.72649554  1
  Na  Na56  1  0.65084229  0.96726015  0.77505078  1
  Na  Na57  1  0.40429545  0.47992158  0.67696284  1
  Na  Na58  1  0.46198262  0.32513182  0.96198156  1
  Na  Na59  1  0.95198782  0.65921264  0.93979354  1
  Na  Na60  1  0.62431538  0.00661155  0.87936244  1
  Na  Na61  1  0.05650900  0.33799444  0.97975007  1
  Na  Na62  1  0.46646690  0.70143784  0.88297455  1
  Na  Na63  1  0.77133696  0.08183617  0.98115792  1
  Na  Na64  1  0.57340505  0.51955967  0.93768151  1
  Na  Na65  1  0.29435962  0.14400582  0.91374031  1
  Na  Na66  1  0.17226543  0.86487434  0.95918715  1
  Na  Na67  1  0.89062153  0.44663679  0.86889575  1
  Zr  Zr68  1  0.66041895  0.03220139  0.04617608  1
  Zr  Zr69  1  0.42842648  0.52986898  0.08951266  1
  Zr  Zr70  1  0.93295617  0.51654363  0.02911540  1
  Zr  Zr71  1  0.63342204  0.08097384  0.12630419  1
  Zr  Zr72  1  0.32305137  0.78445270  0.08819426  1
  Zr  Zr73  1  0.01464253  0.35523576  0.17106490  1
  Zr  Zr74  1  0.79785883  0.77496217  0.14536400  1
  Zr  Zr75  1  0.01098569  0.27599746  0.05356351  1
  Zr  Zr76  1  0.16442540  0.05144691  0.18788305  1
  Zr  Zr77  1  0.89949077  0.58794913  0.28259918  1
  Zr  Zr78  1  0.37913193  0.61694847  0.21797473  1
  Zr  Zr79  1  0.11041707  0.15307361  0.31140744  1
  Zr  Zr80  1  0.75205976  0.88324697  0.26633158  1
  Zr  Zr81  1  0.47935753  0.42658114  0.35769505  1
  Zr  Zr82  1  0.26529355  0.84985942  0.32922853  1
  Zr  Zr83  1  0.52637664  0.32086515  0.23434924  1
  Zr  Zr84  1  0.63535598  0.13080959  0.37653856  1
  Zr  Zr85  1  0.36231186  0.70711150  0.47033751  1
  Zr  Zr86  1  0.84868280  0.68460759  0.41008601  1
  Zr  Zr87  1  0.57966271  0.18655364  0.47883006  1
  Zr  Zr88  1  0.25991407  0.94693828  0.44989613  1
  Zr  Zr89  1  0.96254974  0.40623416  0.41481837  1
  Zr  Zr90  1  0.16445361  0.66789838  0.54618804  1
  Zr  Zr91  1  0.39656077  0.16992241  0.58955632  1
  Zr  Zr92  1  0.89197468  0.18379247  0.52902034  1
  Zr  Zr93  1  0.19150675  0.61930640  0.62637748  1
  Zr  Zr94  1  0.50124755  0.91572617  0.58831332  1
  Zr  Zr95  1  0.81028039  0.34477515  0.67093164  1
  Zr  Zr96  1  0.02677236  0.92522380  0.64536603  1
  Zr  Zr97  1  0.81384559  0.42416693  0.55351669  1
  Zr  Zr98  1  0.66037352  0.64841862  0.68785716  1
  Zr  Zr99  1  0.92583542  0.11207943  0.78260947  1
  Zr  Zr100  1  0.44622843  0.08308228  0.71809637  1
  Zr  Zr101  1  0.71450745  0.54695191  0.81126991  1
  Zr  Zr102  1  0.07310088  0.81675969  0.76626572  1
  Zr  Zr103  1  0.34566825  0.27356424  0.85778821  1
  Zr  Zr104  1  0.55982398  0.85022832  0.82916567  1
  Zr  Zr105  1  0.29844720  0.37881271  0.73437536  1
  Zr  Zr106  1  0.18948944  0.56943337  0.87649151  1
  Zr  Zr107  1  0.46277720  0.99263328  0.97038017  1
  Zr  Zr108  1  0.97725414  0.01504790  0.91007295  1
  Zr  Zr109  1  0.24502649  0.51388940  0.97888269  1
  Zr  Zr110  1  0.56569273  0.75269690  0.94992120  1
  Zr  Zr111  1  0.86188745  0.29458424  0.91507971  1
  Si  Si112  1  0.48571055  0.69562240  0.14307762  1
  Si  Si113  1  0.70437349  0.20143161  0.05484050  1
  Si  Si114  1  0.58648746  0.89299256  0.08206856  1
  Si  Si115  1  0.33787509  0.44419525  0.17019711  1
  Si  Si116  1  0.53761274  0.64469108  0.02881430  1
  Si  Si117  1  0.22950749  0.17754374  0.12291678  1
  Si  Si118  1  0.83891640  0.44133055  0.10043088  1
  Si  Si119  1  0.94471467  0.76233725  0.33014778  1
  Si  Si120  1  0.21421100  0.22771341  0.23363306  1
  Si  Si121  1  0.06434024  0.97566334  0.26583996  1
  Si  Si122  1  0.78382275  0.51829490  0.35921727  1
  Si  Si123  1  0.97797623  0.70360360  0.22003258  1
  Si  Si124  1  0.70425231  0.24836702  0.31214414  1
  Si  Si125  1  0.57218083  0.95514186  0.18934626  1
  Si  Si126  1  0.30094258  0.49716883  0.28132539  1
  Si  Si127  1  0.69470229  0.30252778  0.41764900  1
  Si  Si128  1  0.55575874  0.03417809  0.44398918  1
  Si  Si129  1  0.44407000  0.77885172  0.40124293  1
  Si  Si130  1  0.03745159  0.02832764  0.37709493  1
  Si  Si131  1  0.73792476  0.55633903  0.47042316  1
  Si  Si132  1  0.33858344  0.00463264  0.64320427  1
  Si  Si133  1  0.12061545  0.49863193  0.55506394  1
  Si  Si134  1  0.23828654  0.80720175  0.58207074  1
  Si  Si135  1  0.48710088  0.25545889  0.67023106  1
  Si  Si136  1  0.28711118  0.05517111  0.52884695  1
  Si  Si137  1  0.59550392  0.52252605  0.62283612  1
  Si  Si138  1  0.98593623  0.25866125  0.60031660  1
  Si  Si139  1  0.88061774  0.93752484  0.83012417  1
  Si  Si140  1  0.61053773  0.47214509  0.73346651  1
  Si  Si141  1  0.76071615  0.72433574  0.76578134  1
  Si  Si142  1  0.04187505  0.18136016  0.85924585  1
  Si  Si143  1  0.84721962  0.99645061  0.72001509  1
  Si  Si144  1  0.12031050  0.45133265  0.81219818  1
  Si  Si145  1  0.25302979  0.74516164  0.68929675  1
  Si  Si146  1  0.52442928  0.20261104  0.78141924  1
  Si  Si147  1  0.13069726  0.39775944  0.91770043  1
  Si  Si148  1  0.26870066  0.66622085  0.94393843  1
  Si  Si149  1  0.38170370  0.92075287  0.90129065  1
  Si  Si150  1  0.78729186  0.67168640  0.87702970  1
  Si  Si151  1  0.08732401  0.14357965  0.97041420  1
  P  P152  1  0.01221673  0.92598536  0.13065376  1
  P  P153  1  0.29395163  0.38144391  0.04194438  1
  P  P154  1  0.06386738  0.66404226  0.08261887  1
  P  P155  1  0.48188533  0.00740916  0.32218239  1
  P  P156  1  0.74697896  0.46912111  0.22935917  1
  P  P157  1  0.52848814  0.73762299  0.27170179  1
  P  P158  1  0.79679241  0.20155791  0.17809371  1
  P  P159  1  0.21415180  0.53280044  0.42018331  1
  P  P160  1  0.98717706  0.82464786  0.46307103  1
  P  P161  1  0.26074568  0.27623968  0.36909791  1
  P  P162  1  0.81231854  0.77425111  0.63094617  1
  P  P163  1  0.53060070  0.31867451  0.54200036  1
  P  P164  1  0.76104313  0.03576673  0.58264595  1
  P  P165  1  0.34327620  0.69259949  0.82200352  1
  P  P166  1  0.07784099  0.23107140  0.72925050  1
  P  P167  1  0.29677447  0.96241265  0.77170236  1
  P  P168  1  0.02833490  0.49839971  0.67806577  1
  P  P169  1  0.61116795  0.16752067  0.92025778  1
  P  P170  1  0.83812092  0.87533077  0.96305556  1
  P  P171  1  0.56406218  0.42432222  0.86912284  1
  O  O172  1  0.38148647  0.79504668  0.13452522  1
  O  O173  1  0.62533261  0.29778057  0.06311657  1
  O  O174  1  0.68188063  0.81465603  0.10355614  1
  O  O175  1  0.44763099  0.57683893  0.04309065  1
  O  O176  1  0.18432794  0.09682883  0.14081270  1
  O  O177  1  0.61820054  0.03547941  0.17180511  1
  O  O178  1  0.92607590  0.49963744  0.08037383  1
  O  O179  1  0.19203060  0.58400212  0.09217349  1
  O  O180  1  0.48283969  0.03687275  0.01467667  1
  O  O181  1  0.87716519  0.00428179  0.12216469  1
  O  O182  1  0.18494887  0.46314462  0.02431125  1
  O  O183  1  0.13688953  0.73893370  0.07371022  1
  O  O184  1  0.85638499  0.27923995  0.17181826  1
  O  O185  1  0.95656618  0.84901132  0.14183093  1
  O  O186  1  0.19531162  0.33582024  0.06106857  1
  O  O187  1  0.10610184  0.94728244  0.15922137  1
  O  O188  1  0.37843547  0.42473643  0.06637537  1
  O  O189  1  0.97830822  0.64660900  0.05260604  1
  O  O190  1  0.71569439  0.18422291  0.14643169  1
  O  O191  1  0.11969360  0.89858396  0.10094753  1
  O  O192  1  0.38316493  0.32452238  0.01563749  1
  O  O193  1  0.95502532  0.68985463  0.11143672  1
  O  O194  1  0.43742178  0.65168514  0.10959972  1
  O  O195  1  0.64664570  0.15634293  0.02379343  1
  O  O196  1  0.57805195  0.98977283  0.09708367  1
  O  O197  1  0.92281741  0.39068717  0.02446274  1
  O  O198  1  0.47677287  0.72811913  0.05361840  1
  O  O199  1  0.16189224  0.26485024  0.14472004  1
  O  O200  1  0.65278055  0.86669523  0.17018097  1
  O  O201  1  0.89165996  0.34016913  0.08976767  1
  O  O202  1  0.86668934  0.00060627  0.03456878  1
  O  O203  1  0.65322227  0.47725966  0.09604710  1
  O  O204  1  0.71681633  0.59050824  0.03353962  1
  O  O205  1  0.41712710  0.15579674  0.12573236  1
  O  O206  1  0.40961936  0.88754868  0.07755236  1
  O  O207  1  0.16650437  0.42838848  0.16832357  1
  O  O208  1  0.66835665  0.68252179  0.14418196  1
  O  O209  1  0.89163339  0.18572974  0.05606007  1
  O  O210  1  0.67332962  0.89546783  0.04819962  1
  O  O211  1  0.39384605  0.46239886  0.13388301  1
  O  O212  1  0.67959931  0.12841234  0.08256537  1
  O  O213  1  0.88969465  0.44202701  0.13812788  1
  O  O214  1  0.54111736  0.69493184  0.99395025  1
  O  O215  1  0.15616415  0.18783726  0.08677315  1
  O  O216  1  0.83081624  0.84891836  0.31397194  1
  O  O217  1  0.09562513  0.31319879  0.21801829  1
  O  O218  1  0.18464418  0.89209236  0.28223251  1
  O  O219  1  0.45198695  0.35873380  0.18750756  1
  O  O220  1  0.95541879  0.61715840  0.23672537  1
  O  O221  1  0.66769681  0.16418515  0.32910515  1
  O  O222  1  0.07356875  0.10873829  0.35772449  1
  O  O223  1  0.33335116  0.58260692  0.26544077  1
  O  O224  1  0.66526831  0.65949018  0.27886806  1
  O  O225  1  0.92741276  0.11981704  0.18591973  1
  O  O226  1  0.34944092  0.08854765  0.31423030  1
  O  O227  1  0.61111421  0.54603939  0.22116493  1
  O  O228  1  0.57857219  0.82056169  0.26903089  1
  O  O229  1  0.30974549  0.35762681  0.36133830  1
  O  O230  1  0.41720308  0.93168596  0.32893539  1
  O  O231  1  0.69567756  0.38645615  0.23325869  1
  O  O232  1  0.56239601  0.02469028  0.35396872  1
  O  O233  1  0.82605088  0.48144510  0.26124653  1
  O  O234  1  0.44603644  0.72666899  0.24019899  1
  O  O235  1  0.16732957  0.25921659  0.33990697  1
  O  O236  1  0.59598538  0.99375180  0.29412326  1
  O  O237  1  0.86684904  0.45576419  0.20217048  1
  O  O238  1  0.41358143  0.74593309  0.29978007  1
  O  O239  1  0.68359701  0.21393241  0.20644170  1
  O  O240  1  0.95905634  0.68164281  0.30563431  1
  O  O241  1  0.22338863  0.14587537  0.20981940  1
  O  O242  1  0.05012489  0.05900118  0.28947475  1
  O  O243  1  0.31688942  0.52408825  0.19563716  1
  O  O244  1  0.89135868  0.78830124  0.24190278  1
  O  O245  1  0.62365035  0.33425910  0.33320487  1
  O  O246  1  0.12001174  0.94095043  0.35661899  1
  O  O247  1  0.37745789  0.41364894  0.25838036  1
  O  O248  1  0.38607753  0.97102686  0.18746140  1
  O  O249  1  0.11908031  0.50204521  0.28363779  1
  O  O250  1  0.15833357  0.70286693  0.21927224  1
  O  O251  1  0.88980191  0.23616903  0.31184899  1
  O  O252  1  0.89058323  0.96555196  0.26354978  1
  O  O253  1  0.60565364  0.51838424  0.35761636  1
  O  O254  1  0.11916815  0.77387912  0.33188142  1
  O  O255  1  0.38788848  0.23776414  0.23571203  1
  O  O256  1  0.12341651  0.99092425  0.22970140  1
  O  O257  1  0.85032316  0.53608694  0.32503696  1
  O  O258  1  0.41417145  0.66978279  0.17538345  1
  O  O259  1  0.15477603  0.21197412  0.26979784  1
  O  O260  1  0.62970169  0.94959758  0.22680556  1
  O  O261  1  0.37119892  0.48764958  0.31775765  1
  O  O262  1  0.91475156  0.70799582  0.18324931  1
  O  O263  1  0.63969532  0.25600824  0.27525348  1
  O  O264  1  0.58490137  0.38944734  0.40187758  1
  O  O265  1  0.67980035  0.95103042  0.43163847  1
  O  O266  1  0.89579432  0.42129501  0.36983948  1
  O  O267  1  0.36729723  0.71120174  0.41932763  1
  O  O268  1  0.82647820  0.62785551  0.45943995  1
  O  O269  1  0.12271669  0.74602271  0.47245934  1
  O  O270  1  0.39883256  0.19946957  0.37646028  1
  O  O271  1  0.83442209  0.13433812  0.48817503  1
  O  O272  1  0.08254530  0.61592643  0.41522760  1
  O  O273  1  0.05714635  0.90001166  0.45444888  1
  O  O274  1  0.14405261  0.45548089  0.42532100  1
  O  O275  1  0.30401487  0.53933063  0.45067798  1
  O  O276  1  0.91080023  0.79164564  0.43373787  1
  O  O277  1  0.31297510  0.52108148  0.38938733  1
  O  O278  1  0.86997407  0.85503705  0.48991456  1
  O  O279  1  0.15287731  0.29312874  0.39925159  1
  O  O280  1  0.38730516  0.82434907  0.47363331  1
  O  O281  1  0.72138283  0.22392909  0.39175537  1
  O  O282  1  0.57751003  0.05913471  0.48178216  1
  O  O283  1  0.80958917  0.58031420  0.38852514  1
  O  O284  1  0.37414274  0.87837932  0.41301799  1
  O  O285  1  0.80389407  0.47411008  0.44517773  1
  O  O286  1  0.85088356  0.03983499  0.37802163  1
  O  O287  1  0.55728184  0.60499611  0.46483071  1
  O  O288  1  0.62816915  0.75296575  0.40935130  1
  O  O289  1  0.36367960  0.23800733  0.47789843  1
  O  O290  1  0.37974189  0.03553996  0.43550734  1
  O  O291  1  0.87041778  0.30962810  0.42487845  1
  O  O292  1  0.59102263  0.12112364  0.42689846  1
  O  O293  1  0.89876535  0.74239226  0.36738290  1
  O  O294  1  0.62267774  0.28645334  0.45197506  1
  O  O295  1  0.10540822  0.02254283  0.41404797  1
  O  O296  1  0.74732145  0.50880276  0.50604674  1
  O  O297  1  0.39914193  0.77582880  0.36352873  1
  O  O298  1  0.44241458  0.90509473  0.63461514  1
  O  O299  1  0.19985217  0.40244544  0.56353248  1
  O  O300  1  0.14234742  0.88554996  0.60347844  1
  O  O301  1  0.37787426  0.12258955  0.54319210  1
  O  O302  1  0.64119542  0.60304626  0.64076880  1
  O  O303  1  0.20678657  0.66479093  0.67185701  1
  O  O304  1  0.89884796  0.20034605  0.58020660  1
  O  O305  1  0.63315182  0.11599472  0.59213837  1
  O  O306  1  0.34209230  0.66297807  0.51464912  1
  O  O307  1  0.94752177  0.69605062  0.62245084  1
  O  O308  1  0.63988306  0.23726156  0.52424475  1
  O  O309  1  0.68762679  0.96097402  0.57375538  1
  O  O310  1  0.96877164  0.42075718  0.67158842  1
  O  O311  1  0.86750743  0.85135526  0.64213889  1
  O  O312  1  0.62927452  0.36458479  0.56096095  1
  O  O313  1  0.71860303  0.75277109  0.65951338  1
  O  O314  1  0.44708850  0.27509198  0.56652204  1
  O  O315  1  0.84718635  0.05285224  0.55267216  1
  O  O316  1  0.10964695  0.51596201  0.64646844  1
  O  O317  1  0.70447466  0.80151386  0.60129843  1
  O  O318  1  0.43997324  0.37539015  0.51580467  1
  O  O319  1  0.86958209  0.01000488  0.61150694  1
  O  O320  1  0.38745149  0.04843557  0.60973256  1
  O  O321  1  0.17851769  0.54351030  0.52397690  1
  O  O322  1  0.24669847  0.71045294  0.59709114  1
  O  O323  1  0.90234888  0.30951678  0.52435995  1
  O  O324  1  0.34644613  0.97196259  0.55383037  1
  O  O325  1  0.66311674  0.43507053  0.64455545  1
  O  O326  1  0.17232076  0.83354378  0.67011319  1
  O  O327  1  0.93304026  0.35983633  0.58969417  1
  O  O328  1  0.95815603  0.69951262  0.53453635  1
  O  O329  1  0.17163095  0.22266471  0.59603902  1
  O  O330  1  0.10814631  0.10999258  0.53332313  1
  O  O331  1  0.40787993  0.54452299  0.62574717  1
  O  O332  1  0.41518019  0.81257797  0.57757144  1
  O  O333  1  0.65814600  0.27173056  0.66821823  1
  O  O334  1  0.15595388  0.01783269  0.64415468  1
  O  O335  1  0.93330038  0.51431276  0.55612284  1
  O  O336  1  0.15179888  0.80453822  0.54816366  1
  O  O337  1  0.43099412  0.23698148  0.63396383  1
  O  O338  1  0.14472697  0.57204067  0.58265950  1
  O  O339  1  0.93462336  0.25791302  0.63797229  1
  O  O340  1  0.28419856  0.00449670  0.49402633  1
  O  O341  1  0.66857381  0.51242379  0.58666408  1
  O  O342  1  0.99441967  0.85091759  0.81394277  1
  O  O343  1  0.72951623  0.38677271  0.71787594  1
  O  O344  1  0.64052067  0.80797701  0.78215632  1
  O  O345  1  0.37258379  0.34081798  0.68750242  1
  O  O346  1  0.86933397  0.08287510  0.73680410  1
  O  O347  1  0.15724700  0.53548483  0.82913434  1
  O  O348  1  0.75142808  0.59134211  0.85757568  1
  O  O349  1  0.49253019  0.11688893  0.76565180  1
  O  O350  1  0.16004736  0.04056791  0.77885959  1
  O  O351  1  0.89757709  0.58003682  0.68596181  1
  O  O352  1  0.47571208  0.61148217  0.81402709  1
  O  O353  1  0.21465785  0.15443855  0.72133977  1
  O  O354  1  0.24656787  0.87951493  0.76901470  1
  O  O355  1  0.51462349  0.34301763  0.86145256  1
  O  O356  1  0.40795427  0.76832398  0.82876033  1
  O  O357  1  0.12819613  0.31402548  0.73318389  1
  O  O358  1  0.26289490  0.67523962  0.85380480  1
  O  O359  1  0.99806046  0.21870535  0.76103033  1
  O  O360  1  0.37932751  0.97336944  0.74022726  1
  O  O361  1  0.65738049  0.44099168  0.83986462  1
  O  O362  1  0.22911246  0.70613277  0.79396594  1
  O  O363  1  0.95868459  0.24399366  0.70193238  1
  O  O364  1  0.41173888  0.95403870  0.79977487  1
  O  O365  1  0.14145240  0.48583012  0.70643198  1
  O  O366  1  0.86669943  0.01831559  0.80568967  1
  O  O367  1  0.60027136  0.55388979  0.70952615  1
  O  O368  1  0.77517687  0.64112467  0.78950098  1
  O  O369  1  0.50927213  0.17566136  0.69573856  1
  O  O370  1  0.93382248  0.91176524  0.74189299  1
  O  O371  1  0.20009839  0.36555817  0.83336596  1
  O  O372  1  0.70474879  0.75909277  0.85660034  1
  O  O373  1  0.44745739  0.28576260  0.75831624  1
  O  O374  1  0.43904206  0.72927381  0.68738343  1
  O  O375  1  0.70617998  0.19790342  0.78379166  1
  O  O376  1  0.66691664  0.99704606  0.71920361  1
  O  O377  1  0.93481088  0.46364801  0.81176506  1
  O  O378  1  0.93443289  0.73448897  0.76337180  1
  O  O379  1  0.21981218  0.18177369  0.85770310  1
  O  O380  1  0.70602188  0.92611994  0.83176803  1
  O  O381  1  0.43723756  0.46163994  0.73568244  1
  O  O382  1  0.70106984  0.70865840  0.72974996  1
  O  O383  1  0.97549947  0.16422678  0.82496843  1
  O  O384  1  0.41011253  0.03037921  0.67552584  1
  O  O385  1  0.67001454  0.48818515  0.76960120  1
  O  O386  1  0.19571761  0.75068577  0.72677096  1
  O  O387  1  0.45384851  0.21266327  0.81782294  1
  O  O388  1  0.91085916  0.99239484  0.68329124  1
  O  O389  1  0.18565077  0.44341952  0.77536237  1
  O  O390  1  0.24051335  0.31074071  0.90201697  1
  O  O391  1  0.14502379  0.74935035  0.93148787  1
  O  O392  1  0.92896026  0.27781423  0.87019379  1
  O  O393  1  0.45841178  0.98843133  0.91939160  1
  O  O394  1  0.99917662  0.07181394  0.95951753  1
  O  O395  1  0.70231480  0.95392042  0.97238305  1
  O  O396  1  0.42630172  0.50122365  0.87655236  1
  O  O397  1  0.99006353  0.56560691  0.98815941  1
  O  O398  1  0.74344566  0.08467782  0.91529948  1
  O  O399  1  0.76856423  0.79969194  0.95457693  1
  O  O400  1  0.68035596  0.24521718  0.92547134  1
  O  O401  1  0.52120239  0.16068502  0.95069809  1
  O  O402  1  0.91415442  0.90821064  0.93366082  1
  O  O403  1  0.51267264  0.17916518  0.88940833  1
  O  O404  1  0.95527330  0.84539976  0.98994604  1
  O  O405  1  0.67229318  0.40756187  0.89922909  1
  O  O406  1  0.43813041  0.87532299  0.97368797  1
  O  O407  1  0.10394823  0.47619667  0.89175055  1
  O  O408  1  0.24632309  0.64149443  0.98174251  1
  O  O409  1  0.01812891  0.11802498  0.88824387  1
  O  O410  1  0.45227235  0.82127082  0.91300366  1
  O  O411  1  0.02086372  0.22567164  0.94510282  1
  O  O412  1  0.97388937  0.66026036  0.87795180  1
  O  O413  1  0.26802381  0.09499428  0.96479831  1
  O  O414  1  0.19768306  0.94630535  0.90947261  1
  O  O415  1  0.46102041  0.46232925  0.97789446  1
  O  O416  1  0.44482542  0.66470895  0.93549754  1
  O  O417  1  0.95501941  0.39072449  0.92499601  1
  O  O418  1  0.23350556  0.57926057  0.92688020  1
  O  O419  1  0.92618598  0.95717986  0.86742645  1
  O  O420  1  0.20260104  0.41400407  0.95200392  1
  O  O421  1  0.71984987  0.67708485  0.91402969  1
  O  O422  1  0.07786297  0.19127460  0.00600238  1
  O  O423  1  0.42616625  0.92401696  0.86356206  1
