# generated using pymatgen
data_Na31Zr22Si18P9O118
_symmetry_space_group_name_H-M   'P 1'
_cell_length_a   9.15937100
_cell_length_b   16.28925272
_cell_length_c   41.63764850
_cell_angle_alpha   90.00000000
_cell_angle_beta   90.00000000
_cell_angle_gamma   73.67128847
_symmetry_Int_Tables_number   1
_chemical_formula_structural   Na31Zr22Si18P9O118
_chemical_formula_sum   'Na62 Zr44 Si36 P18 O236'
_cell_volume   5961.73198339
_cell_formula_units_Z   2
loop_
 _symmetry_equiv_pos_site_id
 _symmetry_equiv_pos_as_xyz
  1  'x, y, z'
loop_
 _atom_site_type_symbol
 _atom_site_label
 _atom_site_symmetry_multiplicity
 _atom_site_fract_x
 _atom_site_fract_y
 _atom_site_fract_z
 _atom_site_occupancy
  Na  Na0  1  0.00492428  0.82449371  0.15764690  1
  Na  Na1  1  0.11405864  0.40684131  0.00055712  1
  Na  Na2  1  0.77911620  0.03018422  0.04386400  1
  Na  Na3  1  0.51292942  0.39720946  0.12918082  1
  Na  Na4  1  0.59209700  0.64075577  0.16565550  1
  Na  Na5  1  0.11209084  0.03868377  0.06475791  1
  Na  Na6  1  0.00227552  0.46145823  0.08158368  1
  Na  Na7  1  0.23920041  0.92561004  0.11762935  1
  Na  Na8  1  0.46690772  0.34655484  0.02838396  1
  Na  Na9  1  0.31737363  0.67299554  0.00021430  1
  Na  Na10  1  0.30916095  0.22814823  0.15209522  1
  Na  Na11  1  0.50580786  0.86082270  0.33637903  1
  Na  Na12  1  0.77512115  0.33246139  0.23997435  1
  Na  Na13  1  0.23243951  0.90564794  0.21814004  1
  Na  Na14  1  0.97117763  0.44083371  0.30438502  1
  Na  Na15  1  0.02722936  0.72639179  0.36407707  1
  Na  Na16  1  0.32041360  0.17598170  0.26051818  1
  Na  Na17  1  0.62558573  0.07564479  0.20058803  1
  Na  Na18  1  0.34516846  0.60523916  0.28763432  1
  Na  Na19  1  0.67925962  0.01460599  0.29627052  1
  Na  Na20  1  0.94924573  0.48542942  0.19861728  1
  Na  Na21  1  0.03240975  0.74904100  0.24978165  1
  Na  Na22  1  0.76490216  0.28192158  0.33812782  1
  Na  Na23  1  0.36825844  0.43905098  0.44149386  1
  Na  Na24  1  0.68927785  0.00426247  0.40401890  1
  Na  Na25  1  0.90267517  0.98103997  0.50244949  1
  Na  Na26  1  0.05992034  0.14881285  0.38002512  1
  Na  Na27  1  0.82811548  0.66866536  0.46946162  1
  Na  Na28  1  0.14926567  0.09269510  0.49612889  1
  Na  Na29  1  0.42073946  0.56266663  0.38614164  1
  Na  Na30  1  0.22933640  0.84128778  0.47662748  1
  Na  Na31  1  0.07194310  0.07494736  0.65776190  1
  Na  Na32  1  0.96100400  0.49307432  0.50053198  1
  Na  Na33  1  0.29694460  0.86978899  0.54384814  1
  Na  Na34  1  0.56220775  0.50256407  0.62929132  1
  Na  Na35  1  0.48337428  0.25931067  0.66561533  1
  Na  Na36  1  0.96475167  0.86145429  0.56497404  1
  Na  Na37  1  0.07385642  0.43853501  0.58162606  1
  Na  Na38  1  0.83635669  0.97479329  0.61780362  1
  Na  Na39  1  0.60873745  0.55284389  0.52835705  1
  Na  Na40  1  0.75867216  0.22669536  0.50044253  1
  Na  Na41  1  0.76634203  0.67160218  0.65205153  1
  Na  Na42  1  0.56875277  0.03914644  0.83641736  1
  Na  Na43  1  0.29936950  0.56760710  0.74003213  1
  Na  Na44  1  0.84261836  0.99421970  0.71816779  1
  Na  Na45  1  0.10291955  0.45927794  0.80438870  1
  Na  Na46  1  0.04701017  0.17340909  0.86401000  1
  Na  Na47  1  0.75366892  0.72393664  0.76065361  1
  Na  Na48  1  0.44988402  0.82424484  0.70069394  1
  Na  Na49  1  0.72937578  0.29464940  0.78774345  1
  Na  Na50  1  0.39571379  0.88527978  0.79623924  1
  Na  Na51  1  0.12616623  0.41471554  0.69862590  1
  Na  Na52  1  0.04241474  0.15105145  0.74976086  1
  Na  Na53  1  0.30903820  0.61787053  0.83824313  1
  Na  Na54  1  0.70561541  0.46097268  0.94156584  1
  Na  Na55  1  0.38511953  0.89683126  0.90383314  1
  Na  Na56  1  0.17517981  0.91759930  0.00186421  1
  Na  Na57  1  0.01544742  0.75085670  0.88017000  1
  Na  Na58  1  0.24630199  0.23133269  0.96958530  1
  Na  Na59  1  0.92626052  0.80696921  0.99621021  1
  Na  Na60  1  0.65315389  0.33729963  0.88617086  1
  Na  Na61  1  0.84736814  0.05877258  0.97674588  1
  Zr  Zr62  1  0.02417650  0.05951583  0.16489934  1
  Zr  Zr63  1  0.30950330  0.52511475  0.06813292  1
  Zr  Zr64  1  0.65815115  0.57734615  0.02514063  1
  Zr  Zr65  1  0.48907253  0.06755567  0.11047143  1
  Zr  Zr66  1  0.13613829  0.79831788  0.06481435  1
  Zr  Zr67  1  0.88720085  0.35469458  0.14484174  1
  Zr  Zr68  1  0.64550359  0.79704177  0.11733867  1
  Zr  Zr69  1  0.90898950  0.21314467  0.02482643  1
  Zr  Zr70  1  0.48447750  0.13749652  0.35042302  1
  Zr  Zr71  1  0.75760566  0.59650538  0.25621781  1
  Zr  Zr72  1  0.22810321  0.62657400  0.19306858  1
  Zr  Zr73  1  0.96460603  0.16433808  0.28587279  1
  Zr  Zr74  1  0.61219156  0.89266670  0.24325956  1
  Zr  Zr75  1  0.34126977  0.43449365  0.33247640  1
  Zr  Zr76  1  0.11656408  0.86062255  0.30888142  1
  Zr  Zr77  1  0.38645937  0.32831079  0.20982404  1
  Zr  Zr78  1  0.22520482  0.64992758  0.45024182  1
  Zr  Zr79  1  0.69357602  0.69487111  0.38336231  1
  Zr  Zr80  1  0.38688681  0.24308981  0.45928234  1
  Zr  Zr81  1  0.08064708  0.96848553  0.42141925  1
  Zr  Zr82  1  0.57133175  0.91811638  0.48146720  1
  Zr  Zr83  1  0.83760975  0.40496892  0.39132261  1
  Zr  Zr84  1  0.05143073  0.84030533  0.66499724  1
  Zr  Zr85  1  0.76635158  0.37482558  0.56829611  1
  Zr  Zr86  1  0.41789735  0.32279844  0.52522360  1
  Zr  Zr87  1  0.58717032  0.83249758  0.61049813  1
  Zr  Zr88  1  0.94063523  0.10172667  0.56489071  1
  Zr  Zr89  1  0.18805920  0.54539616  0.64491053  1
  Zr  Zr90  1  0.43097797  0.10261375  0.61744623  1
  Zr  Zr91  1  0.16640009  0.68711517  0.52475525  1
  Zr  Zr92  1  0.58934509  0.76238146  0.85043155  1
  Zr  Zr93  1  0.31686990  0.30354580  0.75621586  1
  Zr  Zr94  1  0.84706738  0.27357114  0.69309784  1
  Zr  Zr95  1  0.10954309  0.73568637  0.78599151  1
  Zr  Zr96  1  0.46275749  0.00743536  0.74324702  1
  Zr  Zr97  1  0.73271143  0.46534900  0.83255392  1
  Zr  Zr98  1  0.95767731  0.03954279  0.80883976  1
  Zr  Zr99  1  0.68803213  0.57180231  0.70989210  1
  Zr  Zr100  1  0.84923238  0.25006923  0.95029935  1
  Zr  Zr101  1  0.38008954  0.20505055  0.88339550  1
  Zr  Zr102  1  0.68834054  0.65703799  0.95916822  1
  Zr  Zr103  1  0.99368997  0.93166897  0.92139709  1
  Zr  Zr104  1  0.50474791  0.98252371  0.98143286  1
  Zr  Zr105  1  0.23621625  0.49473510  0.89139493  1
  Si  Si106  1  0.31676413  0.71552387  0.11878727  1
  Si  Si107  1  0.42977016  0.91156994  0.05667199  1
  Si  Si108  1  0.18797187  0.45693335  0.14726239  1
  Si  Si109  1  0.12000227  0.18190789  0.10233110  1
  Si  Si110  1  0.42302363  0.97474579  0.16735223  1
  Si  Si111  1  0.70492231  0.39572773  0.06723691  1
  Si  Si112  1  0.80526275  0.76810927  0.30482217  1
  Si  Si113  1  0.07089554  0.23856494  0.20917448  1
  Si  Si114  1  0.92167130  0.98328168  0.24242385  1
  Si  Si115  1  0.64669737  0.52541927  0.33217674  1
  Si  Si116  1  0.82432598  0.72450100  0.19571373  1
  Si  Si117  1  0.55873560  0.25465733  0.28627186  1
  Si  Si118  1  0.87990231  0.04594555  0.35005981  1
  Si  Si119  1  0.15929446  0.50604267  0.25560118  1
  Si  Si120  1  0.55833409  0.31019846  0.39137235  1
  Si  Si121  1  0.35683327  0.07270895  0.42591220  1
  Si  Si122  1  0.29932475  0.78169302  0.38736008  1
  Si  Si123  1  0.62889814  0.56332497  0.44653103  1
  Si  Si124  1  0.75967428  0.18435409  0.61884652  1
  Si  Si125  1  0.64694131  0.98848369  0.55675272  1
  Si  Si126  1  0.88726300  0.44311416  0.64738015  1
  Si  Si127  1  0.95598486  0.71836797  0.60234935  1
  Si  Si128  1  0.65259006  0.92473539  0.66744553  1
  Si  Si129  1  0.37076854  0.50446497  0.56729610  1
  Si  Si130  1  0.26930235  0.13189922  0.80479526  1
  Si  Si131  1  0.00348313  0.66143494  0.70927473  1
  Si  Si132  1  0.15325134  0.91668136  0.74253727  1
  Si  Si133  1  0.42712723  0.37456457  0.83220816  1
  Si  Si134  1  0.25081858  0.17564091  0.69569957  1
  Si  Si135  1  0.51522859  0.64508155  0.78633272  1
  Si  Si136  1  0.19425790  0.85431650  0.85008036  1
  Si  Si137  1  0.91511559  0.39392377  0.75567203  1
  Si  Si138  1  0.51530287  0.58987813  0.89153686  1
  Si  Si139  1  0.71796053  0.82772926  0.92566561  1
  Si  Si140  1  0.77466435  0.11871280  0.88727296  1
  Si  Si141  1  0.44557958  0.33639324  0.94655961  1
  P  P142  1  0.86377115  0.94239375  0.10645164  1
  P  P143  1  0.90347447  0.66977606  0.06899336  1
  P  P144  1  0.65981311  0.20323407  0.15293383  1
  P  P145  1  0.33340416  0.01233710  0.29833387  1
  P  P146  1  0.60598489  0.47511314  0.20032395  1
  P  P147  1  0.38614500  0.74414894  0.25006816  1
  P  P148  1  0.11965570  0.28377869  0.34260036  1
  P  P149  1  0.07278658  0.53890510  0.39243145  1
  P  P150  1  0.86598389  0.81914221  0.43436136  1
  P  P151  1  0.21258088  0.95741903  0.60644767  1
  P  P152  1  0.17329792  0.23018799  0.56922437  1
  P  P153  1  0.41576103  0.69684226  0.65296756  1
  P  P154  1  0.74087786  0.88761202  0.79836517  1
  P  P155  1  0.46883100  0.42503385  0.70038776  1
  P  P156  1  0.68869332  0.15597399  0.74998786  1
  P  P157  1  0.95422233  0.61600061  0.84274272  1
  P  P158  1  0.00076782  0.36085220  0.89244650  1
  P  P159  1  0.20859976  0.08077834  0.93458557  1
  O  O160  1  0.17974858  0.80456806  0.11779770  1
  O  O161  1  0.57380717  0.84094992  0.07227237  1
  O  O162  1  0.31251477  0.37302818  0.16326512  1
  O  O163  1  0.09055344  0.09482494  0.11888779  1
  O  O164  1  0.43800736  0.07113746  0.15833732  1
  O  O165  1  0.76814364  0.46363350  0.04519793  1
  O  O166  1  0.04639076  0.59433015  0.07183587  1
  O  O167  1  0.79060034  0.12469259  0.16397038  1
  O  O168  1  0.72146055  0.01754016  0.09768192  1
  O  O169  1  0.94441134  0.74992431  0.05604188  1
  O  O170  1  0.72062927  0.28007863  0.14501923  1
  O  O171  1  0.81695937  0.86420441  0.11817662  1
  O  O172  1  0.98921403  0.27443176  0.98884590  1
  O  O173  1  0.95748714  0.96692640  0.13381662  1
  O  O174  1  0.23165868  0.45288294  0.04247619  1
  O  O175  1  0.78862484  0.64666435  0.04513673  1
  O  O176  1  0.57647718  0.17805285  0.12378788  1
  O  O177  1  0.95990646  0.92151664  0.07504816  1
  O  O178  1  0.69863127  0.46212412  0.16827432  1
  O  O179  1  0.81735526  0.69145423  0.10129151  1
  O  O180  1  0.28672091  0.67615146  0.08301453  1
  O  O181  1  0.41791452  0.00629518  0.07288538  1
  O  O182  1  0.15444217  0.53328438  0.17457257  1
  O  O183  1  0.16321444  0.78816272  0.01963224  1
  O  O184  1  0.05873175  0.26056504  0.12792272  1
  O  O185  1  0.49863218  0.92416644  0.13409686  1
  O  O186  1  0.73052991  0.30494456  0.04790715  1
  O  O187  1  0.24553845  0.97244050  0.16954441  1
  O  O188  1  0.52307146  0.43310836  0.07578856  1
  O  O189  1  0.45073974  0.56716490  0.03332225  1
  O  O190  1  0.30706931  0.16541681  0.10078510  1
  O  O191  1  0.26625387  0.89156531  0.06369191  1
  O  O192  1  0.02231176  0.43694009  0.14198218  1
  O  O193  1  0.48568723  0.73214753  0.12151343  1
  O  O194  1  0.95882628  0.08849388  0.02435705  1
  O  O195  1  0.43310238  0.92109710  0.01677865  1
  O  O196  1  0.25987957  0.48207204  0.11418889  1
  O  O197  1  0.30148422  0.66045177  0.15059202  1
  O  O198  1  0.79989452  0.39079764  0.10095037  1
  O  O199  1  0.72519144  0.75414045  0.16320594  1
  O  O200  1  0.04896764  0.20106103  0.06651901  1
  O  O201  1  0.68356853  0.85567949  0.29068055  1
  O  O202  1  0.94741408  0.32252196  0.19375046  1
  O  O203  1  0.03892295  0.90185556  0.26089414  1
  O  O204  1  0.76146710  0.43466225  0.34693884  1
  O  O205  1  0.78919832  0.63737803  0.20942512  1
  O  O206  1  0.52030617  0.17132894  0.30294723  1
  O  O207  1  0.91553740  0.12960299  0.33333064  1
  O  O208  1  0.19248911  0.59296064  0.24136028  1
  O  O209  1  0.51767833  0.66201503  0.25577382  1
  O  O210  1  0.24948506  0.20145678  0.34834851  1
  O  O211  1  0.19726237  0.09141107  0.29131141  1
  O  O212  1  0.46595959  0.55321717  0.19656852  1
  O  O213  1  0.44724050  0.82252300  0.24496880  1
  O  O214  1  0.17909936  0.36195820  0.33673039  1
  O  O215  1  0.28313163  0.93101450  0.30523859  1
  O  O216  1  0.55944084  0.39299688  0.20817413  1
  O  O217  1  0.42335013  0.02788768  0.32837237  1
  O  O218  1  0.70837991  0.48883814  0.22841581  1
  O  O219  1  0.29118758  0.73557349  0.21991062  1
  O  O220  1  0.02150913  0.27361098  0.31331553  1
  O  O221  1  0.44001324  0.99942171  0.26858686  1
  O  O222  1  0.18093001  0.52915951  0.36310746  1
  O  O223  1  0.28150000  0.75750663  0.28037543  1
  O  O224  1  0.54691999  0.22530246  0.18179659  1
  O  O225  1  0.81841621  0.68923186  0.27933939  1
  O  O226  1  0.07397739  0.15220715  0.18876416  1
  O  O227  1  0.91232557  0.07092311  0.26308659  1
  O  O228  1  0.64325037  0.59810789  0.35916262  1
  O  O229  1  0.77520980  0.80089102  0.22293743  1
  O  O230  1  0.48631775  0.34082344  0.30795683  1
  O  O231  1  0.96658514  0.95949661  0.32998554  1
  O  O232  1  0.24247548  0.42245686  0.23376828  1
  O  O233  1  0.69788314  0.05062340  0.35007428  1
  O  O234  1  0.97613593  0.51372066  0.25542555  1
  O  O235  1  0.00951387  0.71152454  0.19134284  1
  O  O236  1  0.74327238  0.24471698  0.28425812  1
  O  O237  1  0.74422521  0.97776629  0.24218043  1
  O  O238  1  0.47151422  0.52020510  0.32856421  1
  O  O239  1  0.97750921  0.78109158  0.30788117  1
  O  O240  1  0.24436136  0.24862589  0.20924126  1
  O  O241  1  0.98009784  0.99037818  0.20556806  1
  O  O242  1  0.72072056  0.53674096  0.29780287  1
  O  O243  1  0.74994571  0.74807107  0.34044885  1
  O  O244  1  0.02297647  0.22611352  0.24669486  1
  O  O245  1  0.50910557  0.94565408  0.20112378  1
  O  O246  1  0.21848236  0.49328660  0.29304806  1
  O  O247  1  0.20614220  0.80715895  0.35281172  1
  O  O248  1  0.48812277  0.26257988  0.25015245  1
  O  O249  1  0.45304986  0.40143307  0.37747427  1
  O  O250  1  0.48653623  0.99614532  0.44444339  1
  O  O251  1  0.27052523  0.69440935  0.40220432  1
  O  O252  1  0.65101651  0.64686645  0.42612802  1
  O  O253  1  0.01723937  0.75370471  0.44213396  1
  O  O254  1  0.52553637  0.21374938  0.49384518  1
  O  O255  1  0.93692924  0.61910135  0.38730821  1
  O  O256  1  0.88463997  0.91002748  0.42987314  1
  O  O257  1  0.01656492  0.45794950  0.39625722  1
  O  O258  1  0.16088419  0.54658110  0.42362834  1
  O  O259  1  0.79097989  0.79311557  0.40435129  1
  O  O260  1  0.08234253  0.98850863  0.46579467  1
  O  O261  1  0.75560979  0.82153621  0.46393074  1
  O  O262  1  0.01828697  0.29610302  0.37332564  1
  O  O263  1  0.30922870  0.69783357  0.48529925  1
  O  O264  1  0.56098538  0.23399003  0.36585461  1
  O  O265  1  0.28090271  0.14849945  0.45279916  1
  O  O266  1  0.23396632  0.85655782  0.41463375  1
  O  O267  1  0.71202471  0.47730742  0.42393630  1
  O  O268  1  0.44779008  0.56151067  0.44573249  1
  O  O269  1  0.47842147  0.77550817  0.37992315  1
  O  O270  1  0.29346268  0.35096395  0.48225171  1
  O  O271  1  0.22121594  0.04300376  0.40889848  1
  O  O272  1  0.42285295  0.87816748  0.49958096  1
  O  O273  1  0.73648647  0.30929991  0.39663917  1
  O  O274  1  0.45318531  0.10900916  0.39889975  1
  O  O275  1  0.48741866  0.29439849  0.42602948  1
  O  O276  1  0.92738303  0.04303279  0.38825077  1
  O  O277  1  0.71573848  0.56030078  0.48034284  1
  O  O278  1  0.89715032  0.09555592  0.61788359  1
  O  O279  1  0.50289106  0.05910007  0.57235597  1
  O  O280  1  0.76247041  0.52703120  0.66332337  1
  O  O281  1  0.98527269  0.80534835  0.61897260  1
  O  O282  1  0.63808457  0.82833227  0.65840978  1
  O  O283  1  0.30780834  0.43644265  0.54527822  1
  O  O284  1  0.03035832  0.30556072  0.57222477  1
  O  O285  1  0.28491187  0.77532752  0.66403123  1
  O  O286  1  0.35498729  0.88235922  0.59766100  1
  O  O287  1  0.13221162  0.15022480  0.55611476  1
  O  O288  1  0.35476478  0.61994102  0.64518244  1
  O  O289  1  0.25927400  0.03562982  0.61815865  1
  O  O290  1  0.08546936  0.62585476  0.48885383  1
  O  O291  1  0.11881228  0.93275830  0.63377811  1
  O  O292  1  0.84455321  0.44681969  0.54258766  1
  O  O293  1  0.28814343  0.25352387  0.54542660  1
  O  O294  1  0.49917940  0.72193059  0.62383563  1
  O  O295  1  0.11667487  0.97832136  0.57501517  1
  O  O296  1  0.37562239  0.43775029  0.66840647  1
  O  O297  1  0.25942953  0.20821913  0.60151390  1
  O  O298  1  0.78912822  0.22375542  0.58304130  1
  O  O299  1  0.65885054  0.89373224  0.57293892  1
  O  O300  1  0.92102120  0.36696301  0.67476374  1
  O  O301  1  0.91335959  0.11159634  0.51972963  1
  O  O302  1  0.01717571  0.63973578  0.62797210  1
  O  O303  1  0.57710701  0.97514308  0.63412412  1
  O  O304  1  0.34471026  0.59521200  0.54790003  1
  O  O305  1  0.82988135  0.92734266  0.66961923  1
  O  O306  1  0.55269326  0.46715695  0.57581449  1
  O  O307  1  0.62526208  0.33294280  0.53345791  1
  O  O308  1  0.76893840  0.73452460  0.60079709  1
  O  O309  1  0.81051263  0.00840460  0.56381538  1
  O  O310  1  0.05277901  0.46321010  0.64194676  1
  O  O311  1  0.59120129  0.16712160  0.62167636  1
  O  O312  1  0.11673855  0.81183909  0.52427889  1
  O  O313  1  0.64361737  0.97912869  0.51685497  1
  O  O314  1  0.81515068  0.41762190  0.61438660  1
  O  O315  1  0.77390021  0.23985701  0.65059096  1
  O  O316  1  0.27602680  0.50924191  0.60105292  1
  O  O317  1  0.35052017  0.14568393  0.66328534  1
  O  O318  1  0.02700134  0.69940553  0.56654204  1
  O  O319  1  0.39131760  0.04444850  0.79064386  1
  O  O320  1  0.12646622  0.57735214  0.69380474  1
  O  O321  1  0.03566602  0.99815650  0.76089328  1
  O  O322  1  0.31231043  0.46530390  0.84698105  1
  O  O323  1  0.28557684  0.26288452  0.70937600  1
  O  O324  1  0.55397088  0.72834911  0.80296080  1
  O  O325  1  0.15819525  0.77068157  0.83342841  1
  O  O326  1  0.88221746  0.30691298  0.74143517  1
  O  O327  1  0.55691351  0.23794483  0.75579848  1
  O  O328  1  0.82404041  0.69814354  0.84849963  1
  O  O329  1  0.87706540  0.80846394  0.79143006  1
  O  O330  1  0.60928643  0.34723660  0.69653702  1
  O  O331  1  0.62788974  0.07748118  0.74488260  1
  O  O332  1  0.89520754  0.53771047  0.83682470  1
  O  O333  1  0.79120331  0.96888979  0.80531543  1
  O  O334  1  0.51454106  0.50747486  0.70808746  1
  O  O335  1  0.65036072  0.87205967  0.82830405  1
  O  O336  1  0.36716121  0.41108716  0.72857344  1
  O  O337  1  0.78347465  0.16469097  0.71981613  1
  O  O338  1  0.05242358  0.62645112  0.81350036  1
  O  O339  1  0.63490289  0.90048244  0.76851771  1
  O  O340  1  0.89235291  0.37039984  0.86317669  1
  O  O341  1  0.79346184  0.14259692  0.78026848  1
  O  O342  1  0.52860351  0.67485991  0.68184441  1
  O  O343  1  0.25620750  0.21087374  0.77934489  1
  O  O344  1  0.00113271  0.74780308  0.68890499  1
  O  O345  1  0.16240034  0.82917782  0.76329511  1
  O  O346  1  0.43028510  0.30180572  0.85915759  1
  O  O347  1  0.29994035  0.09934138  0.72296476  1
  O  O348  1  0.58776877  0.55894867  0.80802124  1
  O  O349  1  0.10739227  0.94094369  0.83010685  1
  O  O350  1  0.83107433  0.47753420  0.73394842  1
  O  O351  1  0.37630512  0.84942480  0.84993753  1
  O  O352  1  0.09819624  0.38652775  0.75538783  1
  O  O353  1  0.06566281  0.18847680  0.69131325  1
  O  O354  1  0.33069907  0.65502087  0.78444353  1
  O  O355  1  0.33065500  0.92231250  0.74226748  1
  O  O356  1  0.60238367  0.37968190  0.82865627  1
  O  O357  1  0.09702344  0.11890507  0.80779846  1
  O  O358  1  0.82984259  0.65168361  0.70938142  1
  O  O359  1  0.09524120  0.90944286  0.70564641  1
  O  O360  1  0.35331087  0.36336934  0.79780671  1
  O  O361  1  0.32427095  0.15169855  0.84048076  1
  O  O362  1  0.05174976  0.67374186  0.74678397  1
  O  O363  1  0.56590395  0.95403038  0.70113791  1
  O  O364  1  0.85600864  0.40652153  0.79314623  1
  O  O365  1  0.86736176  0.09340758  0.85265704  1
  O  O366  1  0.58562663  0.63723605  0.75020353  1
  O  O367  1  0.62102031  0.49879183  0.87756427  1
  O  O368  1  0.58941592  0.90428133  0.94446097  1
  O  O369  1  0.80395883  0.20576859  0.90218729  1
  O  O370  1  0.42305469  0.25300859  0.92612982  1
  O  O371  1  0.05723405  0.14612571  0.94234672  1
  O  O372  1  0.55052707  0.68664435  0.99385836  1
  O  O373  1  0.13660587  0.28061407  0.88735953  1
  O  O374  1  0.19019248  0.98975785  0.93034464  1
  O  O375  1  0.05724938  0.44177034  0.89609547  1
  O  O376  1  0.91301659  0.35357660  0.92371801  1
  O  O377  1  0.28302656  0.10656445  0.90443777  1
  O  O378  1  0.99166838  0.91128728  0.96576418  1
  O  O379  1  0.31941139  0.07881425  0.96404106  1
  O  O380  1  0.05558541  0.60374630  0.87346767  1
  O  O381  1  0.76563791  0.20226942  0.98542649  1
  O  O382  1  0.51210913  0.66621729  0.86602277  1
  O  O383  1  0.79451575  0.75135262  0.95231177  1
  O  O384  1  0.84079793  0.04365414  0.91447165  1
  O  O385  1  0.36182637  0.42237004  0.92400128  1
  O  O386  1  0.62664448  0.33830715  0.94568192  1
  O  O387  1  0.59556052  0.12473443  0.87995493  1
  O  O388  1  0.78178431  0.54911702  0.98212133  1
  O  O389  1  0.85329809  0.85746991  0.90854306  1
  O  O390  1  0.65272963  0.02285251  0.99954386  1
  O  O391  1  0.33730657  0.59040834  0.89680925  1
  O  O392  1  0.62045309  0.79192842  0.89875927  1
  O  O393  1  0.58602502  0.60583080  0.92619812  1
  O  O394  1  0.14761132  0.85739170  0.88832104  1
  O  O395  1  0.35932731  0.33926791  0.98042429  1
