# generated using pymatgen
data_LiCl
_symmetry_space_group_name_H-M   'P 1'
_cell_length_a   7.28262900
_cell_length_b   11.51484813
_cell_length_c   44.62983800
_cell_angle_alpha   90.00000000
_cell_angle_beta   90.00000000
_cell_angle_gamma   71.56504960
_symmetry_Int_Tables_number   1
_chemical_formula_structural   LiCl
_chemical_formula_sum   'Li64 Cl64'
_cell_volume   3550.52816207
_cell_formula_units_Z   64
loop_
 _symmetry_equiv_pos_site_id
 _symmetry_equiv_pos_as_xyz
  1  'x, y, z'
loop_
 _atom_site_type_symbol
 _atom_site_label
 _atom_site_symmetry_multiplicity
 _atom_site_fract_x
 _atom_site_fract_y
 _atom_site_fract_z
 _atom_site_occupancy
  Li  Li0  1  0.59511602  0.93814309  0.06571973  1
  Li  Li1  1  0.85022385  0.43244727  0.03567835  1
  Li  Li2  1  0.09512743  0.93812359  0.06571807  1
  Li  Li3  1  0.35020736  0.43241004  0.03568615  1
  Li  Li4  1  0.72907508  0.17029840  0.01678380  1
  Li  Li5  1  0.93514925  0.75916069  0.01695869  1
  Li  Li6  1  0.22907815  0.17026122  0.01678862  1
  Li  Li7  1  0.43515237  0.75914198  0.01695689  1
  Li  Li8  1  0.16369614  0.79467457  0.14297002  1
  Li  Li9  1  0.39465015  0.33703557  0.10664807  1
  Li  Li10  1  0.66378444  0.79454137  0.14294245  1
  Li  Li11  1  0.89460806  0.33694178  0.10662758  1
  Li  Li12  1  0.27334856  0.07836496  0.12323642  1
  Li  Li13  1  0.50415349  0.61517813  0.09271014  1
  Li  Li14  1  0.77333940  0.07835631  0.12323443  1
  Li  Li15  1  0.00424118  0.61514281  0.09268875  1
  Li  Li16  1  0.72123192  0.68142194  0.22108412  1
  Li  Li17  1  0.94492913  0.23318588  0.18326205  1
  Li  Li18  1  0.22123171  0.68142086  0.22108384  1
  Li  Li19  1  0.44492408  0.23318299  0.18326213  1
  Li  Li20  1  0.83401456  0.95671786  0.20116259  1
  Li  Li21  1  0.05663609  0.51212389  0.16594737  1
  Li  Li22  1  0.33401883  0.95672082  0.20116261  1
  Li  Li23  1  0.55664418  0.51212339  0.16594900  1
  Li  Li24  1  0.27720110  0.57106375  0.29773328  1
  Li  Li25  1  0.50014674  0.12402309  0.25967860  1
  Li  Li26  1  0.77718481  0.57106277  0.29773297  1
  Li  Li27  1  0.00014905  0.12402493  0.25967872  1
  Li  Li28  1  0.38863273  0.84848604  0.27861443  1
  Li  Li29  1  0.61108674  0.40166906  0.24126324  1
  Li  Li30  1  0.88863395  0.84848764  0.27861439  1
  Li  Li31  1  0.11108737  0.40166720  0.24126291  1
  Li  Li32  1  0.83351990  0.45953488  0.37405955  1
  Li  Li33  1  0.05611182  0.01497547  0.33662046  1
  Li  Li34  1  0.33349345  0.45953396  0.37406780  1
  Li  Li35  1  0.55610815  0.01497854  0.33662119  1
  Li  Li36  1  0.94392497  0.73855260  0.35528838  1
  Li  Li37  1  0.16821229  0.29091492  0.31739004  1
  Li  Li38  1  0.44393252  0.73854333  0.35528827  1
  Li  Li39  1  0.66820108  0.29092165  0.31739067  1
  Li  Li40  1  0.38889377  0.34925153  0.44937183  1
  Li  Li41  1  0.61103690  0.90344835  0.41427594  1
  Li  Li42  1  0.88881848  0.34902308  0.44938204  1
  Li  Li43  1  0.11103619  0.90342504  0.41427300  1
  Li  Li44  1  0.49900712  0.62724534  0.43212763  1
  Li  Li45  1  0.72302219  0.17869342  0.39441051  1
  Li  Li46  1  0.99889981  0.62726021  0.43213874  1
  Li  Li47  1  0.22310108  0.17862960  0.39444116  1
  Li  Li48  1  0.93952621  0.24578112  0.52222962  1
  Li  Li49  1  0.17037633  0.78253217  0.49241232  1
  Li  Li50  1  0.43952473  0.24577765  0.52222605  1
  Li  Li51  1  0.67028653  0.78246329  0.49243137  1
  Li  Li52  1  0.05065746  0.52298626  0.50862878  1
  Li  Li53  1  0.28053328  0.06591488  0.47240994  1
  Li  Li54  1  0.55063299  0.52297215  0.50862391  1
  Li  Li55  1  0.78056423  0.06572959  0.47240262  1
  Li  Li56  1  0.50826558  0.10209790  0.59889500  1
  Li  Li57  1  0.71593349  0.69039285  0.59819039  1
  Li  Li58  1  0.00827076  0.10209395  0.59889625  1
  Li  Li59  1  0.21593043  0.69039288  0.59819053  1
  Li  Li60  1  0.59843682  0.42829605  0.57985371  1
  Li  Li61  1  0.85148022  0.92182445  0.55000070  1
  Li  Li62  1  0.09842351  0.42829536  0.57985429  1
  Li  Li63  1  0.35148547  0.92174974  0.55000622  1
  Cl  Cl64  1  0.92583280  0.27684240  0.00156858  1
  Cl  Cl65  1  0.73971568  0.65026631  0.02946329  1
  Cl  Cl66  1  0.83398876  0.96017687  0.02787766  1
  Cl  Cl67  1  0.60710030  0.41516196  0.06988170  1
  Cl  Cl68  1  0.33402527  0.96015523  0.02787785  1
  Cl  Cl69  1  0.10711364  0.41517039  0.06988824  1
  Cl  Cl70  1  0.42573888  0.27689137  0.00157046  1
  Cl  Cl71  1  0.23965307  0.65025161  0.02946142  1
  Cl  Cl72  1  0.49828711  0.12831490  0.08928814  1
  Cl  Cl73  1  0.27687480  0.57032738  0.12646359  1
  Cl  Cl74  1  0.39382569  0.83459054  0.10113511  1
  Cl  Cl75  1  0.16459342  0.29447751  0.14598699  1
  Cl  Cl76  1  0.89383231  0.83458503  0.10113932  1
  Cl  Cl77  1  0.66460782  0.29448182  0.14598530  1
  Cl  Cl78  1  0.99832396  0.12827409  0.08928713  1
  Cl  Cl79  1  0.77688312  0.57032838  0.12646215  1
  Cl  Cl80  1  0.05667561  0.00982959  0.16296988  1
  Cl  Cl81  1  0.83239950  0.45869417  0.20304810  1
  Cl  Cl82  1  0.94349678  0.73563444  0.18231040  1
  Cl  Cl83  1  0.72220719  0.17930548  0.22129873  1
  Cl  Cl84  1  0.44348861  0.73563750  0.18230913  1
  Cl  Cl85  1  0.22221341  0.17930176  0.22130134  1
  Cl  Cl86  1  0.55667349  0.00979346  0.16296733  1
  Cl  Cl87  1  0.33240865  0.45869151  0.20304765  1
  Cl  Cl88  1  0.61065730  0.90268089  0.24020034  1
  Cl  Cl89  1  0.38869531  0.34695590  0.27903043  1
  Cl  Cl90  1  0.49890874  0.62591800  0.25972706  1
  Cl  Cl91  1  0.27749075  0.06963901  0.29801908  1
  Cl  Cl92  1  0.99895036  0.62592981  0.25972250  1
  Cl  Cl93  1  0.77748843  0.06964106  0.29801008  1
  Cl  Cl94  1  0.11065850  0.90268505  0.24019942  1
  Cl  Cl95  1  0.88870201  0.34695941  0.27903044  1
  Cl  Cl96  1  0.16672454  0.79284320  0.31718645  1
  Cl  Cl97  1  0.94485783  0.23596244  0.35564215  1
  Cl  Cl98  1  0.05539262  0.51489693  0.33621981  1
  Cl  Cl99  1  0.83302775  0.95914921  0.37508466  1
  Cl  Cl100  1  0.55539047  0.51489355  0.33622007  1
  Cl  Cl101  1  0.33302158  0.95911749  0.37509999  1
  Cl  Cl102  1  0.66672334  0.79284397  0.31718709  1
  Cl  Cl103  1  0.44484806  0.23596196  0.35564110  1
  Cl  Cl104  1  0.72159540  0.68219304  0.39400737  1
  Cl  Cl105  1  0.49978058  0.12489800  0.43312616  1
  Cl  Cl106  1  0.61153738  0.40233324  0.41235787  1
  Cl  Cl107  1  0.38633516  0.85074006  0.45249689  1
  Cl  Cl108  1  0.11152868  0.40232848  0.41235906  1
  Cl  Cl109  1  0.88636115  0.85073586  0.45249519  1
  Cl  Cl110  1  0.22158523  0.68217930  0.39400825  1
  Cl  Cl111  1  0.99978181  0.12486938  0.43313114  1
  Cl  Cl112  1  0.27869162  0.56648567  0.46947389  1
  Cl  Cl113  1  0.04901042  0.02636634  0.51426843  1
  Cl  Cl114  1  0.16690186  0.29086116  0.48873803  1
  Cl  Cl115  1  0.94531329  0.73229032  0.52626657  1
  Cl  Cl116  1  0.66692094  0.29084555  0.48873761  1
  Cl  Cl117  1  0.44534890  0.73221221  0.52627106  1
  Cl  Cl118  1  0.77868465  0.56648065  0.46947407  1
  Cl  Cl119  1  0.54898511  0.02640214  0.51426816  1
  Cl  Cl120  1  0.83985526  0.44486639  0.54548113  1
  Cl  Cl121  1  0.61174926  0.90102736  0.58764127  1
  Cl  Cl122  1  0.70393387  0.21125848  0.58677871  1
  Cl  Cl123  1  0.51858003  0.58474447  0.61363774  1
  Cl  Cl124  1  0.20392824  0.21127060  0.58678145  1
  Cl  Cl125  1  0.01858414  0.58474180  0.61363819  1
  Cl  Cl126  1  0.33985474  0.44486312  0.54547887  1
  Cl  Cl127  1  0.11174317  0.90102073  0.58764536  1
