# generated using pymatgen
data_LiCl
_symmetry_space_group_name_H-M   'P 1'
_cell_length_a   7.28262900
_cell_length_b   7.28262949
_cell_length_c   44.59681500
_cell_angle_alpha   90.00000000
_cell_angle_beta   90.00000000
_cell_angle_gamma   59.99999769
_symmetry_Int_Tables_number   1
_chemical_formula_structural   LiCl
_chemical_formula_sum   'Li32 Cl32'
_cell_volume   2048.38160388
_cell_formula_units_Z   32
loop_
 _symmetry_equiv_pos_site_id
 _symmetry_equiv_pos_as_xyz
  1  'x, y, z'
loop_
 _atom_site_type_symbol
 _atom_site_label
 _atom_site_symmetry_multiplicity
 _atom_site_fract_x
 _atom_site_fract_y
 _atom_site_fract_z
 _atom_site_occupancy
  Li  Li0  1  0.79996539  0.77350856  0.97814877  1
  Li  Li1  1  0.45661669  0.51140462  0.99081722  1
  Li  Li2  1  0.79788937  0.12670720  0.02521945  1
  Li  Li3  1  0.34110370  0.10318029  0.98806042  1
  Li  Li4  1  0.51279346  0.44603997  0.09605036  1
  Li  Li5  1  0.96639172  0.45181990  0.04193581  1
  Li  Li6  1  0.44595337  0.99787325  0.08319217  1
  Li  Li7  1  0.15882773  0.75270765  0.05583698  1
  Li  Li8  1  0.92335247  0.24867256  0.18700277  1
  Li  Li9  1  0.50825879  0.19690738  0.16526038  1
  Li  Li10  1  0.02130871  0.66631254  0.12305476  1
  Li  Li11  1  0.46853899  0.75359391  0.14795179  1
  Li  Li12  1  0.98097682  0.68853234  0.20975330  1
  Li  Li13  1  0.42542739  0.76182905  0.23068808  1
  Li  Li14  1  0.96051156  0.31801388  0.27197552  1
  Li  Li15  1  0.50997153  0.21902666  0.24939652  1
  Li  Li16  1  0.29053780  0.55442379  0.30059478  1
  Li  Li17  1  0.88072426  0.55822174  0.36200541  1
  Li  Li18  1  0.32945954  0.03800035  0.31968932  1
  Li  Li19  1  0.79923204  0.10042240  0.33922577  1
  Li  Li20  1  0.87219720  0.15708623  0.41863001  1
  Li  Li21  1  0.42829063  0.09119862  0.40093033  1
  Li  Li22  1  0.96290874  0.60874838  0.44518168  1
  Li  Li23  1  0.32994147  0.65075700  0.38347308  1
  Li  Li24  1  0.91137136  0.43946042  0.51193956  1
  Li  Li25  1  0.18828632  0.64899112  0.52393543  1
  Li  Li26  1  0.64227799  0.18192049  0.48490574  1
  Li  Li27  1  0.19642910  0.10720875  0.46884695  1
  Li  Li28  1  0.54131116  0.25466742  0.57608878  1
  Li  Li29  1  0.13407080  0.14169849  0.57489908  1
  Li  Li30  1  0.51911062  0.80610133  0.53932338  1
  Li  Li31  1  0.86714189  0.79432863  0.58801453  1
  Cl  Cl32  1  0.50199215  0.76208896  0.96553775  1
  Cl  Cl33  1  0.66209463  0.14118820  0.97761445  1
  Cl  Cl34  1  0.78212181  0.85558726  0.05027956  1
  Cl  Cl35  1  0.60777536  0.47331406  0.04386528  1
  Cl  Cl36  1  0.12730584  0.50196461  0.99472126  1
  Cl  Cl37  1  0.15198895  0.04851145  0.02923347  1
  Cl  Cl38  1  0.24616267  0.82273578  0.10359714  1
  Cl  Cl39  1  0.21929839  0.38608819  0.08246117  1
  Cl  Cl40  1  0.68716104  0.38427924  0.14247663  1
  Cl  Cl41  1  0.65373128  0.91721055  0.12776398  1
  Cl  Cl42  1  0.79801150  0.51142200  0.22812081  1
  Cl  Cl43  1  0.73289914  0.06233211  0.20830071  1
  Cl  Cl44  1  0.27294248  0.95363929  0.18757645  1
  Cl  Cl45  1  0.15256424  0.48423434  0.16718136  1
  Cl  Cl46  1  0.66819591  0.28056054  0.29508350  1
  Cl  Cl47  1  0.33689238  0.03102521  0.26766972  1
  Cl  Cl48  1  0.24241460  0.58825464  0.24874539  1
  Cl  Cl49  1  0.08052344  0.40837533  0.31973981  1
  Cl  Cl50  1  0.17263330  0.83896801  0.33882737  1
  Cl  Cl51  1  0.15445228  0.46450088  0.40092256  1
  Cl  Cl52  1  0.69733785  0.37742690  0.37848385  1
  Cl  Cl53  1  0.61365623  0.92650369  0.35679430  1
  Cl  Cl54  1  0.81870362  0.37514539  0.46291805  1
  Cl  Cl55  1  0.70636549  0.97639708  0.43902299  1
  Cl  Cl56  1  0.24392190  0.92567837  0.42322995  1
  Cl  Cl57  1  0.25349823  0.39938841  0.48381292  1
  Cl  Cl58  1  0.78835569  0.83043850  0.51554405  1
  Cl  Cl59  1  0.59627322  0.45186557  0.53568801  1
  Cl  Cl60  1  0.13869319  0.47183539  0.56941168  1
  Cl  Cl61  1  0.17228055  0.00313925  0.52071745  1
  Cl  Cl62  1  0.50043569  0.93650949  0.58743488  1
  Cl  Cl63  1  0.88147229  0.09336037  0.59852937  1
