# generated using pymatgen
data_LiCl
_symmetry_space_group_name_H-M   'P 1'
_cell_length_a   11.51484800
_cell_length_b   11.51484825
_cell_length_c   42.04628100
_cell_angle_alpha   90.00000000
_cell_angle_beta   90.00000000
_cell_angle_gamma   78.46303919
_symmetry_Int_Tables_number   1
_chemical_formula_structural   LiCl
_chemical_formula_sum   'Li96 Cl96'
_cell_volume   5462.35133973
_cell_formula_units_Z   96
loop_
 _symmetry_equiv_pos_site_id
 _symmetry_equiv_pos_as_xyz
  1  'x, y, z'
loop_
 _atom_site_type_symbol
 _atom_site_label
 _atom_site_symmetry_multiplicity
 _atom_site_fract_x
 _atom_site_fract_y
 _atom_site_fract_z
 _atom_site_occupancy
  Li  Li0  1  0.35445413  0.35445515  0.08939695  1
  Li  Li1  1  0.85445432  0.85445492  0.08939728  1
  Li  Li2  1  0.92107883  0.42107855  0.03639954  1
  Li  Li3  1  0.42107889  0.92107851  0.03639956  1
  Li  Li4  1  0.66177651  0.41177696  0.05442967  1
  Li  Li5  1  0.16177643  0.91177576  0.05442933  1
  Li  Li6  1  0.24414589  0.49414054  0.02617978  1
  Li  Li7  1  0.74414351  0.99414706  0.02618037  1
  Li  Li8  1  0.41177555  0.66177611  0.05442968  1
  Li  Li9  1  0.91177681  0.16177739  0.05442961  1
  Li  Li10  1  0.99414865  0.74414299  0.02618033  1
  Li  Li11  1  0.49414497  0.24414785  0.02618025  1
  Li  Li12  1  0.67107715  0.67107880  0.03639959  1
  Li  Li13  1  0.17107919  0.17107887  0.03639957  1
  Li  Li14  1  0.10445437  0.60445457  0.08939657  1
  Li  Li15  1  0.60445447  0.10445487  0.08939705  1
  Li  Li16  1  0.18638243  0.18638244  0.18749937  1
  Li  Li17  1  0.68638237  0.68638235  0.18749940  1
  Li  Li18  1  0.76762628  0.26762643  0.13641681  1
  Li  Li19  1  0.26762646  0.76762598  0.13641678  1
  Li  Li20  1  0.47895981  0.22895998  0.16233040  1
  Li  Li21  1  0.97895990  0.72895980  0.16233044  1
  Li  Li22  1  0.05990859  0.30990853  0.11303855  1
  Li  Li23  1  0.55990821  0.80990806  0.11303863  1
  Li  Li24  1  0.22895986  0.47896002  0.16233031  1
  Li  Li25  1  0.72895995  0.97895985  0.16233044  1
  Li  Li26  1  0.80990805  0.55990835  0.11303862  1
  Li  Li27  1  0.30990828  0.05990838  0.11303859  1
  Li  Li28  1  0.51762609  0.51762648  0.13641674  1
  Li  Li29  1  0.01762632  0.01762641  0.13641682  1
  Li  Li30  1  0.93638236  0.43638242  0.18749938  1
  Li  Li31  1  0.43638242  0.93638237  0.18749939  1
  Li  Li32  1  0.02083253  0.02083252  0.28752027  1
  Li  Li33  1  0.52083253  0.52083253  0.28752031  1
  Li  Li34  1  0.60382546  0.10382545  0.23728170  1
  Li  Li35  1  0.10382546  0.60382545  0.23728171  1
  Li  Li36  1  0.31224054  0.06224054  0.26247217  1
  Li  Li37  1  0.81224052  0.56224051  0.26247217  1
  Li  Li38  1  0.89573530  0.14573530  0.21247427  1
  Li  Li39  1  0.39573531  0.64573530  0.21247427  1
  Li  Li40  1  0.06224056  0.31224055  0.26247216  1
  Li  Li41  1  0.56224055  0.81224053  0.26247216  1
  Li  Li42  1  0.64573536  0.39573536  0.21247428  1
  Li  Li43  1  0.14573534  0.89573534  0.21247429  1
  Li  Li44  1  0.35382544  0.35382546  0.23728168  1
  Li  Li45  1  0.85382547  0.85382546  0.23728170  1
  Li  Li46  1  0.77083249  0.27083248  0.28752028  1
  Li  Li47  1  0.27083248  0.77083249  0.28752027  1
  Li  Li48  1  0.85426468  0.85426469  0.38752571  1
  Li  Li49  1  0.35426470  0.35426471  0.38752572  1
  Li  Li50  1  0.43775947  0.93775946  0.33752782  1
  Li  Li51  1  0.93775947  0.43775946  0.33752783  1
  Li  Li52  1  0.14617444  0.89617443  0.36271832  1
  Li  Li53  1  0.64617442  0.39617442  0.36271837  1
  Li  Li54  1  0.72916733  0.97916734  0.31247973  1
  Li  Li55  1  0.22916735  0.47916733  0.31247972  1
  Li  Li56  1  0.89617442  0.14617443  0.36271833  1
  Li  Li57  1  0.39617443  0.64617440  0.36271834  1
  Li  Li58  1  0.47916737  0.22916737  0.31247972  1
  Li  Li59  1  0.97916735  0.72916735  0.31247971  1
  Li  Li60  1  0.18775942  0.18775943  0.33752783  1
  Li  Li61  1  0.68775943  0.68775943  0.33752783  1
  Li  Li62  1  0.60426467  0.10426467  0.38752566  1
  Li  Li63  1  0.10426466  0.60426464  0.38752565  1
  Li  Li64  1  0.69009141  0.69009131  0.48696157  1
  Li  Li65  1  0.19009240  0.19009202  0.48696139  1
  Li  Li66  1  0.27104018  0.77103999  0.43766952  1
  Li  Li67  1  0.77103998  0.27104008  0.43766965  1
  Li  Li68  1  0.98237361  0.73237344  0.46358316  1
  Li  Li69  1  0.48237364  0.23237415  0.46358338  1
  Li  Li70  1  0.56361752  0.81361763  0.41250063  1
  Li  Li71  1  0.06361765  0.31361760  0.41250062  1
  Li  Li72  1  0.73237341  0.98237394  0.46358320  1
  Li  Li73  1  0.23237435  0.48237328  0.46358330  1
  Li  Li74  1  0.31361760  0.06361761  0.41250062  1
  Li  Li75  1  0.81361758  0.56361749  0.41250064  1
  Li  Li76  1  0.02104002  0.02104010  0.43766952  1
  Li  Li77  1  0.52103996  0.52103981  0.43766981  1
  Li  Li78  1  0.44009182  0.94009228  0.48696142  1
  Li  Li79  1  0.94009178  0.44009157  0.48696149  1
  Li  Li80  1  0.50585994  0.50585706  0.57382045  1
  Li  Li81  1  0.00585131  0.00585780  0.57382001  1
  Li  Li82  1  0.08822491  0.58822312  0.54557047  1
  Li  Li83  1  0.58822482  0.08822548  0.54557042  1
  Li  Li84  1  0.82892086  0.57892112  0.56360034  1
  Li  Li85  1  0.32892295  0.07892333  0.56360028  1
  Li  Li86  1  0.39554600  0.64554474  0.51060347  1
  Li  Li87  1  0.89554560  0.14554522  0.51060315  1
  Li  Li88  1  0.57892107  0.82892156  0.56360035  1
  Li  Li89  1  0.07892334  0.32892151  0.56360033  1
  Li  Li90  1  0.14554552  0.89554506  0.51060245  1
  Li  Li91  1  0.64554546  0.39554531  0.51060356  1
  Li  Li92  1  0.83822338  0.83822407  0.54557050  1
  Li  Li93  1  0.33822566  0.33822517  0.54557006  1
  Li  Li94  1  0.25586009  0.75584707  0.57381991  1
  Li  Li95  1  0.75584832  0.25586309  0.57382039  1
  Cl  Cl96  1  0.49399347  0.74399362  0.01149352  1
  Cl  Cl97  1  0.99399418  0.24399452  0.01149344  1
  Cl  Cl98  1  0.89849730  0.64850285  0.06155638  1
  Cl  Cl99  1  0.39850237  0.14850210  0.06155565  1
  Cl  Cl100  1  0.44059541  0.44059562  0.03445863  1
  Cl  Cl101  1  0.94059486  0.94059677  0.03445891  1
  Cl  Cl102  1  0.85289987  0.35289972  0.08750944  1
  Cl  Cl103  1  0.35289790  0.85289832  0.08750891  1
  Cl  Cl104  1  0.74399435  0.49399433  0.01149335  1
  Cl  Cl105  1  0.24399375  0.99399427  0.01149350  1
  Cl  Cl106  1  0.14850146  0.39850026  0.06155604  1
  Cl  Cl107  1  0.64850157  0.89850212  0.06155550  1
  Cl  Cl108  1  0.60289957  0.60289983  0.08750953  1
  Cl  Cl109  1  0.10290013  0.10289968  0.08750948  1
  Cl  Cl110  1  0.19060272  0.69059289  0.03445832  1
  Cl  Cl111  1  0.69059452  0.19059678  0.03445864  1
  Cl  Cl112  1  0.31035180  0.56035341  0.11239434  1
  Cl  Cl113  1  0.81035219  0.06035231  0.11239493  1
  Cl  Cl114  1  0.72777409  0.47777415  0.16238699  1
  Cl  Cl115  1  0.22777431  0.97777407  0.16238694  1
  Cl  Cl116  1  0.26889820  0.26889817  0.13710259  1
  Cl  Cl117  1  0.76889781  0.76889832  0.13710262  1
  Cl  Cl118  1  0.68659099  0.18659109  0.18745727  1
  Cl  Cl119  1  0.18659120  0.68659099  0.18745726  1
  Cl  Cl120  1  0.56035232  0.31035250  0.11239482  1
  Cl  Cl121  1  0.06035199  0.81035229  0.11239466  1
  Cl  Cl122  1  0.97777418  0.22777406  0.16238701  1
  Cl  Cl123  1  0.47777393  0.72777420  0.16238694  1
  Cl  Cl124  1  0.43659091  0.43659131  0.18745718  1
  Cl  Cl125  1  0.93659117  0.93659112  0.18745730  1
  Cl  Cl126  1  0.01889813  0.51889806  0.13710255  1
  Cl  Cl127  1  0.51889759  0.01889767  0.13710238  1
  Cl  Cl128  1  0.14507193  0.39507194  0.21223381  1
  Cl  Cl129  1  0.64507186  0.89507197  0.21223380  1
  Cl  Cl130  1  0.56235658  0.31235661  0.26247681  1
  Cl  Cl131  1  0.06235661  0.81235655  0.26247682  1
  Cl  Cl132  1  0.10381090  0.10381080  0.23748720  1
  Cl  Cl133  1  0.60381083  0.60381086  0.23748720  1
  Cl  Cl134  1  0.52072588  0.02072589  0.28740445  1
  Cl  Cl135  1  0.02072590  0.52072589  0.28740444  1
  Cl  Cl136  1  0.39507195  0.14507192  0.21223378  1
  Cl  Cl137  1  0.89507198  0.64507192  0.21223380  1
  Cl  Cl138  1  0.81235656  0.06235660  0.26247682  1
  Cl  Cl139  1  0.31235658  0.56235658  0.26247682  1
  Cl  Cl140  1  0.27072590  0.27072590  0.28740445  1
  Cl  Cl141  1  0.77072590  0.77072589  0.28740444  1
  Cl  Cl142  1  0.85381088  0.35381086  0.23748721  1
  Cl  Cl143  1  0.35381084  0.85381087  0.23748721  1
  Cl  Cl144  1  0.97927372  0.22927378  0.31259550  1
  Cl  Cl145  1  0.47927373  0.72927375  0.31259550  1
  Cl  Cl146  1  0.39618880  0.14618881  0.36251276  1
  Cl  Cl147  1  0.89618878  0.64618878  0.36251273  1
  Cl  Cl148  1  0.93764298  0.93764301  0.33752314  1
  Cl  Cl149  1  0.43764303  0.43764298  0.33752316  1
  Cl  Cl150  1  0.35492769  0.85492758  0.38776614  1
  Cl  Cl151  1  0.85492760  0.35492763  0.38776612  1
  Cl  Cl152  1  0.22927378  0.97927370  0.31259550  1
  Cl  Cl153  1  0.72927377  0.47927372  0.31259550  1
  Cl  Cl154  1  0.64618876  0.89618880  0.36251273  1
  Cl  Cl155  1  0.14618880  0.39618877  0.36251274  1
  Cl  Cl156  1  0.10492766  0.10492765  0.38776615  1
  Cl  Cl157  1  0.60492761  0.60492763  0.38776613  1
  Cl  Cl158  1  0.68764296  0.18764306  0.33752315  1
  Cl  Cl159  1  0.18764308  0.68764294  0.33752314  1
  Cl  Cl160  1  0.81340836  0.06340870  0.41254268  1
  Cl  Cl161  1  0.31340891  0.56340820  0.41254279  1
  Cl  Cl162  1  0.23110186  0.98110183  0.46289737  1
  Cl  Cl163  1  0.73110123  0.48110125  0.46289725  1
  Cl  Cl164  1  0.77222529  0.77222555  0.43761296  1
  Cl  Cl165  1  0.27222559  0.27222553  0.43761306  1
  Cl  Cl166  1  0.18964764  0.68964765  0.48760526  1
  Cl  Cl167  1  0.68964816  0.18964647  0.48760583  1
  Cl  Cl168  1  0.06340855  0.81340845  0.41254265  1
  Cl  Cl169  1  0.56340840  0.31340859  0.41254290  1
  Cl  Cl170  1  0.48110182  0.73110175  0.46289745  1
  Cl  Cl171  1  0.98110208  0.23110163  0.46289742  1
  Cl  Cl172  1  0.93964797  0.93964763  0.48760516  1
  Cl  Cl173  1  0.43964701  0.43964678  0.48760613  1
  Cl  Cl174  1  0.52222543  0.02222551  0.43761305  1
  Cl  Cl175  1  0.02222556  0.52222528  0.43761297  1
  Cl  Cl176  1  0.64710173  0.89710165  0.51249101  1
  Cl  Cl177  1  0.14710181  0.39710199  0.51249098  1
  Cl  Cl178  1  0.05940483  0.80940269  0.56554072  1
  Cl  Cl179  1  0.55939744  0.30940700  0.56554163  1
  Cl  Cl180  1  0.60149968  0.60149991  0.53844355  1
  Cl  Cl181  1  0.10150274  0.10149730  0.53844391  1
  Cl  Cl182  1  0.00600551  0.50600564  0.58850656  1
  Cl  Cl183  1  0.50600672  0.00600605  0.58850650  1
  Cl  Cl184  1  0.89709984  0.64709995  0.51249044  1
  Cl  Cl185  1  0.39710219  0.14710186  0.51249089  1
  Cl  Cl186  1  0.30940807  0.55939600  0.56554162  1
  Cl  Cl187  1  0.80939671  0.05940686  0.56554132  1
  Cl  Cl188  1  0.75600578  0.75600528  0.58850647  1
  Cl  Cl189  1  0.25600681  0.25600682  0.58850649  1
  Cl  Cl190  1  0.35149712  0.85150219  0.53844375  1
  Cl  Cl191  1  0.85150297  0.35149848  0.53844317  1
