# generated using pymatgen
data_LiCl
_symmetry_space_group_name_H-M   'P 1'
_cell_length_a   5.14959700
_cell_length_b   11.51484800
_cell_length_c   46.05939300
_cell_angle_alpha   90.00000000
_cell_angle_beta   90.00000000
_cell_angle_gamma   90.00000000
_symmetry_Int_Tables_number   1
_chemical_formula_structural   LiCl
_chemical_formula_sum   'Li48 Cl48'
_cell_volume   2731.17584538
_cell_formula_units_Z   48
loop_
 _symmetry_equiv_pos_site_id
 _symmetry_equiv_pos_as_xyz
  1  'x, y, z'
loop_
 _atom_site_type_symbol
 _atom_site_label
 _atom_site_symmetry_multiplicity
 _atom_site_fract_x
 _atom_site_fract_y
 _atom_site_fract_z
 _atom_site_occupancy
  Li  Li0  1  0.00000002  0.41025494  0.04162460  1
  Li  Li1  1  0.00000000  0.82889193  0.08869686  1
  Li  Li2  1  0.00000001  0.12749121  0.05799169  1
  Li  Li3  1  0.00000000  0.74278342  0.01883962  1
  Li  Li4  1  0.49999999  0.32889079  0.08869671  1
  Li  Li5  1  0.49999999  0.91025564  0.04162488  1
  Li  Li6  1  0.50000000  0.24278268  0.01883986  1
  Li  Li7  1  0.50000000  0.62749099  0.05799140  1
  Li  Li8  1  0.00000000  0.22050134  0.13832584  1
  Li  Li9  1  0.00000000  0.62278801  0.18800372  1
  Li  Li10  1  0.00000000  0.92271611  0.16283093  1
  Li  Li11  1  0.00000001  0.52371311  0.11367641  1
  Li  Li12  1  0.50000000  0.12278749  0.18800368  1
  Li  Li13  1  0.50000000  0.72050229  0.13832596  1
  Li  Li14  1  0.50000000  0.02371286  0.11367630  1
  Li  Li15  1  0.50000000  0.42271577  0.16283115  1
  Li  Li16  1  0.00000000  0.02382691  0.23745343  1
  Li  Li17  1  0.00000000  0.42505365  0.28756424  1
  Li  Li18  1  0.00000000  0.72597403  0.26269735  1
  Li  Li19  1  0.00000000  0.32420925  0.21288124  1
  Li  Li20  1  0.50000000  0.92505351  0.28756422  1
  Li  Li21  1  0.50000000  0.52382697  0.23745348  1
  Li  Li22  1  0.50000000  0.82420957  0.21288113  1
  Li  Li23  1  0.50000000  0.22597414  0.26269735  1
  Li  Li24  1  0.00000000  0.82543019  0.33753442  1
  Li  Li25  1  0.00000000  0.22551599  0.38708829  1
  Li  Li26  1  0.00000000  0.52561706  0.36234889  1
  Li  Li27  1  0.00000000  0.12632878  0.31245598  1
  Li  Li28  1  0.50000000  0.72551617  0.38708844  1
  Li  Li29  1  0.50000000  0.32543015  0.33753424  1
  Li  Li30  1  0.50000000  0.62632898  0.31245601  1
  Li  Li31  1  0.50000000  0.02561589  0.36234909  1
  Li  Li32  1  1.00000000  0.62572335  0.43716035  1
  Li  Li33  1  0.99999999  0.02739837  0.48623653  1
  Li  Li34  1  0.00000000  0.32975051  0.46166887  1
  Li  Li35  1  0.00000000  0.92640336  0.41195754  1
  Li  Li36  1  0.50000000  0.52739864  0.48623677  1
  Li  Li37  1  0.50000000  0.12572190  0.43716043  1
  Li  Li38  1  0.50000000  0.42640291  0.41195734  1
  Li  Li39  1  0.50000001  0.82975062  0.46166871  1
  Li  Li40  1  0.00000000  0.42266764  0.54211376  1
  Li  Li41  1  0.00000000  0.80564843  0.58119071  1
  Li  Li42  1  0.99999998  0.13867847  0.55823758  1
  Li  Li43  1  0.00000001  0.72110893  0.51147512  1
  Li  Li44  1  0.50000000  0.30564824  0.58119066  1
  Li  Li45  1  0.50000000  0.92266752  0.54211377  1
  Li  Li46  1  0.50000000  0.22110732  0.51147529  1
  Li  Li47  1  0.49999999  0.63867878  0.55823735  1
  Cl  Cl48  1  0.50000001  0.42721400  0.03905955  1
  Cl  Cl49  1  0.50000001  0.82115297  0.08897133  1
  Cl  Cl50  1  0.00000002  0.32115235  0.08897160  1
  Cl  Cl51  1  1.00000000  0.92721289  0.03905928  1
  Cl  Cl52  1  0.00000002  0.23828103  0.01202158  1
  Cl  Cl53  1  0.99999999  0.62045788  0.06087262  1
  Cl  Cl54  1  0.49999997  0.12045763  0.06087273  1
  Cl  Cl55  1  0.50000000  0.73828119  0.01202152  1
  Cl  Cl56  1  0.49999999  0.22229176  0.13778585  1
  Cl  Cl57  1  0.50000000  0.62346258  0.18800693  1
  Cl  Cl58  1  1.00000000  0.12346239  0.18800685  1
  Cl  Cl59  1  1.00000000  0.72229078  0.13778573  1
  Cl  Cl60  1  0.99999999  0.02321367  0.11337904  1
  Cl  Cl61  1  1.00000000  0.42274305  0.16313555  1
  Cl  Cl62  1  0.49999999  0.92274290  0.16313553  1
  Cl  Cl63  1  0.49999999  0.52318616  0.11338911  1
  Cl  Cl64  1  0.49999999  0.02449503  0.23772963  1
  Cl  Cl65  1  0.50000001  0.42560940  0.28756260  1
  Cl  Cl66  1  0.00000000  0.92560944  0.28756262  1
  Cl  Cl67  1  0.99999999  0.52449524  0.23772976  1
  Cl  Cl68  1  0.00000000  0.82375165  0.21270537  1
  Cl  Cl69  1  0.00000001  0.22524239  0.26265685  1
  Cl  Cl70  1  0.50000000  0.72524232  0.26265684  1
  Cl  Cl71  1  0.50000000  0.32375170  0.21270547  1
  Cl  Cl72  1  0.49999999  0.82588676  0.33738744  1
  Cl  Cl73  1  0.50000000  0.22638218  0.38728540  1
  Cl  Cl74  1  0.99999999  0.72638195  0.38728542  1
  Cl  Cl75  1  1.00000000  0.32588663  0.33738740  1
  Cl  Cl76  1  1.00000000  0.62586415  0.31246472  1
  Cl  Cl77  1  1.00000000  0.02601907  0.36225800  1
  Cl  Cl78  1  0.50000000  0.52601877  0.36225761  1
  Cl  Cl79  1  0.50000000  0.12586382  0.31246461  1
  Cl  Cl80  1  0.50000000  0.62719972  0.43679276  1
  Cl  Cl81  1  0.50000001  0.02701614  0.48654151  1
  Cl  Cl82  1  0.99999999  0.52701515  0.48654154  1
  Cl  Cl83  1  1.00000000  0.12720527  0.43679299  1
  Cl  Cl84  1  1.00000000  0.42638771  0.41195946  1
  Cl  Cl85  1  0.00000001  0.82811334  0.46227197  1
  Cl  Cl86  1  0.50000001  0.32811385  0.46227242  1
  Cl  Cl87  1  0.50000001  0.92638829  0.41195985  1
  Cl  Cl88  1  0.49999999  0.42915476  0.53922347  1
  Cl  Cl89  1  0.50000001  0.81081084  0.58795229  1
  Cl  Cl90  1  0.99999999  0.31081106  0.58795226  1
  Cl  Cl91  1  0.00000000  0.92915456  0.53922346  1
  Cl  Cl92  1  0.00000001  0.22855040  0.51101186  1
  Cl  Cl93  1  0.00000000  0.62224025  0.56090498  1
  Cl  Cl94  1  0.50000000  0.12224017  0.56090482  1
  Cl  Cl95  1  0.49999997  0.72854995  0.51101162  1
