# generated using pymatgen
data_LiCl
_symmetry_space_group_name_H-M   'P 1'
_cell_length_a   5.14959700
_cell_length_b   7.28262900
_cell_length_c   43.69577700
_cell_angle_alpha   90.00000000
_cell_angle_beta   90.00000000
_cell_angle_gamma   90.00000000
_symmetry_Int_Tables_number   1
_chemical_formula_structural   LiCl
_chemical_formula_sum   'Li28 Cl28'
_cell_volume   1638.70544099
_cell_formula_units_Z   28
loop_
 _symmetry_equiv_pos_site_id
 _symmetry_equiv_pos_as_xyz
  1  'x, y, z'
loop_
 _atom_site_type_symbol
 _atom_site_label
 _atom_site_symmetry_multiplicity
 _atom_site_fract_x
 _atom_site_fract_y
 _atom_site_fract_z
 _atom_site_occupancy
  Li  Li0  1  1.00000000  0.62397742  0.05823405  1
  Li  Li1  1  0.00000000  0.12397742  0.05823405  1
  Li  Li2  1  0.50000000  0.87434498  0.02879262  1
  Li  Li3  1  0.50000000  0.37434499  0.02879262  1
  Li  Li4  1  1.00000000  0.12376617  0.14556145  1
  Li  Li5  1  1.00000000  0.62376616  0.14556145  1
  Li  Li6  1  0.50000000  0.37234643  0.10749472  1
  Li  Li7  1  0.50000000  0.87234643  0.10749472  1
  Li  Li8  1  1.00000000  0.62406394  0.22950008  1
  Li  Li9  1  1.00000000  0.12406394  0.22950008  1
  Li  Li10  1  0.50000000  0.87461036  0.18885902  1
  Li  Li11  1  0.50000000  0.37461035  0.18885902  1
  Li  Li12  1  0.00000000  0.12729538  0.31212440  1
  Li  Li13  1  1.00000000  0.62729538  0.31212440  1
  Li  Li14  1  0.50000000  0.37475890  0.27117303  1
  Li  Li15  1  0.50000000  0.87475890  0.27117303  1
  Li  Li16  1  0.00000000  0.62419900  0.39443544  1
  Li  Li17  1  0.00000000  0.12419900  0.39443544  1
  Li  Li18  1  0.50000000  0.87497023  0.35413126  1
  Li  Li19  1  0.50000000  0.37497023  0.35413126  1
  Li  Li20  1  0.00000000  0.12757090  0.47591316  1
  Li  Li21  1  0.00000000  0.62757090  0.47591316  1
  Li  Li22  1  0.50000000  0.37783166  0.43786450  1
  Li  Li23  1  0.50000000  0.87783165  0.43786450  1
  Li  Li24  1  1.00000000  0.62464555  0.55436385  1
  Li  Li25  1  1.00000000  0.12464555  0.55436385  1
  Li  Li26  1  0.50000000  0.87482202  0.52489328  1
  Li  Li27  1  0.50000000  0.37482202  0.52489328  1
  Cl  Cl28  1  0.50000000  0.62412424  0.06319172  1
  Cl  Cl29  1  1.00000000  0.87438983  0.02103849  1
  Cl  Cl30  1  0.00000000  0.37438983  0.02103850  1
  Cl  Cl31  1  0.50000000  0.12412429  0.06319172  1
  Cl  Cl32  1  0.50000000  0.12355192  0.14687549  1
  Cl  Cl33  1  1.00000000  0.37366285  0.10507933  1
  Cl  Cl34  1  0.00000000  0.87366285  0.10507933  1
  Cl  Cl35  1  0.50000000  0.62355191  0.14687549  1
  Cl  Cl36  1  0.50000000  0.62561819  0.22970755  1
  Cl  Cl37  1  0.00000000  0.87503841  0.18820250  1
  Cl  Cl38  1  0.00000000  0.37503841  0.18820250  1
  Cl  Cl39  1  0.50000000  0.12561819  0.22970755  1
  Cl  Cl40  1  0.50000000  0.12468897  0.31242145  1
  Cl  Cl41  1  0.00000000  0.37590831  0.27100636  1
  Cl  Cl42  1  0.00000000  0.87590831  0.27100636  1
  Cl  Cl43  1  0.50000000  0.62468896  0.31242145  1
  Cl  Cl44  1  0.50000000  0.62464940  0.39524455  1
  Cl  Cl45  1  1.00000000  0.87447763  0.35369251  1
  Cl  Cl46  1  1.00000000  0.37447763  0.35369251  1
  Cl  Cl47  1  0.50000000  0.12464940  0.39524455  1
  Cl  Cl48  1  0.50000000  0.12686758  0.47826980  1
  Cl  Cl49  1  1.00000000  0.37638434  0.43653159  1
  Cl  Cl50  1  1.00000000  0.87638435  0.43653159  1
  Cl  Cl51  1  0.50000000  0.62686758  0.47826980  1
  Cl  Cl52  1  0.50000000  0.62580623  0.56206994  1
  Cl  Cl53  1  0.00000000  0.87562911  0.51999385  1
  Cl  Cl54  1  1.00000000  0.37562912  0.51999385  1
  Cl  Cl55  1  0.50000000  0.12580624  0.56206994  1
