# generated using pymatgen
data_LiCl
_symmetry_space_group_name_H-M   'P 1'
_cell_length_a   5.14959700
_cell_length_b   5.14959700
_cell_length_c   41.19677300
_cell_angle_alpha   90.00000000
_cell_angle_beta   90.00000000
_cell_angle_gamma   90.00000000
_symmetry_Int_Tables_number   1
_chemical_formula_structural   LiCl
_chemical_formula_sum   'Li20 Cl20'
_cell_volume   1092.47041490
_cell_formula_units_Z   20
loop_
 _symmetry_equiv_pos_site_id
 _symmetry_equiv_pos_as_xyz
  1  'x, y, z'
loop_
 _atom_site_type_symbol
 _atom_site_label
 _atom_site_symmetry_multiplicity
 _atom_site_fract_x
 _atom_site_fract_y
 _atom_site_fract_z
 _atom_site_occupancy
  Li  Li0  1  0.00000178  0.99999825  0.09467424  1
  Li  Li1  1  0.50000122  0.99999878  0.03813278  1
  Li  Li2  1  0.00000124  0.49999882  0.03813276  1
  Li  Li3  1  0.50000174  0.49999833  0.09467427  1
  Li  Li4  1  0.00000166  0.99999840  0.21968482  1
  Li  Li5  1  0.50000143  0.99999859  0.15882370  1
  Li  Li6  1  0.00000145  0.49999856  0.15882373  1
  Li  Li7  1  0.50000164  0.49999834  0.21968481  1
  Li  Li8  1  0.00000068  0.99999913  0.34324347  1
  Li  Li9  1  0.50000130  0.99999870  0.28175129  1
  Li  Li10  1  0.00000123  0.49999879  0.28175129  1
  Li  Li11  1  0.50000089  0.49999926  0.34324347  1
  Li  Li12  1  0.99999559  0.00000153  0.46617891  1
  Li  Li13  1  0.49999851  0.00000153  0.40531135  1
  Li  Li14  1  0.99999987  0.50000013  0.40531061  1
  Li  Li15  1  0.49999851  0.50000445  0.46617890  1
  Li  Li16  1  0.00000046  0.99999923  0.58686582  1
  Li  Li17  1  0.49999872  0.00000117  0.53032587  1
  Li  Li18  1  -0.00000008  0.50000007  0.53032569  1
  Li  Li19  1  0.50000073  0.49999958  0.58686581  1
  Cl  Cl20  1  0.00000493  0.49999520  0.09668093  1
  Cl  Cl21  1  0.00000483  0.99999519  0.03309915  1
  Cl  Cl22  1  0.50000490  0.99999525  0.09668090  1
  Cl  Cl23  1  0.50000489  0.49999514  0.03309927  1
  Cl  Cl24  1  0.00000475  0.49999522  0.22001403  1
  Cl  Cl25  1  0.00000467  0.99999538  0.15806428  1
  Cl  Cl26  1  0.50000489  0.99999517  0.22001400  1
  Cl  Cl27  1  0.50000463  0.49999542  0.15806431  1
  Cl  Cl28  1  0.00000205  0.49999783  0.34335900  1
  Cl  Cl29  1  0.00000430  0.99999599  0.28163849  1
  Cl  Cl30  1  0.50000138  0.99999850  0.34335918  1
  Cl  Cl31  1  0.50000399  0.49999566  0.28163849  1
  Cl  Cl32  1  0.99998453  0.50001562  0.46693765  1
  Cl  Cl33  1  0.99998942  0.00000116  0.40498460  1
  Cl  Cl34  1  0.49997739  0.00002261  0.46693870  1
  Cl  Cl35  1  0.49999887  0.50001059  0.40498459  1
  Cl  Cl36  1  0.00000154  0.49999832  0.59191171  1
  Cl  Cl37  1  0.99998969  0.00000108  0.52831784  1
  Cl  Cl38  1  0.50000107  0.99999894  0.59191150  1
  Cl  Cl39  1  0.49999873  0.50001011  0.52831782  1
