# generated using pymatgen
data_Li87Y25Cl162
_symmetry_space_group_name_H-M   'P 1'
_cell_length_a   11.17722800
_cell_length_b   23.17114807
_cell_length_c   46.52794100
_cell_angle_alpha   90.00000000
_cell_angle_beta   90.00000000
_cell_angle_gamma   61.15890919
_symmetry_Int_Tables_number   1
_chemical_formula_structural   Li87Y25Cl162
_chemical_formula_sum   'Li87 Y25 Cl162'
_cell_volume   10555.53488094
_cell_formula_units_Z   1
loop_
 _symmetry_equiv_pos_site_id
 _symmetry_equiv_pos_as_xyz
  1  'x, y, z'
loop_
 _atom_site_type_symbol
 _atom_site_label
 _atom_site_symmetry_multiplicity
 _atom_site_fract_x
 _atom_site_fract_y
 _atom_site_fract_z
 _atom_site_occupancy
  Li  Li0  1  0.74741936  0.91579369  0.11338256  1
  Li  Li1  1  0.74609207  0.42591488  0.05864593  1
  Li  Li2  1  0.41368841  0.91461585  0.11521016  1
  Li  Li3  1  0.33058702  0.47678146  0.04609939  1
  Li  Li4  1  0.74542730  0.23348672  0.04446699  1
  Li  Li5  1  0.72104670  0.60181090  0.07327393  1
  Li  Li6  1  0.15249214  0.10094215  0.04960537  1
  Li  Li7  1  0.05077305  0.61423409  0.06529881  1
  Li  Li8  1  0.05788243  0.24834590  0.08900229  1
  Li  Li9  1  0.13672280  0.85709694  0.04245631  1
  Li  Li10  1  0.75736392  0.11753000  0.07130277  1
  Li  Li11  1  0.68958503  0.64339073  0.01728089  1
  Li  Li12  1  0.37857495  0.95196700  0.05552471  1
  Li  Li13  1  0.42747761  0.42206552  0.11837340  1
  Li  Li14  1  0.35831656  0.21764733  0.06510747  1
  Li  Li15  1  0.06177037  0.01740010  0.01345978  1
  Li  Li16  1  0.02038227  0.30195950  0.03323555  1
  Li  Li17  1  0.05691455  0.76006338  0.08685420  1
  Li  Li18  1  0.83923633  0.82590814  0.24083740  1
  Li  Li19  1  0.80219957  0.36801446  0.17772127  1
  Li  Li20  1  0.51043145  0.82643836  0.24082472  1
  Li  Li21  1  0.46607956  0.36736152  0.17794534  1
  Li  Li22  1  0.76626254  0.06312173  0.13448921  1
  Li  Li23  1  0.81326868  0.52090343  0.19845459  1
  Li  Li24  1  0.14130029  0.02483489  0.19986220  1
  Li  Li25  1  0.09941299  0.56472192  0.14452436  1
  Li  Li26  1  0.14709497  0.18079146  0.22032930  1
  Li  Li27  1  0.08037500  0.73747755  0.15846411  1
  Li  Li28  1  0.81009959  0.01593909  0.19791477  1
  Li  Li29  1  0.76899528  0.55133023  0.13375053  1
  Li  Li30  1  0.47468636  0.87175157  0.17786038  1
  Li  Li31  1  0.51946501  0.32457714  0.24075793  1
  Li  Li32  1  0.49260130  0.17357787  0.21621478  1
  Li  Li33  1  0.43707175  0.72289206  0.15998154  1
  Li  Li34  1  0.10840915  0.21933925  0.15576006  1
  Li  Li35  1  0.15839489  0.67500037  0.21979097  1
  Li  Li36  1  0.92935563  0.73574019  0.36644045  1
  Li  Li37  1  0.88544276  0.28155291  0.30368925  1
  Li  Li38  1  0.60130513  0.73525118  0.36649147  1
  Li  Li39  1  0.55170530  0.28126995  0.30368513  1
  Li  Li40  1  0.85595219  0.97655838  0.26173911  1
  Li  Li41  1  0.89932947  0.43164442  0.32478800  1
  Li  Li42  1  0.23175765  0.93326814  0.32543826  1
  Li  Li43  1  0.19130462  0.47441850  0.26356492  1
  Li  Li44  1  0.23299290  0.09291005  0.34660849  1
  Li  Li45  1  0.18880639  0.63600229  0.28354985  1
  Li  Li46  1  0.89718227  0.92669954  0.32389838  1
  Li  Li47  1  0.85753026  0.46869802  0.26049033  1
  Li  Li48  1  0.56660912  0.78128234  0.30371759  1
  Li  Li49  1  0.60616305  0.23819458  0.36659141  1
  Li  Li50  1  0.57985442  0.08818923  0.34342770  1
  Li  Li51  1  0.53705859  0.62921584  0.28160519  1
  Li  Li52  1  0.20155053  0.13034113  0.28278368  1
  Li  Li53  1  0.24634904  0.58531266  0.34585726  1
  Li  Li54  1  0.01781593  0.64581667  0.49323707  1
  Li  Li55  1  0.97618091  0.19321455  0.42964079  1
  Li  Li56  1  0.68338982  0.64647847  0.49187323  1
  Li  Li57  1  0.63674964  0.19676260  0.42952492  1
  Li  Li58  1  0.94566848  0.88704579  0.38752369  1
  Li  Li59  1  0.98801318  0.34043274  0.45181438  1
  Li  Li60  1  0.31969365  0.83928123  0.44779925  1
  Li  Li61  1  0.27695698  0.38923889  0.39216266  1
  Li  Li62  1  0.30846925  0.01078920  0.47335291  1
  Li  Li63  1  0.28039984  0.54591790  0.40950814  1
  Li  Li64  1  0.99201101  0.82511056  0.44884602  1
  Li  Li65  1  0.94605872  0.38097202  0.38719940  1
  Li  Li66  1  0.65508096  0.69068510  0.42936029  1
  Li  Li67  1  0.70667841  0.13942348  0.48903833  1
  Li  Li68  1  0.66737416  0.99719139  0.46287607  1
  Li  Li69  1  0.62880073  0.53787590  0.40740133  1
  Li  Li70  1  0.29356533  0.04082575  0.40859734  1
  Li  Li71  1  0.33200171  0.49876815  0.47266255  1
  Li  Li72  1  0.03597314  0.13561909  0.54945656  1
  Li  Li73  1  0.72158439  0.08543409  0.56123782  1
  Li  Li74  1  0.01472810  0.80185182  0.52074852  1
  Li  Li75  1  0.06156041  0.26069449  0.57506039  1
  Li  Li76  1  0.53490014  0.54515854  0.59263993  1
  Li  Li77  1  0.23143791  0.34383123  0.54230844  1
  Li  Li78  1  0.41505068  0.91808545  0.58937474  1
  Li  Li79  1  0.42915508  0.44491693  0.53559700  1
  Li  Li80  1  0.28840880  0.70482065  0.56476027  1
  Li  Li81  1  0.99504294  0.31178841  0.51853648  1
  Li  Li82  1  0.71879640  0.61070613  0.55190079  1
  Li  Li83  1  0.71656519  0.94737500  0.54156363  1
  Li  Li84  1  0.79380928  0.46071968  0.55862844  1
  Li  Li85  1  0.36284186  0.95998296  0.53341748  1
  Li  Li86  1  0.64885793  0.32860511  0.56289402  1
  Y  Y87  1  0.72617719  0.75725104  0.09267475  1
  Y  Y88  1  0.38474181  0.61220514  0.06867541  1
  Y  Y89  1  0.08875806  0.91201239  0.11826301  1
  Y  Y90  1  0.05301296  0.44763600  0.04847264  1
  Y  Y91  1  0.78478539  0.21203602  0.15716510  1
  Y  Y92  1  0.82161458  0.67047132  0.21904601  1
  Y  Y93  1  0.42452630  0.06844487  0.13565371  1
  Y  Y94  1  0.47108494  0.52640749  0.20003477  1
  Y  Y95  1  0.18191838  0.82615484  0.24179500  1
  Y  Y96  1  0.14162447  0.36897857  0.17728627  1
  Y  Y97  1  0.86946218  0.12554558  0.28202652  1
  Y  Y98  1  0.91447935  0.58009587  0.34480684  1
  Y  Y99  1  0.51301779  0.98168859  0.26247423  1
  Y  Y100  1  0.55749248  0.43683766  0.32530698  1
  Y  Y101  1  0.27194252  0.73602478  0.36564766  1
  Y  Y102  1  0.22789318  0.28097855  0.30364868  1
  Y  Y103  1  0.96084855  0.03581817  0.40720287  1
  Y  Y104  1  0.99999207  0.49300805  0.47185701  1
  Y  Y105  1  0.60025357  0.89151377  0.38816806  1
  Y  Y106  1  0.64814458  0.34981615  0.45037779  1
  Y  Y107  1  0.35117190  0.65021879  0.48903064  1
  Y  Y108  1  0.31828025  0.19238940  0.42982038  1
  Y  Y109  1  0.04632016  0.94994225  0.53852182  1
  Y  Y110  1  0.67923156  0.80418830  0.51447400  1
  Y  Y111  1  0.38589114  0.11410856  0.55866486  1
  Cl  Cl112  1  0.90711508  0.41235484  0.01563549  1
  Cl  Cl113  1  0.95750023  0.87938503  0.07926580  1
  Cl  Cl114  1  0.60163704  0.88282823  0.07688503  1
  Cl  Cl115  1  0.62835643  0.03606063  0.09951930  1
  Cl  Cl116  1  0.58809347  0.58063169  0.03169073  1
  Cl  Cl117  1  0.29885973  0.19045489  0.11667727  1
  Cl  Cl118  1  0.25166819  0.73490314  0.05382367  1
  Cl  Cl119  1  0.26185679  0.41739013  0.01641535  1
  Cl  Cl120  1  0.27555145  0.88778471  0.07753809  1
  Cl  Cl121  1  0.66250667  0.17849883  0.11907743  1
  Cl  Cl122  1  0.60575845  0.72171243  0.05323507  1
  Cl  Cl123  1  0.97881966  0.19218306  0.12010795  1
  Cl  Cl124  1  0.92008580  0.73098444  0.05517822  1
  Cl  Cl125  1  0.95189860  0.03185712  0.09948723  1
  Cl  Cl126  1  0.91651842  0.57455618  0.03177220  1
  Cl  Cl127  1  0.30043880  0.03363767  0.09541221  1
  Cl  Cl128  1  0.24137269  0.58570764  0.03138462  1
  Cl  Cl129  1  0.15178722  0.32992335  0.07084354  1
  Cl  Cl130  1  0.04992532  0.92613054  0.00598329  1
  Cl  Cl131  1  0.26967106  0.01554249  0.01778549  1
  Cl  Cl132  1  0.56613496  0.20743903  0.04814310  1
  Cl  Cl133  1  0.54147207  0.62380917  0.10871678  1
  Cl  Cl134  1  0.18501354  0.19248134  0.04441948  1
  Cl  Cl135  1  0.18563270  0.63690949  0.10597814  1
  Cl  Cl136  1  0.92207259  0.12556476  0.03806546  1
  Cl  Cl137  1  0.86071701  0.62996572  0.10781659  1
  Cl  Cl138  1  0.17989123  0.48785307  0.08612268  1
  Cl  Cl139  1  0.82838091  0.30890091  0.05833881  1
  Cl  Cl140  1  0.84394833  0.48284878  0.08657777  1
  Cl  Cl141  1  0.50791084  0.47462027  0.07707608  1
  Cl  Cl142  1  0.99631700  0.33812983  0.14234444  1
  Cl  Cl143  1  0.03876131  0.79441426  0.20532036  1
  Cl  Cl144  1  0.65321309  0.34023823  0.14144601  1
  Cl  Cl145  1  0.69734043  0.79710150  0.20464661  1
  Cl  Cl146  1  0.72101102  0.94863011  0.22670498  1
  Cl  Cl147  1  0.67732575  0.49226758  0.16331632  1
  Cl  Cl148  1  0.38555880  0.10516895  0.24502221  1
  Cl  Cl149  1  0.34097489  0.64952126  0.18182159  1
  Cl  Cl150  1  0.33042796  0.35238655  0.14017157  1
  Cl  Cl151  1  0.37778758  0.79906434  0.20362070  1
  Cl  Cl152  1  0.73546811  0.09442906  0.24388037  1
  Cl  Cl153  1  0.69096397  0.63959440  0.17980791  1
  Cl  Cl154  1  0.06642822  0.10447866  0.24431249  1
  Cl  Cl155  1  0.01710186  0.65253328  0.18037391  1
  Cl  Cl156  1  0.04376508  0.94961933  0.22329021  1
  Cl  Cl157  1  0.99639759  0.49564091  0.15918686  1
  Cl  Cl158  1  0.38957067  0.94668201  0.22231419  1
  Cl  Cl159  1  0.34196577  0.49677785  0.15838432  1
  Cl  Cl160  1  0.25218385  0.24448811  0.19525561  1
  Cl  Cl161  1  0.20653493  0.78454356  0.13392726  1
  Cl  Cl162  1  0.58622192  0.24860276  0.19684736  1
  Cl  Cl163  1  0.53609590  0.79099702  0.13337234  1
  Cl  Cl164  1  0.57811767  0.08951032  0.17419464  1
  Cl  Cl165  1  0.62473126  0.54712440  0.23761840  1
  Cl  Cl166  1  0.23139059  0.10032948  0.17517021  1
  Cl  Cl167  1  0.27289317  0.55703928  0.23739641  1
  Cl  Cl168  1  0.90361659  0.08808156  0.17559052  1
  Cl  Cl169  1  0.94482794  0.54681066  0.23593829  1
  Cl  Cl170  1  0.23842397  0.93911432  0.15409965  1
  Cl  Cl171  1  0.28102764  0.39708988  0.21596633  1
  Cl  Cl172  1  0.92402645  0.24732153  0.19334392  1
  Cl  Cl173  1  0.87524235  0.78909446  0.12720943  1
  Cl  Cl174  1  0.87997717  0.94254385  0.15284613  1
  Cl  Cl175  1  0.93359457  0.40316412  0.21394953  1
  Cl  Cl176  1  0.55125702  0.94057571  0.14938246  1
  Cl  Cl177  1  0.59505672  0.39938875  0.21292753  1
  Cl  Cl178  1  0.08528718  0.24891445  0.26754061  1
  Cl  Cl179  1  0.12764080  0.70449700  0.33004719  1
  Cl  Cl180  1  0.74316478  0.25222137  0.26808992  1
  Cl  Cl181  1  0.78779530  0.70747020  0.33075098  1
  Cl  Cl182  1  0.80876270  0.85985741  0.35256511  1
  Cl  Cl183  1  0.76518842  0.40427276  0.28918498  1
  Cl  Cl184  1  0.47603633  0.01508670  0.37119254  1
  Cl  Cl185  1  0.42943965  0.56076164  0.30761194  1
  Cl  Cl186  1  0.42295206  0.25496416  0.26584239  1
  Cl  Cl187  1  0.46828608  0.71008237  0.32827289  1
  Cl  Cl188  1  0.82398222  0.00520560  0.36979773  1
  Cl  Cl189  1  0.78041020  0.55016187  0.30609874  1
  Cl  Cl190  1  0.15623044  0.01500369  0.36965930  1
  Cl  Cl191  1  0.10942137  0.56001290  0.30652417  1
  Cl  Cl192  1  0.13128503  0.86134088  0.34831276  1
  Cl  Cl193  1  0.08771179  0.40581032  0.28539364  1
  Cl  Cl194  1  0.47726477  0.85745568  0.34796342  1
  Cl  Cl195  1  0.43312533  0.40267156  0.28488989  1
  Cl  Cl196  1  0.33774044  0.15601985  0.32181063  1
  Cl  Cl197  1  0.29202288  0.70078233  0.25913393  1
  Cl  Cl198  1  0.67723820  0.15943067  0.32252223  1
  Cl  Cl199  1  0.63009453  0.70463462  0.25925610  1
  Cl  Cl200  1  0.66739428  0.00216603  0.30077185  1
  Cl  Cl201  1  0.71302978  0.45750410  0.36308060  1
  Cl  Cl202  1  0.31855105  0.01171047  0.30107948  1
  Cl  Cl203  1  0.36176787  0.46772388  0.36354842  1
  Cl  Cl204  1  0.98894207  0.00149386  0.29982657  1
  Cl  Cl205  1  0.03384847  0.45674739  0.36239308  1
  Cl  Cl206  1  0.32652863  0.85193937  0.27919499  1
  Cl  Cl207  1  0.37136444  0.30669169  0.34136040  1
  Cl  Cl208  1  0.01198401  0.15786654  0.31823229  1
  Cl  Cl209  1  0.96636935  0.70231286  0.25471130  1
  Cl  Cl210  1  0.97491839  0.85745155  0.27743799  1
  Cl  Cl211  1  0.02121579  0.31317133  0.33979173  1
  Cl  Cl212  1  0.64113389  0.85433109  0.27655343  1
  Cl  Cl213  1  0.68490433  0.31016369  0.33931881  1
  Cl  Cl214  1  0.17804335  0.15863644  0.39322317  1
  Cl  Cl215  1  0.20398111  0.61931983  0.45440401  1
  Cl  Cl216  1  0.83110329  0.16297839  0.39451058  1
  Cl  Cl217  1  0.87152801  0.62087733  0.45776903  1
  Cl  Cl218  1  0.89202637  0.77246145  0.47999109  1
  Cl  Cl219  1  0.85773231  0.31397614  0.41410412  1
  Cl  Cl220  1  0.55889381  0.93161798  0.49931770  1
  Cl  Cl221  1  0.51866062  0.47373608  0.43189681  1
  Cl  Cl222  1  0.51329202  0.16515338  0.39123185  1
  Cl  Cl223  1  0.55540167  0.62280390  0.45320107  1
  Cl  Cl224  1  0.89726873  0.92488813  0.50111253  1
  Cl  Cl225  1  0.87083917  0.46101019  0.43244179  1
  Cl  Cl226  1  0.22623965  0.93813939  0.49832205  1
  Cl  Cl227  1  0.19609603  0.47225836  0.43325721  1
  Cl  Cl228  1  0.21330467  0.77757969  0.47336772  1
  Cl  Cl229  1  0.17948918  0.31722358  0.41222659  1
  Cl  Cl230  1  0.55667933  0.77079258  0.47372188  1
  Cl  Cl231  1  0.52115663  0.31386450  0.41068666  1
  Cl  Cl232  1  0.42622613  0.06592018  0.44804642  1
  Cl  Cl233  1  0.38055604  0.61245266  0.38422011  1
  Cl  Cl234  1  0.77296618  0.06513634  0.44888445  1
  Cl  Cl235  1  0.72053517  0.61510015  0.38492728  1
  Cl  Cl236  1  0.75978516  0.90946068  0.42690078  1
  Cl  Cl237  1  0.80310736  0.36872034  0.48748479  1
  Cl  Cl238  1  0.40777268  0.92233115  0.42736784  1
  Cl  Cl239  1  0.45831329  0.38346960  0.48835077  1
  Cl  Cl240  1  0.07726354  0.91267554  0.42535926  1
  Cl  Cl241  1  0.11885091  0.37102236  0.49088364  1
  Cl  Cl242  1  0.41381505  0.76284375  0.40384269  1
  Cl  Cl243  1  0.47257445  0.20973048  0.46710301  1
  Cl  Cl244  1  0.09949528  0.06967718  0.44384873  1
  Cl  Cl245  1  0.05601303  0.61306846  0.38076063  1
  Cl  Cl246  1  0.06514109  0.76775849  0.40205940  1
  Cl  Cl247  1  0.11200190  0.22261282  0.46498820  1
  Cl  Cl248  1  0.72969120  0.76474546  0.40248945  1
  Cl  Cl249  1  0.77101045  0.22174046  0.46614807  1
  Cl  Cl250  1  0.24676925  0.07908281  0.52066911  1
  Cl  Cl251  1  0.89492507  0.08733481  0.53036923  1
  Cl  Cl252  1  0.88434171  0.25290546  0.54981581  1
  Cl  Cl253  1  0.61135322  0.43651076  0.56895421  1
  Cl  Cl254  1  0.59305211  0.07457633  0.52093357  1
  Cl  Cl255  1  0.00924596  0.36927619  0.56338126  1
  Cl  Cl256  1  0.41736194  0.35529111  0.55920913  1
  Cl  Cl257  1  0.34086154  0.63589754  0.60120848  1
  Cl  Cl258  1  0.24854752  0.23192782  0.53645519  1
  Cl  Cl259  1  0.73895632  0.54704759  0.58969935  1
  Cl  Cl260  1  0.50366413  0.98705342  0.57508700  1
  Cl  Cl261  1  0.45418852  0.53037533  0.50777305  1
  Cl  Cl262  1  0.84948716  0.97621297  0.57564653  1
  Cl  Cl263  1  0.80644958  0.52823486  0.51199647  1
  Cl  Cl264  1  0.81925702  0.83095327  0.55212319  1
  Cl  Cl265  1  0.48649791  0.83981217  0.55363422  1
  Cl  Cl266  1  0.15878199  0.82725285  0.55346922  1
  Cl  Cl267  1  0.48920291  0.67436061  0.52980700  1
  Cl  Cl268  1  0.53383048  0.14438132  0.59084633  1
  Cl  Cl269  1  0.18713113  0.98131300  0.57535534  1
  Cl  Cl270  1  0.13961817  0.52567135  0.50774565  1
  Cl  Cl271  1  0.15466675  0.68258123  0.52799387  1
  Cl  Cl272  1  0.17100530  0.14920130  0.59194870  1
  Cl  Cl273  1  0.80598765  0.67881351  0.53033140  1
