# generated using pymatgen
data_Li7Y2Cl13
_symmetry_space_group_name_H-M   'P 1'
_cell_length_a   11.17729600
_cell_length_b   23.17126381
_cell_length_c   46.52694700
_cell_angle_alpha   90.00000000
_cell_angle_beta   90.00000000
_cell_angle_gamma   61.15997857
_symmetry_Int_Tables_number   1
_chemical_formula_structural   Li7Y2Cl13
_chemical_formula_sum   'Li84 Y24 Cl156'
_cell_volume   10555.53480816
_cell_formula_units_Z   12
loop_
 _symmetry_equiv_pos_site_id
 _symmetry_equiv_pos_as_xyz
  1  'x, y, z'
loop_
 _atom_site_type_symbol
 _atom_site_label
 _atom_site_symmetry_multiplicity
 _atom_site_fract_x
 _atom_site_fract_y
 _atom_site_fract_z
 _atom_site_occupancy
  Li  Li0  1  0.07141429  0.10826665  0.01336602  1
  Li  Li1  1  0.07108436  0.59981210  0.05919986  1
  Li  Li2  1  0.98143871  0.31523664  0.02765208  1
  Li  Li3  1  0.08358822  0.76137223  0.07767366  1
  Li  Li4  1  0.72252508  0.08107819  0.01859234  1
  Li  Li5  1  0.74320368  0.59553819  0.05967431  1
  Li  Li6  1  0.79044807  0.39020616  0.09450784  1
  Li  Li7  1  0.71265117  0.95828899  0.05932836  1
  Li  Li8  1  0.33921227  0.96511054  0.04507807  1
  Li  Li9  1  0.37659881  0.44122900  0.10691126  1
  Li  Li10  1  0.63573939  0.19796469  0.05567919  1
  Li  Li11  1  0.69563068  0.65129979  0.00638827  1
  Li  Li12  1  0.92210115  0.21529144  0.05822828  1
  Li  Li13  1  0.91852836  0.86204443  0.02248399  1
  Li  Li14  1  0.29291748  0.20443743  0.05178482  1
  Li  Li15  1  0.41147076  0.76568333  0.07724305  1
  Li  Li16  1  0.42633180  0.91629063  0.10552987  1
  Li  Li17  1  0.34149094  0.47606448  0.03557285  1
  Li  Li18  1  0.09708586  0.07298556  0.12604857  1
  Li  Li19  1  0.13972710  0.52918205  0.18831498  1
  Li  Li20  1  0.12169514  0.22578656  0.13765198  1
  Li  Li21  1  0.15379254  0.68191949  0.20867082  1
  Li  Li22  1  0.76507841  0.08381750  0.12115583  1
  Li  Li23  1  0.80670800  0.53120943  0.18714838  1
  Li  Li24  1  0.83986827  0.33365834  0.22598140  1
  Li  Li25  1  0.79739920  0.88004662  0.17294550  1
  Li  Li26  1  0.44955778  0.89111057  0.17251293  1
  Li  Li27  1  0.48674584  0.33856624  0.23070238  1
  Li  Li28  1  0.81780869  0.03326937  0.18782633  1
  Li  Li29  1  0.78916070  0.55444352  0.12097858  1
  Li  Li30  1  0.15274645  0.17791394  0.20627412  1
  Li  Li31  1  0.12061235  0.70433773  0.14071211  1
  Li  Li32  1  0.48529711  0.18116217  0.20940625  1
  Li  Li33  1  0.44314134  0.72163247  0.15822595  1
  Li  Li34  1  0.50272765  0.83514542  0.23249196  1
  Li  Li35  1  0.44893476  0.37920276  0.16619722  1
  Li  Li36  1  0.18088167  0.98612621  0.25219768  1
  Li  Li37  1  0.22952730  0.43847866  0.31299832  1
  Li  Li38  1  0.19515450  0.13716639  0.27203843  1
  Li  Li39  1  0.24638830  0.59019759  0.33327211  1
  Li  Li40  1  0.85126498  0.98762862  0.25184210  1
  Li  Li41  1  0.90166266  0.43808247  0.31356789  1
  Li  Li42  1  0.92275093  0.24498308  0.35589355  1
  Li  Li43  1  0.87925856  0.79051520  0.29121332  1
  Li  Li44  1  0.53385773  0.79541860  0.29540423  1
  Li  Li45  1  0.58395562  0.24670511  0.35925176  1
  Li  Li46  1  0.91029953  0.94214691  0.31534397  1
  Li  Li47  1  0.86858079  0.48311609  0.25009085  1
  Li  Li48  1  0.24009398  0.08663479  0.33504188  1
  Li  Li49  1  0.20000720  0.63106278  0.27045208  1
  Li  Li50  1  0.58311610  0.09124414  0.33931124  1
  Li  Li51  1  0.53544970  0.63494751  0.27360569  1
  Li  Li52  1  0.59224480  0.74246755  0.35700218  1
  Li  Li53  1  0.54587565  0.28800378  0.29368376  1
  Li  Li54  1  0.27350484  0.89595714  0.37702405  1
  Li  Li55  1  0.31854050  0.35242849  0.43913854  1
  Li  Li56  1  0.28313394  0.04581223  0.39910069  1
  Li  Li57  1  0.33354178  0.50869397  0.45985123  1
  Li  Li58  1  0.94425783  0.89368424  0.37801049  1
  Li  Li59  1  0.00842633  0.34226839  0.44431247  1
  Li  Li60  1  0.77721697  0.22032986  0.51416551  1
  Li  Li61  1  0.96138290  0.70360569  0.40723660  1
  Li  Li62  1  0.60514781  0.72028250  0.42473490  1
  Li  Li63  1  0.42627062  0.20997769  0.50729607  1
  Li  Li64  1  0.97291904  0.87054699  0.44390963  1
  Li  Li65  1  0.96074830  0.39241443  0.37768925  1
  Li  Li66  1  0.33656916  0.98325377  0.45849054  1
  Li  Li67  1  0.30792889  0.53372085  0.39282429  1
  Li  Li68  1  0.64501016  0.03507434  0.47083403  1
  Li  Li69  1  0.63049566  0.54533850  0.39258878  1
  Li  Li70  1  0.68408670  0.66248070  0.48770052  1
  Li  Li71  1  0.64969879  0.19873396  0.42778307  1
  Li  Li72  1  0.34726212  0.82419033  0.50678141  1
  Li  Li73  1  0.36352584  0.31707711  0.55186613  1
  Li  Li74  1  0.36998917  0.94787402  0.52972299  1
  Li  Li75  1  0.00859347  0.83084240  0.50544543  1
  Li  Li76  1  0.95979055  0.34427859  0.54642120  1
  Li  Li77  1  0.01973876  0.65986829  0.48878928  1
  Li  Li78  1  0.71837585  0.56248742  0.54295811  1
  Li  Li79  1  0.07338112  0.77383366  0.55842449  1
  Li  Li80  1  0.10721670  0.22608543  0.50984539  1
  Li  Li81  1  0.34391377  0.45989928  0.52059549  1
  Li  Li82  1  0.70542588  0.46672169  0.50611889  1
  Li  Li83  1  0.68794358  0.10980322  0.53738886  1
  Y  Y84  1  0.39991421  0.60972677  0.05691252  1
  Y  Y85  1  0.74629827  0.76783371  0.07883724  1
  Y  Y86  1  0.05699307  0.44316073  0.03420727  1
  Y  Y87  1  0.09109591  0.91465077  0.10999343  1
  Y  Y88  1  0.44243909  0.07011538  0.12689973  1
  Y  Y89  1  0.48583451  0.52811379  0.18892421  1
  Y  Y90  1  0.76619146  0.23250873  0.14705925  1
  Y  Y91  1  0.81237349  0.68571799  0.20986672  1
  Y  Y92  1  0.12610135  0.37365942  0.16549750  1
  Y  Y93  1  0.16759919  0.83016928  0.23111217  1
  Y  Y94  1  0.52499988  0.98740300  0.25298800  1
  Y  Y95  1  0.57484699  0.43810927  0.31258905  1
  Y  Y96  1  0.85648950  0.14147555  0.27313347  1
  Y  Y97  1  0.90288166  0.59504974  0.33436182  1
  Y  Y98  1  0.21429194  0.28359645  0.29230140  1
  Y  Y99  1  0.25876015  0.73939967  0.35563547  1
  Y  Y100  1  0.61744788  0.89679436  0.37646552  1
  Y  Y101  1  0.65869496  0.35467711  0.43857166  1
  Y  Y102  1  0.94918809  0.05130684  0.39996271  1
  Y  Y103  1  0.99627597  0.51052836  0.45551871  1
  Y  Y104  1  0.30670296  0.19270348  0.41848799  1
  Y  Y105  1  0.35820234  0.65681251  0.48668732  1
  Y  Y106  1  0.69537070  0.81489467  0.50830862  1
  Y  Y107  1  0.01928915  0.98201849  0.53103550  1
  Cl  Cl108  1  0.23395921  0.00735666  0.00426619  1
  Cl  Cl109  1  0.18181332  0.48583444  0.07371542  1
  Cl  Cl110  1  0.11100281  0.19443712  0.02854280  1
  Cl  Cl111  1  0.19230325  0.64411054  0.09412396  1
  Cl  Cl112  1  0.84296640  0.14628352  0.03040786  1
  Cl  Cl113  1  0.86682792  0.64060521  0.09075490  1
  Cl  Cl114  1  0.54819663  0.79347912  0.11564890  1
  Cl  Cl115  1  0.15948010  0.32547978  0.05539366  1
  Cl  Cl116  1  0.23052473  0.78488114  0.12054512  1
  Cl  Cl117  1  0.50656886  0.16640709  0.02958407  1
  Cl  Cl118  1  0.54934578  0.63668320  0.09422599  1
  Cl  Cl119  1  0.49608137  0.48413839  0.07197927  1
  Cl  Cl120  1  0.76616135  0.97109806  0.01218597  1
  Cl  Cl121  1  0.85490229  0.48407012  0.07699233  1
  Cl  Cl122  1  0.79595091  0.32761611  0.05506009  1
  Cl  Cl123  1  0.89858057  0.78430622  0.11756199  1
  Cl  Cl124  1  0.26771162  0.42185903  0.00420871  1
  Cl  Cl125  1  0.28284027  0.88826421  0.06984387  1
  Cl  Cl126  1  0.31054929  0.18727258  0.10426568  1
  Cl  Cl127  1  0.27423593  0.73720700  0.04492812  1
  Cl  Cl128  1  0.64659163  0.19923130  0.10602732  1
  Cl  Cl129  1  0.60829495  0.73878114  0.03949829  1
  Cl  Cl130  1  0.59602464  0.89495170  0.06277481  1
  Cl  Cl131  1  0.63987216  0.04592041  0.09011642  1
  Cl  Cl132  1  0.59201964  0.58934151  0.01928767  1
  Cl  Cl133  1  0.92634023  0.40999794  0.99904848  1
  Cl  Cl134  1  0.95937799  0.88446916  0.07026772  1
  Cl  Cl135  1  0.30735190  0.03410916  0.08949458  1
  Cl  Cl136  1  0.24192151  0.58893623  0.02178577  1
  Cl  Cl137  1  0.97456638  0.03584695  0.09229881  1
  Cl  Cl138  1  0.91959870  0.57627090  0.02075615  1
  Cl  Cl139  1  0.97420360  0.19316731  0.10965417  1
  Cl  Cl140  1  0.92409878  0.75925556  0.03861922  1
  Cl  Cl141  1  0.24063351  0.94563225  0.14347735  1
  Cl  Cl142  1  0.26399886  0.40806286  0.20282230  1
  Cl  Cl143  1  0.22940252  0.10555029  0.16101720  1
  Cl  Cl144  1  0.27502550  0.56274535  0.22424910  1
  Cl  Cl145  1  0.89261909  0.10441338  0.16101354  1
  Cl  Cl146  1  0.94008367  0.55922629  0.22341145  1
  Cl  Cl147  1  0.57153300  0.26121025  0.18536709  1
  Cl  Cl148  1  0.61956439  0.71660789  0.24878467  1
  Cl  Cl149  1  0.24726407  0.24875273  0.18209196  1
  Cl  Cl150  1  0.29087761  0.70519375  0.24710447  1
  Cl  Cl151  1  0.58277556  0.09968778  0.16397116  1
  Cl  Cl152  1  0.62517511  0.55737488  0.22629472  1
  Cl  Cl153  1  0.56072388  0.94219690  0.14322344  1
  Cl  Cl154  1  0.59232285  0.40443857  0.20625892  1
  Cl  Cl155  1  0.89325079  0.94668867  0.14748115  1
  Cl  Cl156  1  0.93085703  0.40926817  0.20642536  1
  Cl  Cl157  1  0.92175824  0.25168357  0.18472397  1
  Cl  Cl158  1  0.96705081  0.70712204  0.24778765  1
  Cl  Cl159  1  0.31784738  0.35950726  0.12931323  1
  Cl  Cl160  1  0.36688915  0.80969581  0.19323545  1
  Cl  Cl161  1  0.38615709  0.10974472  0.23296850  1
  Cl  Cl162  1  0.33988037  0.65348148  0.16977828  1
  Cl  Cl163  1  0.73237864  0.10629005  0.23302163  1
  Cl  Cl164  1  0.68641506  0.65383482  0.16943658  1
  Cl  Cl165  1  0.63901188  0.35483786  0.12842398  1
  Cl  Cl166  1  0.68559622  0.81034044  0.19243218  1
  Cl  Cl167  1  0.72069276  0.95955260  0.21466724  1
  Cl  Cl168  1  0.67345073  0.50709694  0.15060722  1
  Cl  Cl169  1  0.99048009  0.34364385  0.12830986  1
  Cl  Cl170  1  0.03777621  0.79940155  0.19186063  1
  Cl  Cl171  1  0.38443894  0.95366079  0.21672778  1
  Cl  Cl172  1  0.33701430  0.50126732  0.15212088  1
  Cl  Cl173  1  0.04343461  0.95627465  0.21650952  1
  Cl  Cl174  1  0.99502734  0.50210176  0.15169507  1
  Cl  Cl175  1  0.06372081  0.10854317  0.23711152  1
  Cl  Cl176  1  0.01960421  0.65340985  0.17354616  1
  Cl  Cl177  1  0.31185590  0.86174401  0.26699368  1
  Cl  Cl178  1  0.35616377  0.31626533  0.32829955  1
  Cl  Cl179  1  0.31763848  0.01774754  0.28816645  1
  Cl  Cl180  1  0.36674457  0.47137523  0.34876597  1
  Cl  Cl181  1  0.98464053  0.01429963  0.28751787  1
  Cl  Cl182  1  0.03137379  0.46880280  0.34893299  1
  Cl  Cl183  1  0.66354264  0.17064394  0.31207603  1
  Cl  Cl184  1  0.71195430  0.62540171  0.37378312  1
  Cl  Cl185  1  0.33154587  0.16053481  0.30989396  1
  Cl  Cl186  1  0.38072948  0.61485959  0.37316759  1
  Cl  Cl187  1  0.67134613  0.01153280  0.29023152  1
  Cl  Cl188  1  0.71488081  0.46605030  0.35079589  1
  Cl  Cl189  1  0.63611317  0.86121406  0.27014524  1
  Cl  Cl190  1  0.68033954  0.31561618  0.33266222  1
  Cl  Cl191  1  0.97488193  0.86381178  0.27081643  1
  Cl  Cl192  1  0.01998779  0.31901592  0.33245630  1
  Cl  Cl193  1  0.00989684  0.16229335  0.31138099  1
  Cl  Cl194  1  0.06106368  0.61541534  0.37233155  1
  Cl  Cl195  1  0.40938729  0.26287282  0.25406792  1
  Cl  Cl196  1  0.45627800  0.71799476  0.31781350  1
  Cl  Cl197  1  0.47651476  0.02061220  0.35925380  1
  Cl  Cl198  1  0.43375026  0.56419539  0.29550733  1
  Cl  Cl199  1  0.82474149  0.01568630  0.35908080  1
  Cl  Cl200  1  0.77816564  0.56139512  0.29450911  1
  Cl  Cl201  1  0.72786263  0.26463885  0.25571086  1
  Cl  Cl202  1  0.77543731  0.71995276  0.31857879  1
  Cl  Cl203  1  0.81475045  0.86784011  0.33905650  1
  Cl  Cl204  1  0.76930033  0.41367704  0.27530831  1
  Cl  Cl205  1  0.07990819  0.25429356  0.25335360  1
  Cl  Cl206  1  0.12753325  0.70860413  0.31674705  1
  Cl  Cl207  1  0.47483984  0.86236565  0.34132454  1
  Cl  Cl208  1  0.42841070  0.40739238  0.27739751  1
  Cl  Cl209  1  0.13394638  0.86571991  0.34187987  1
  Cl  Cl210  1  0.08854757  0.41069991  0.27782684  1
  Cl  Cl211  1  0.15537048  0.01709962  0.36249306  1
  Cl  Cl212  1  0.11044920  0.56359461  0.29856890  1
  Cl  Cl213  1  0.40116061  0.77144457  0.39210916  1
  Cl  Cl214  1  0.43658100  0.23193953  0.45573754  1
  Cl  Cl215  1  0.41494029  0.92386559  0.41324424  1
  Cl  Cl216  1  0.45137051  0.39100581  0.47593603  1
  Cl  Cl217  1  0.07473975  0.92274112  0.41357418  1
  Cl  Cl218  1  0.12307295  0.38933153  0.47323541  1
  Cl  Cl219  1  0.75438183  0.08111237  0.43730966  1
  Cl  Cl220  1  0.80521520  0.54005643  0.49543342  1
  Cl  Cl221  1  0.42451031  0.07024512  0.43707511  1
  Cl  Cl222  1  0.46215050  0.52983907  0.50279430  1
  Cl  Cl223  1  0.76275049  0.91808563  0.41470485  1
  Cl  Cl224  1  0.80778092  0.37897078  0.47537022  1
  Cl  Cl225  1  0.72189379  0.77165480  0.39575032  1
  Cl  Cl226  1  0.76094785  0.23771186  0.46127476  1
  Cl  Cl227  1  0.06875639  0.77136170  0.39604954  1
  Cl  Cl228  1  0.12066285  0.22637799  0.45950450  1
  Cl  Cl229  1  0.11293386  0.06524177  0.43608027  1
  Cl  Cl230  1  0.13521867  0.53702850  0.49565172  1
  Cl  Cl231  1  0.50048543  0.17325327  0.38070529  1
  Cl  Cl232  1  0.54387700  0.64003297  0.44802815  1
  Cl  Cl233  1  0.54058719  0.94050104  0.49325194  1
  Cl  Cl234  1  0.52081244  0.48279606  0.42218583  1
  Cl  Cl235  1  0.89890599  0.94133224  0.48822583  1
  Cl  Cl236  1  0.86250251  0.47813348  0.41821881  1
  Cl  Cl237  1  0.81990209  0.17613182  0.38338414  1
  Cl  Cl238  1  0.87509832  0.64012575  0.44497247  1
  Cl  Cl239  1  0.89901139  0.78806779  0.47109715  1
  Cl  Cl240  1  0.85749031  0.32563330  0.40135558  1
  Cl  Cl241  1  0.16933829  0.16390256  0.38019321  1
  Cl  Cl242  1  0.21088410  0.63168747  0.44986349  1
  Cl  Cl243  1  0.55667841  0.78047249  0.47125503  1
  Cl  Cl244  1  0.51593609  0.31948602  0.40446984  1
  Cl  Cl245  1  0.22452514  0.78396097  0.47484693  1
  Cl  Cl246  1  0.17712629  0.32085252  0.40441660  1
  Cl  Cl247  1  0.23033168  0.93841797  0.49169190  1
  Cl  Cl248  1  0.20750916  0.47969735  0.42201836  1
  Cl  Cl249  1  0.51869027  0.66571178  0.52687386  1
  Cl  Cl250  1  0.49669897  0.83553665  0.54373974  1
  Cl  Cl251  1  0.14742922  0.84897434  0.54455797  1
  Cl  Cl252  1  0.82249609  0.01538924  0.56623174  1
  Cl  Cl253  1  0.84598446  0.83609525  0.54582502  1
  Cl  Cl254  1  0.82482222  0.68757744  0.52053636  1
  Cl  Cl255  1  0.16207979  0.68535846  0.52605855  1
  Cl  Cl256  1  0.18770556  0.00317622  0.56097720  1
  Cl  Cl257  1  0.52606123  0.09749103  0.51039783  1
  Cl  Cl258  1  0.78314833  0.45374083  0.55336385  1
  Cl  Cl259  1  0.88649940  0.09971169  0.50988289  1
  Cl  Cl260  1  0.91533405  0.25820614  0.53612447  1
  Cl  Cl261  1  0.57477532  0.23044925  0.53696040  1
  Cl  Cl262  1  0.21058768  0.27880711  0.53483655  1
  Cl  Cl263  1  0.32342376  0.41777913  0.56141655  1
