# generated using pymatgen
data_Li81Y25Cl156
_symmetry_space_group_name_H-M   'P 1'
_cell_length_a   11.17729600
_cell_length_b   23.17126381
_cell_length_c   46.52694700
_cell_angle_alpha   90.00000000
_cell_angle_beta   90.00000000
_cell_angle_gamma   61.15997857
_symmetry_Int_Tables_number   1
_chemical_formula_structural   Li81Y25Cl156
_chemical_formula_sum   'Li81 Y25 Cl156'
_cell_volume   10555.53480816
_cell_formula_units_Z   1
loop_
 _symmetry_equiv_pos_site_id
 _symmetry_equiv_pos_as_xyz
  1  'x, y, z'
loop_
 _atom_site_type_symbol
 _atom_site_label
 _atom_site_symmetry_multiplicity
 _atom_site_fract_x
 _atom_site_fract_y
 _atom_site_fract_z
 _atom_site_occupancy
  Li  Li0  1  0.07197537  0.09252677  0.10022182  1
  Li  Li1  1  0.02713843  0.65392006  0.04059923  1
  Li  Li2  1  0.08169670  0.24548661  0.12584449  1
  Li  Li3  1  0.04909248  0.78963065  0.04689286  1
  Li  Li4  1  0.74536951  0.09134221  0.10073433  1
  Li  Li5  1  0.68130465  0.62349989  0.03410468  1
  Li  Li6  1  0.67963022  0.48731188  0.07926950  1
  Li  Li7  1  0.73102987  0.93689253  0.07568147  1
  Li  Li8  1  0.35300661  0.98138520  0.02691343  1
  Li  Li9  1  0.40453672  0.42572720  0.07887875  1
  Li  Li10  1  0.71642935  0.12505394  0.03936788  1
  Li  Li11  1  0.78159580  0.58727355  0.09697033  1
  Li  Li12  1  0.05321971  0.28085446  0.06857591  1
  Li  Li13  1  0.07856806  0.74447354  0.11768849  1
  Li  Li14  1  0.52493694  0.27591627  0.03521587  1
  Li  Li15  1  0.42413332  0.73639134  0.11705020  1
  Li  Li16  1  0.39670522  0.93539989  0.08195277  1
  Li  Li17  1  0.37484537  0.48322207  0.01812327  1
  Li  Li18  1  0.16069252  0.00325206  0.22633919  1
  Li  Li19  1  0.11959682  0.54852000  0.16333490  1
  Li  Li20  1  0.17579884  0.15308393  0.24821321  1
  Li  Li21  1  0.13100880  0.69911342  0.18337286  1
  Li  Li22  1  0.83018292  0.00265614  0.22696595  1
  Li  Li23  1  0.78263895  0.55196642  0.16338945  1
  Li  Li24  1  0.80820954  0.35594866  0.20413945  1
  Li  Li25  1  0.77412746  0.88808620  0.14650648  1
  Li  Li26  1  0.42101152  0.89648884  0.14431383  1
  Li  Li27  1  0.46496012  0.36000192  0.20748198  1
  Li  Li28  1  0.79482297  0.04880423  0.16442694  1
  Li  Li29  1  0.84091711  0.50346577  0.22639665  1
  Li  Li30  1  0.13022024  0.19428321  0.18579066  1
  Li  Li31  1  0.17312479  0.64883975  0.24635231  1
  Li  Li32  1  0.46614255  0.19984977  0.18786271  1
  Li  Li33  1  0.51087576  0.65300196  0.24825954  1
  Li  Li34  1  0.47460702  0.85249519  0.20609528  1
  Li  Li35  1  0.42808460  0.39888612  0.14323030  1
  Li  Li36  1  0.25195986  0.91162488  0.35244021  1
  Li  Li37  1  0.20581222  0.45762308  0.29021858  1
  Li  Li38  1  0.26352914  0.06217810  0.37322046  1
  Li  Li39  1  0.22244536  0.60810236  0.30995917  1
  Li  Li40  1  0.92074781  0.91211870  0.35227774  1
  Li  Li41  1  0.87528360  0.45803327  0.28988396  1
  Li  Li42  1  0.89909612  0.26278178  0.33122007  1
  Li  Li43  1  0.85622697  0.80586244  0.26622704  1
  Li  Li44  1  0.51306926  0.81175739  0.26939773  1
  Li  Li45  1  0.55263856  0.26651936  0.33321851  1
  Li  Li46  1  0.88609303  0.95771396  0.28967550  1
  Li  Li47  1  0.93337775  0.41143941  0.35275040  1
  Li  Li48  1  0.22034635  0.10314258  0.31006877  1
  Li  Li49  1  0.26875639  0.55629734  0.37205107  1
  Li  Li50  1  0.55435510  0.10861611  0.31318526  1
  Li  Li51  1  0.60566251  0.55830177  0.37559734  1
  Li  Li52  1  0.56704472  0.76173300  0.33123784  1
  Li  Li53  1  0.52288487  0.30677247  0.26938033  1
  Li  Li54  1  0.34247130  0.82221997  0.47917849  1
  Li  Li55  1  0.30032380  0.36619609  0.41599829  1
  Li  Li56  1  0.35059999  0.98031297  0.49764851  1
  Li  Li57  1  0.31154300  0.51559508  0.43589213  1
  Li  Li58  1  0.01464899  0.82244497  0.47865923  1
  Li  Li59  1  0.97027187  0.36349451  0.41586425  1
  Li  Li60  1  0.98221769  0.17832015  0.46183778  1
  Li  Li61  1  0.94997447  0.71527736  0.39091394  1
  Li  Li62  1  0.60506245  0.72073431  0.39383423  1
  Li  Li63  1  0.65296695  0.16958386  0.46222926  1
  Li  Li64  1  0.97411752  0.86697854  0.41500158  1
  Li  Li65  1  0.04182642  0.32757416  0.48222784  1
  Li  Li66  1  0.29930673  0.01896652  0.43519523  1
  Li  Li67  1  0.34183580  0.48897526  0.50034190  1
  Li  Li68  1  0.63624493  0.02602661  0.43325758  1
  Li  Li69  1  0.74071171  0.42857179  0.50009187  1
  Li  Li70  1  0.65650345  0.66962307  0.45404962  1
  Li  Li71  1  0.61405246  0.21611300  0.39620391  1
  Li  Li72  1  0.41977205  0.26137452  0.53962570  1
  Li  Li73  1  0.42901549  0.43127676  0.56161246  1
  Li  Li74  1  0.01394836  0.29112712  0.54526917  1
  Li  Li75  1  0.16081765  0.63886319  0.54440242  1
  Li  Li76  1  0.69913622  0.63327587  0.51102322  1
  Li  Li77  1  0.05131772  0.78928042  0.54025773  1
  Li  Li78  1  0.40150035  0.93256868  0.55229287  1
  Li  Li79  1  0.68958946  0.97756576  0.50438584  1
  Li  Li80  1  0.71427780  0.12520141  0.53319213  1
  Y  Y81  1  0.41008074  0.09744823  0.10086671  1
  Y  Y82  1  0.36113141  0.63812172  0.03555691  1
  Y  Y83  1  0.74241609  0.24778700  0.12307647  1
  Y  Y84  1  0.69920401  0.78184088  0.05738116  1
  Y  Y85  1  0.06901702  0.93417183  0.07898746  1
  Y  Y86  1  0.50300699  0.00279860  0.22680781  1
  Y  Y87  1  0.45487039  0.54944962  0.16479848  1
  Y  Y88  1  0.83354274  0.15867934  0.24872031  1
  Y  Y89  1  0.78855901  0.70309362  0.18494206  1
  Y  Y90  1  0.10549365  0.39233472  0.14362948  1
  Y  Y91  1  0.14581855  0.84751136  0.20545785  1
  Y  Y92  1  0.59310683  0.91255516  0.35272360  1
  Y  Y93  1  0.54921195  0.45750283  0.28971344  1
  Y  Y94  1  0.92532545  0.06744052  0.37405725  1
  Y  Y95  1  0.87915478  0.61348075  0.31086463  1
  Y  Y96  1  0.19022816  0.30192395  0.26848228  1
  Y  Y97  1  0.23639583  0.75634875  0.33073928  1
  Y  Y98  1  0.69012415  0.81720068  0.47863867  1
  Y  Y99  1  0.63848033  0.36544091  0.41477372  1
  Y  Y100  1  0.02232961  0.98039244  0.50041689  1
  Y  Y101  1  0.97487805  0.52292349  0.43580820  1
  Y  Y102  1  0.27968087  0.21152302  0.39448515  1
  Y  Y103  1  0.32260722  0.66701454  0.45622251  1
  Y  Y104  1  0.72330022  0.27678726  0.54379432  1
  Y  Y105  1  0.34813065  0.13320400  0.52226746  1
  Cl  Cl106  1  0.20428332  0.97071626  0.11581517  1
  Cl  Cl107  1  0.15778964  0.67509764  0.07468769  1
  Cl  Cl108  1  0.85487770  0.65842003  0.07305015  1
  Cl  Cl109  1  0.38759578  0.38798413  0.03310846  1
  Cl  Cl110  1  0.50636675  0.82011454  0.09853482  1
  Cl  Cl111  1  0.18297149  0.81229265  0.09681141  1
  Cl  Cl112  1  0.62179519  0.19472267  0.00388700  1
  Cl  Cl113  1  0.50952822  0.65800030  0.07555855  1
  Cl  Cl114  1  0.53082147  0.96918007  0.11608937  1
  Cl  Cl115  1  0.47143545  0.50924239  0.05780356  1
  Cl  Cl116  1  0.86284148  0.96988736  0.11740452  1
  Cl  Cl117  1  0.82063929  0.51834561  0.05741445  1
  Cl  Cl118  1  0.83680475  0.82188793  0.09680331  1
  Cl  Cl119  1  0.29610501  0.37421534  0.10697236  1
  Cl  Cl120  1  0.25651414  0.91821225  0.04111834  1
  Cl  Cl121  1  0.27846811  0.21651449  0.08004495  1
  Cl  Cl122  1  0.23284940  0.75375340  0.01534585  1
  Cl  Cl123  1  0.62913893  0.21255046  0.08139044  1
  Cl  Cl124  1  0.59745075  0.74011174  0.01982012  1
  Cl  Cl125  1  0.61934585  0.36922398  0.10478583  1
  Cl  Cl126  1  0.57745530  0.91192573  0.04270117  1
  Cl  Cl127  1  0.61335156  0.06277441  0.06370616  1
  Cl  Cl128  1  0.56011896  0.59325382  0.00052202  1
  Cl  Cl129  1  0.97444737  0.36020414  0.10443244  1
  Cl  Cl130  1  0.92128469  0.91016706  0.04302163  1
  Cl  Cl131  1  0.27428903  0.06296690  0.06274569  1
  Cl  Cl132  1  0.21197977  0.59096980  0.00791436  1
  Cl  Cl133  1  0.93593638  0.06263406  0.06409298  1
  Cl  Cl134  1  0.95079443  0.21845013  0.08578626  1
  Cl  Cl135  1  0.89647716  0.76184968  0.02184276  1
  Cl  Cl136  1  0.28641265  0.88073717  0.24150415  1
  Cl  Cl137  1  0.24370230  0.42511478  0.18043811  1
  Cl  Cl138  1  0.20565879  0.12505669  0.13642071  1
  Cl  Cl139  1  0.24771671  0.58130852  0.20056961  1
  Cl  Cl140  1  0.87592741  0.11977713  0.13601581  1
  Cl  Cl141  1  0.91608067  0.57754153  0.19981669  1
  Cl  Cl142  1  0.55082156  0.27778323  0.16171350  1
  Cl  Cl143  1  0.59397194  0.73461863  0.22392597  1
  Cl  Cl144  1  0.22206388  0.26698479  0.16046471  1
  Cl  Cl145  1  0.26344008  0.72386026  0.22254831  1
  Cl  Cl146  1  0.55968912  0.11909310  0.13840635  1
  Cl  Cl147  1  0.60137642  0.57507007  0.20253526  1
  Cl  Cl148  1  0.61282427  0.87833552  0.24501236  1
  Cl  Cl149  1  0.56832846  0.42336049  0.18258939  1
  Cl  Cl150  1  0.95056284  0.88181870  0.24535332  1
  Cl  Cl151  1  0.90774407  0.42632055  0.18322737  1
  Cl  Cl152  1  0.89908543  0.26802240  0.16103859  1
  Cl  Cl153  1  0.94117947  0.72567291  0.22319780  1
  Cl  Cl154  1  0.38647423  0.28128797  0.23041397  1
  Cl  Cl155  1  0.34116685  0.82662251  0.16803906  1
  Cl  Cl156  1  0.36423948  0.12738699  0.20856053  1
  Cl  Cl157  1  0.31809824  0.67279455  0.14590710  1
  Cl  Cl158  1  0.70910137  0.12419302  0.20806180  1
  Cl  Cl159  1  0.66785084  0.66908924  0.14430987  1
  Cl  Cl160  1  0.70592389  0.28226430  0.23143366  1
  Cl  Cl161  1  0.65855258  0.82857012  0.16803387  1
  Cl  Cl162  1  0.69788860  0.97692287  0.18832622  1
  Cl  Cl163  1  0.65521061  0.52149064  0.12819610  1
  Cl  Cl164  1  0.05663613  0.27124751  0.22992092  1
  Cl  Cl165  1  0.01055303  0.81845811  0.16618134  1
  Cl  Cl166  1  0.36140566  0.97103321  0.19028081  1
  Cl  Cl167  1  0.31632731  0.51664211  0.12883449  1
  Cl  Cl168  1  0.01763546  0.97431563  0.19074023  1
  Cl  Cl169  1  0.97845530  0.51885504  0.12926475  1
  Cl  Cl170  1  0.04126281  0.12614680  0.21251126  1
  Cl  Cl171  1  0.99394714  0.67378576  0.14904199  1
  Cl  Cl172  1  0.37885716  0.78885779  0.36691342  1
  Cl  Cl173  1  0.33311723  0.33379599  0.30454838  1
  Cl  Cl174  1  0.29666891  0.03453532  0.26278299  1
  Cl  Cl175  1  0.34141566  0.48973897  0.32555633  1
  Cl  Cl176  1  0.96113951  0.03152545  0.26236626  1
  Cl  Cl177  1  0.00634728  0.48698536  0.32537155  1
  Cl  Cl178  1  0.63901553  0.18805003  0.28710282  1
  Cl  Cl179  1  0.68470982  0.64409226  0.34953010  1
  Cl  Cl180  1  0.30989678  0.17771412  0.28569446  1
  Cl  Cl181  1  0.35536744  0.63282639  0.34797273  1
  Cl  Cl182  1  0.64659364  0.02873251  0.26451381  1
  Cl  Cl183  1  0.69203807  0.48363309  0.32767885  1
  Cl  Cl184  1  0.70396384  0.78789615  0.37102146  1
  Cl  Cl185  1  0.65711841  0.33304051  0.30820114  1
  Cl  Cl186  1  0.04261546  0.79091151  0.37124994  1
  Cl  Cl187  1  0.99676477  0.33611993  0.30851354  1
  Cl  Cl188  1  0.98831048  0.17851694  0.28682045  1
  Cl  Cl189  1  0.03389901  0.63413390  0.34898537  1
  Cl  Cl190  1  0.47730911  0.18905703  0.35620628  1
  Cl  Cl191  1  0.43114689  0.73661097  0.29261426  1
  Cl  Cl192  1  0.45372377  0.03682309  0.33439942  1
  Cl  Cl193  1  0.40876862  0.58208603  0.27125025  1
  Cl  Cl194  1  0.79900206  0.03315342  0.33403316  1
  Cl  Cl195  1  0.75370525  0.57927048  0.27100061  1
  Cl  Cl196  1  0.79541576  0.19105615  0.35697049  1
  Cl  Cl197  1  0.75089055  0.73770616  0.29368364  1
  Cl  Cl198  1  0.78870198  0.88671382  0.31503790  1
  Cl  Cl199  1  0.74445491  0.43155975  0.25186526  1
  Cl  Cl200  1  0.14737726  0.18039564  0.35557097  1
  Cl  Cl201  1  0.10087354  0.72696825  0.29230148  1
  Cl  Cl202  1  0.45128167  0.88040250  0.31662452  1
  Cl  Cl203  1  0.40531633  0.42546622  0.25401218  1
  Cl  Cl204  1  0.10938263  0.88343919  0.31691692  1
  Cl  Cl205  1  0.06459977  0.42854229  0.25428929  1
  Cl  Cl206  1  0.13190883  0.03437129  0.33776887  1
  Cl  Cl207  1  0.08601373  0.58136742  0.27493433  1
  Cl  Cl208  1  0.47231840  0.69592829  0.49368689  1
  Cl  Cl209  1  0.42616240  0.24105095  0.43036219  1
  Cl  Cl210  1  0.38767362  0.94408492  0.38906314  1
  Cl  Cl211  1  0.43416424  0.39834183  0.45067193  1
  Cl  Cl212  1  0.05091615  0.94057935  0.38861950  1
  Cl  Cl213  1  0.10073978  0.39633154  0.45005309  1
  Cl  Cl214  1  0.73258537  0.09631643  0.41340053  1
  Cl  Cl215  1  0.77994318  0.55407942  0.47508206  1
  Cl  Cl216  1  0.40098551  0.08606554  0.41142541  1
  Cl  Cl217  1  0.44307263  0.54538884  0.47425829  1
  Cl  Cl218  1  0.73656892  0.93819598  0.39125036  1
  Cl  Cl219  1  0.78305383  0.39350704  0.45124835  1
  Cl  Cl220  1  0.79553291  0.69783524  0.49926314  1
  Cl  Cl221  1  0.74864210  0.24209615  0.43360608  1
  Cl  Cl222  1  0.13915437  0.70194019  0.49806280  1
  Cl  Cl223  1  0.09088088  0.24602544  0.43512757  1
  Cl  Cl224  1  0.07918331  0.08841388  0.41142167  1
  Cl  Cl225  1  0.12942245  0.54098842  0.47237838  1
  Cl  Cl226  1  0.56575926  0.09263674  0.48287501  1
  Cl  Cl227  1  0.52029107  0.64682550  0.41843797  1
  Cl  Cl228  1  0.55393619  0.94546977  0.46351413  1
  Cl  Cl229  1  0.49980658  0.49146855  0.39675514  1
  Cl  Cl230  1  0.88704757  0.94490165  0.46209067  1
  Cl  Cl231  1  0.84487834  0.48875610  0.39624360  1
  Cl  Cl232  1  0.89315769  0.10237823  0.48272053  1
  Cl  Cl233  1  0.84049400  0.64827209  0.41913252  1
  Cl  Cl234  1  0.88277109  0.79574949  0.44107511  1
  Cl  Cl235  1  0.83585468  0.34002909  0.37696093  1
  Cl  Cl236  1  0.23191096  0.09511843  0.48099969  1
  Cl  Cl237  1  0.19096486  0.63732082  0.41747974  1
  Cl  Cl238  1  0.54056113  0.78979033  0.44308710  1
  Cl  Cl239  1  0.49516746  0.33357338  0.37893976  1
  Cl  Cl240  1  0.20037898  0.79503703  0.44340919  1
  Cl  Cl241  1  0.15602117  0.33715487  0.37955854  1
  Cl  Cl242  1  0.23067634  0.94430365  0.46367773  1
  Cl  Cl243  1  0.17843652  0.48998540  0.39893487  1
  Cl  Cl244  1  0.50532709  0.15299740  0.55796928  1
  Cl  Cl245  1  0.48572548  0.85093795  0.51675684  1
  Cl  Cl246  1  0.48026979  0.32394681  0.57182966  1
  Cl  Cl247  1  0.14632043  0.85191205  0.51529232  1
  Cl  Cl248  1  0.82718013  0.00456570  0.53663269  1
  Cl  Cl249  1  0.48586442  0.00290992  0.53694611  1
  Cl  Cl250  1  0.82409214  0.85168973  0.51586757  1
  Cl  Cl251  1  0.83187562  0.32209380  0.57881126  1
  Cl  Cl252  1  0.82603292  0.16140384  0.56439245  1
  Cl  Cl253  1  0.16253504  0.17498374  0.55976068  1
  Cl  Cl254  1  0.17835082  0.99636108  0.53823650  1
  Cl  Cl255  1  0.57676256  0.40550862  0.52155110  1
  Cl  Cl256  1  0.94415613  0.39619987  0.52193276  1
  Cl  Cl257  1  0.09599150  0.71988878  0.57578276  1
  Cl  Cl258  1  0.91116924  0.25645948  0.50376321  1
  Cl  Cl259  1  0.25169038  0.52660846  0.54633089  1
  Cl  Cl260  1  0.59302046  0.23948308  0.50508339  1
  Cl  Cl261  1  0.25732440  0.25651850  0.50666840  1
