# generated using pymatgen
data_Li9Y2Cl15
_symmetry_space_group_name_H-M   'P 1'
_cell_length_a   6.09758500
_cell_length_b   11.17729600
_cell_length_c   48.39891500
_cell_angle_alpha   90.00000000
_cell_angle_beta   90.00000000
_cell_angle_gamma   89.99868772
_symmetry_Int_Tables_number   1
_chemical_formula_structural   Li9Y2Cl15
_chemical_formula_sum   'Li18 Y4 Cl30'
_cell_volume   3298.60445397
_cell_formula_units_Z   2
loop_
 _symmetry_equiv_pos_site_id
 _symmetry_equiv_pos_as_xyz
  1  'x, y, z'
loop_
 _atom_site_type_symbol
 _atom_site_label
 _atom_site_symmetry_multiplicity
 _atom_site_fract_x
 _atom_site_fract_y
 _atom_site_fract_z
 _atom_site_occupancy
  Li  Li0  1  0.97162289  0.21405206  0.08197067  1
  Li  Li1  1  0.99967266  0.43094898  0.16602908  1
  Li  Li2  1  0.94550248  0.92921304  0.09949743  1
  Li  Li3  1  0.58165249  0.64059328  0.03733530  1
  Li  Li4  1  0.47571558  0.38313666  0.04463074  1
  Li  Li5  1  0.48216593  0.97554975  0.10721570  1
  Li  Li6  1  0.50105268  0.43041837  0.16350033  1
  Li  Li7  1  0.52896387  0.75902551  0.17066567  1
  Li  Li8  1  0.97998747  0.41672173  0.03431496  1
  Li  Li9  1  0.02844244  0.71405862  0.31800725  1
  Li  Li10  1  0.02007322  0.91674028  0.36568336  1
  Li  Li11  1  0.05445719  0.42918882  0.30049700  1
  Li  Li12  1  0.46949186  0.25922047  0.22945857  1
  Li  Li13  1  0.49875564  0.93050055  0.23648914  1
  Li  Li14  1  0.51781448  0.47551626  0.29278503  1
  Li  Li15  1  0.52408082  0.88289635  0.35534209  1
  Li  Li16  1  0.41829367  0.14056598  0.36266647  1
  Li  Li17  1  0.00020061  0.93101340  0.23396549  1
  Y  Y18  1  0.00244914  0.59549051  0.09931970  1
  Y  Y19  1  0.98372328  0.09893583  0.16747394  1
  Y  Y20  1  0.99755764  0.09544527  0.30069503  1
  Y  Y21  1  0.01583535  0.59897279  0.23250887  1
  Cl  Cl22  1  0.19224649  0.25160672  0.04320691  1
  Cl  Cl23  1  0.24386439  0.43662623  0.12404331  1
  Cl  Cl24  1  0.18603676  0.10024349  0.11834228  1
  Cl  Cl25  1  0.24059617  0.93522396  0.18983855  1
  Cl  Cl26  1  0.25678855  0.59446719  0.18688161  1
  Cl  Cl27  1  0.23330307  0.78760121  0.11239210  1
  Cl  Cl28  1  0.22778247  0.57308848  0.05139405  1
  Cl  Cl29  1  0.24727914  0.27012584  0.18717618  1
  Cl  Cl30  1  0.75118729  0.59741763  0.14455186  1
  Cl  Cl31  1  0.73029719  0.92719902  0.14444910  1
  Cl  Cl32  1  0.68016841  0.48383127  0.01034267  1
  Cl  Cl33  1  0.74915108  0.74701375  0.07275398  1
  Cl  Cl34  1  0.76817471  0.41077202  0.07927667  1
  Cl  Cl35  1  0.71701191  0.06127140  0.07615876  1
  Cl  Cl36  1  0.75291758  0.27403839  0.14711487  1
  Cl  Cl37  1  0.24691360  0.77397536  0.25287470  1
  Cl  Cl38  1  0.23200386  0.91067128  0.32069740  1
  Cl  Cl39  1  0.28286591  0.56119845  0.32382968  1
  Cl  Cl40  1  0.32058045  0.98368701  0.38965178  1
  Cl  Cl41  1  0.25093272  0.24707128  0.32722978  1
  Cl  Cl42  1  0.24871668  0.09743005  0.25545736  1
  Cl  Cl43  1  0.26959241  0.42731791  0.25555222  1
  Cl  Cl44  1  0.75232327  0.77020751  0.21284145  1
  Cl  Cl45  1  0.77238892  0.07302390  0.34862007  1
  Cl  Cl46  1  0.74293236  0.09442004  0.21311571  1
  Cl  Cl47  1  0.76678634  0.28763365  0.28764453  1
  Cl  Cl48  1  0.75913378  0.43522009  0.21016003  1
  Cl  Cl49  1  0.75592799  0.93667940  0.27596383  1
  Cl  Cl50  1  0.81371927  0.60019984  0.28163275  1
  Cl  Cl51  1  0.80796287  0.75150315  0.35675997  1
