# generated using pymatgen
data_Li29Y9Cl56
_symmetry_space_group_name_H-M   'P 1'
_cell_length_a   11.17722800
_cell_length_b   23.17114807
_cell_length_c   46.52794100
_cell_angle_alpha   90.00000000
_cell_angle_beta   90.00000000
_cell_angle_gamma   61.15890919
_symmetry_Int_Tables_number   1
_chemical_formula_structural   Li29Y9Cl56
_chemical_formula_sum   'Li87 Y27 Cl168'
_cell_volume   10555.53488094
_cell_formula_units_Z   3
loop_
 _symmetry_equiv_pos_site_id
 _symmetry_equiv_pos_as_xyz
  1  'x, y, z'
loop_
 _atom_site_type_symbol
 _atom_site_label
 _atom_site_symmetry_multiplicity
 _atom_site_fract_x
 _atom_site_fract_y
 _atom_site_fract_z
 _atom_site_occupancy
  Li  Li0  1  0.74833014  0.91672731  0.12319025  1
  Li  Li1  1  0.73489975  0.43126218  0.05397305  1
  Li  Li2  1  0.41897934  0.91916727  0.12275235  1
  Li  Li3  1  0.38135731  0.46593430  0.04620081  1
  Li  Li4  1  0.70659712  0.13792050  0.01472922  1
  Li  Li5  1  0.74848124  0.59657998  0.08040796  1
  Li  Li6  1  0.01968961  0.14546042  0.07783637  1
  Li  Li7  1  0.07400833  0.60498443  0.07410333  1
  Li  Li8  1  0.08225353  0.25729379  0.09450511  1
  Li  Li9  1  0.02775110  0.80443925  0.04804686  1
  Li  Li10  1  0.78237708  0.06135804  0.07059111  1
  Li  Li11  1  0.71279642  0.64247291  0.02428209  1
  Li  Li12  1  0.39935260  0.94140279  0.05762547  1
  Li  Li13  1  0.44678827  0.41615087  0.11653170  1
  Li  Li14  1  0.40857926  0.27417215  0.10673476  1
  Li  Li15  1  0.38318232  0.81079784  0.04837918  1
  Li  Li16  1  0.00548727  0.28144098  0.03129440  1
  Li  Li17  1  0.07554250  0.76156474  0.10521665  1
  Li  Li18  1  0.84341070  0.82197482  0.24890562  1
  Li  Li19  1  0.80251851  0.36489300  0.18511105  1
  Li  Li20  1  0.51498849  0.82181982  0.24873702  1
  Li  Li21  1  0.46568714  0.36939643  0.18465503  1
  Li  Li22  1  0.76286636  0.06757489  0.14166690  1
  Li  Li23  1  0.81132152  0.51940617  0.20608220  1
  Li  Li24  1  0.14819028  0.02093948  0.20745888  1
  Li  Li25  1  0.10848313  0.55265774  0.14852002  1
  Li  Li26  1  0.14711383  0.17679179  0.22762841  1
  Li  Li27  1  0.10469093  0.72351740  0.16804690  1
  Li  Li28  1  0.80860936  0.01533364  0.20526698  1
  Li  Li29  1  0.77422191  0.53739614  0.13892279  1
  Li  Li30  1  0.48227972  0.86850991  0.18600922  1
  Li  Li31  1  0.52284764  0.32157219  0.24806423  1
  Li  Li32  1  0.49271931  0.17266593  0.22356950  1
  Li  Li33  1  0.46080531  0.71406996  0.16697493  1
  Li  Li34  1  0.11280791  0.21710926  0.16296039  1
  Li  Li35  1  0.16178637  0.67117462  0.22820457  1
  Li  Li36  1  0.93689024  0.72896311  0.37328428  1
  Li  Li37  1  0.88981290  0.27570266  0.31093476  1
  Li  Li38  1  0.60791175  0.72910905  0.37346948  1
  Li  Li39  1  0.55813552  0.27578327  0.31106181  1
  Li  Li40  1  0.86081394  0.97199580  0.26866768  1
  Li  Li41  1  0.90415939  0.42594571  0.33224472  1
  Li  Li42  1  0.24158678  0.92543259  0.33334211  1
  Li  Li43  1  0.19549458  0.46846164  0.27132047  1
  Li  Li44  1  0.23989045  0.08431470  0.35358066  1
  Li  Li45  1  0.19564031  0.62989900  0.29109133  1
  Li  Li46  1  0.90504983  0.92085700  0.33088453  1
  Li  Li47  1  0.85731213  0.46616209  0.26835040  1
  Li  Li48  1  0.57418820  0.77578279  0.31108891  1
  Li  Li49  1  0.61468888  0.22948085  0.37400890  1
  Li  Li50  1  0.57976963  0.08291246  0.35036871  1
  Li  Li51  1  0.54240176  0.62554965  0.28880173  1
  Li  Li52  1  0.20541683  0.12494623  0.28975897  1
  Li  Li53  1  0.25253049  0.57918190  0.35334361  1
  Li  Li54  1  0.03058198  0.63433712  0.49928326  1
  Li  Li55  1  0.97949681  0.18570758  0.43701499  1
  Li  Li56  1  0.70634817  0.63235622  0.49950469  1
  Li  Li57  1  0.65225287  0.18256984  0.43716898  1
  Li  Li58  1  0.95432279  0.87943282  0.39384655  1
  Li  Li59  1  0.99552183  0.33341163  0.45921268  1
  Li  Li60  1  0.33575775  0.83718485  0.45391064  1
  Li  Li61  1  0.28692202  0.37914426  0.39827815  1
  Li  Li62  1  0.29537178  0.01457303  0.48328049  1
  Li  Li63  1  0.28658191  0.53599060  0.41685983  1
  Li  Li64  1  0.00052183  0.82732119  0.45425620  1
  Li  Li65  1  0.94960575  0.37417266  0.39454300  1
  Li  Li66  1  0.66949153  0.68285361  0.43625699  1
  Li  Li67  1  0.72725012  0.13436397  0.50559692  1
  Li  Li68  1  0.66230802  0.99843136  0.47241919  1
  Li  Li69  1  0.63584421  0.53153013  0.41475599  1
  Li  Li70  1  0.29846018  0.03163699  0.41578177  1
  Li  Li71  1  0.34578024  0.48306341  0.48034454  1
  Li  Li72  1  0.04611215  0.12088471  0.56790975  1
  Li  Li73  1  0.76138969  0.08531470  0.57601379  1
  Li  Li74  1  0.04671191  0.79007629  0.51680965  1
  Li  Li75  1  0.01481517  0.27057638  0.59081035  1
  Li  Li76  1  0.45189640  0.74075934  0.57355390  1
  Li  Li77  1  0.40514403  0.27664690  0.51502424  1
  Li  Li78  1  0.44552114  0.90865104  0.59767171  1
  Li  Li79  1  0.35521441  0.49007890  0.55180886  1
  Li  Li80  1  0.08547363  0.74692356  0.57401911  1
  Li  Li81  1  0.04608937  0.29432519  0.52767323  1
  Li  Li82  1  0.73144039  0.60979800  0.56473636  1
  Li  Li83  1  0.73091838  0.94684107  0.54808726  1
  Li  Li84  1  0.76048977  0.40530119  0.54428871  1
  Li  Li85  1  0.38846441  0.95531911  0.54164163  1
  Li  Li86  1  0.43102374  0.41371876  0.60754390  1
  Y  Y87  1  0.68353475  0.29117773  0.03455361  1
  Y  Y88  1  0.74005892  0.75884800  0.10227147  1
  Y  Y89  1  0.40042107  0.61314745  0.07642951  1
  Y  Y90  1  0.09600116  0.91223964  0.12634910  1
  Y  Y91  1  0.07176707  0.44162732  0.05766605  1
  Y  Y92  1  0.78070332  0.21250810  0.16390712  1
  Y  Y93  1  0.82954279  0.66617904  0.22661289  1
  Y  Y94  1  0.42465320  0.06804815  0.14259183  1
  Y  Y95  1  0.47041787  0.52286072  0.20710314  1
  Y  Y96  1  0.18750065  0.82213452  0.24867628  1
  Y  Y97  1  0.13878843  0.36630783  0.18640065  1
  Y  Y98  1  0.87356752  0.12020957  0.28930321  1
  Y  Y99  1  0.92115914  0.57376315  0.35204639  1
  Y  Y100  1  0.51812217  0.97754492  0.26990552  1
  Y  Y101  1  0.56272667  0.43106479  0.33271043  1
  Y  Y102  1  0.28063536  0.72878092  0.37328049  1
  Y  Y103  1  0.23191441  0.27573869  0.31095565  1
  Y  Y104  1  0.96417338  0.02841990  0.41471409  1
  Y  Y105  1  0.00896060  0.48316089  0.47948011  1
  Y  Y106  1  0.61071984  0.88504611  0.39536884  1
  Y  Y107  1  0.65416675  0.33876639  0.45816638  1
  Y  Y108  1  0.36895073  0.63895397  0.49569458  1
  Y  Y109  1  0.31930527  0.18494014  0.43538514  1
  Y  Y110  1  0.07463650  0.93854271  0.54539752  1
  Y  Y111  1  0.70572586  0.79284837  0.51981791  1
  Y  Y112  1  0.71327146  0.26037104  0.58743643  1
  Y  Y113  1  0.40360324  0.11002517  0.56450527  1
  Cl  Cl114  1  0.93520712  0.40630375  0.02357747  1
  Cl  Cl115  1  0.96311791  0.87839459  0.08678566  1
  Cl  Cl116  1  0.58636976  0.41615355  0.01983809  1
  Cl  Cl117  1  0.61934937  0.88271734  0.08582907  1
  Cl  Cl118  1  0.63646711  0.03523042  0.10741329  1
  Cl  Cl119  1  0.59769695  0.58648398  0.03870196  1
  Cl  Cl120  1  0.26537999  0.74139721  0.05715693  1
  Cl  Cl121  1  0.24568808  0.43139393  0.02057003  1
  Cl  Cl122  1  0.29447103  0.88436904  0.08940417  1
  Cl  Cl123  1  0.55402133  0.24615047  0.00438643  1
  Cl  Cl124  1  0.62170824  0.72659263  0.05977573  1
  Cl  Cl125  1  0.87753189  0.25942417  0.99837027  1
  Cl  Cl126  1  0.93988363  0.73623687  0.06385304  1
  Cl  Cl127  1  0.96083522  0.03198978  0.10563475  1
  Cl  Cl128  1  0.92829525  0.57508730  0.04219129  1
  Cl  Cl129  1  0.31516084  0.02932561  0.10157290  1
  Cl  Cl130  1  0.25531289  0.58697132  0.04028146  1
  Cl  Cl131  1  0.18834090  0.32449073  0.08069610  1
  Cl  Cl132  1  0.49934531  0.33467944  0.07910765  1
  Cl  Cl133  1  0.39443380  0.88447751  0.01928841  1
  Cl  Cl134  1  0.55547810  0.63038333  0.11583890  1
  Cl  Cl135  1  0.15027986  0.18382309  0.05615528  1
  Cl  Cl136  1  0.20020678  0.64351558  0.11423203  1
  Cl  Cl137  1  0.81124002  0.16544214  0.05610257  1
  Cl  Cl138  1  0.87885856  0.63231618  0.11487155  1
  Cl  Cl139  1  0.18662689  0.49106798  0.09615891  1
  Cl  Cl140  1  0.83781456  0.32003788  0.07209547  1
  Cl  Cl141  1  0.74756616  0.03734522  0.02649160  1
  Cl  Cl142  1  0.85205125  0.48270253  0.09348363  1
  Cl  Cl143  1  0.51832209  0.48735125  0.08955794  1
  Cl  Cl144  1  0.99754871  0.33620039  0.15027996  1
  Cl  Cl145  1  0.04466262  0.78959594  0.21260821  1
  Cl  Cl146  1  0.65658974  0.33943376  0.14991817  1
  Cl  Cl147  1  0.70385253  0.79323349  0.21267312  1
  Cl  Cl148  1  0.72514580  0.94460720  0.23390375  1
  Cl  Cl149  1  0.67774184  0.48953188  0.17088842  1
  Cl  Cl150  1  0.29991939  0.19148572  0.12747404  1
  Cl  Cl151  1  0.34446043  0.64683559  0.18887270  1
  Cl  Cl152  1  0.33094860  0.34665229  0.14894787  1
  Cl  Cl153  1  0.38345454  0.79533285  0.21056034  1
  Cl  Cl154  1  0.64118000  0.18519949  0.12687606  1
  Cl  Cl155  1  0.69528816  0.63704857  0.18783949  1
  Cl  Cl156  1  0.97868225  0.19038908  0.12669625  1
  Cl  Cl157  1  0.02603073  0.64518493  0.18801932  1
  Cl  Cl158  1  0.04749588  0.94578474  0.23012013  1
  Cl  Cl159  1  0.99577194  0.49175908  0.16688494  1
  Cl  Cl160  1  0.39385045  0.94232692  0.23006594  1
  Cl  Cl161  1  0.34852717  0.49082165  0.16538847  1
  Cl  Cl162  1  0.25125597  0.24201642  0.20415933  1
  Cl  Cl163  1  0.21118218  0.78452331  0.14128365  1
  Cl  Cl164  1  0.58705290  0.24684875  0.20445890  1
  Cl  Cl165  1  0.55040909  0.78862678  0.14161760  1
  Cl  Cl166  1  0.57930077  0.08792794  0.18172439  1
  Cl  Cl167  1  0.62469057  0.54442080  0.24476286  1
  Cl  Cl168  1  0.23358379  0.09691827  0.18220071  1
  Cl  Cl169  1  0.27586973  0.55373710  0.24520260  1
  Cl  Cl170  1  0.90048888  0.08763181  0.18114390  1
  Cl  Cl171  1  0.94690432  0.54281595  0.24378279  1
  Cl  Cl172  1  0.24231186  0.93874328  0.16258655  1
  Cl  Cl173  1  0.28132151  0.39525301  0.22377231  1
  Cl  Cl174  1  0.92607673  0.24350725  0.20020833  1
  Cl  Cl175  1  0.88573659  0.78847593  0.13799403  1
  Cl  Cl176  1  0.88522330  0.94242706  0.15980401  1
  Cl  Cl177  1  0.93065252  0.40030725  0.22212396  1
  Cl  Cl178  1  0.55612399  0.94037768  0.15807970  1
  Cl  Cl179  1  0.59641524  0.39686067  0.22115051  1
  Cl  Cl180  1  0.08849832  0.24379082  0.27499923  1
  Cl  Cl181  1  0.13513313  0.69808038  0.33755443  1
  Cl  Cl182  1  0.74766117  0.24692850  0.27533727  1
  Cl  Cl183  1  0.79517483  0.70108286  0.33788635  1
  Cl  Cl184  1  0.81794657  0.85255893  0.35935873  1
  Cl  Cl185  1  0.76913249  0.39940403  0.29654599  1
  Cl  Cl186  1  0.38843697  0.10065105  0.25240439  1
  Cl  Cl187  1  0.43478983  0.55506754  0.31522427  1
  Cl  Cl188  1  0.42621259  0.25064114  0.27309667  1
  Cl  Cl189  1  0.47453720  0.70431613  0.33545817  1
  Cl  Cl190  1  0.73898571  0.09003233  0.25092332  1
  Cl  Cl191  1  0.78410401  0.54485730  0.31360669  1
  Cl  Cl192  1  0.06934262  0.09966853  0.25114610  1
  Cl  Cl193  1  0.11596156  0.55372066  0.31386006  1
  Cl  Cl194  1  0.14001449  0.85398133  0.35555024  1
  Cl  Cl195  1  0.09129487  0.40061874  0.29279489  1
  Cl  Cl196  1  0.48576694  0.85082818  0.35527513  1
  Cl  Cl197  1  0.43713366  0.39728635  0.29244979  1
  Cl  Cl198  1  0.34102727  0.15089517  0.32914992  1
  Cl  Cl199  1  0.29694834  0.69693811  0.26647996  1
  Cl  Cl200  1  0.68052230  0.15390747  0.32947127  1
  Cl  Cl201  1  0.63587806  0.70055085  0.26673432  1
  Cl  Cl202  1  0.67258765  0.99742778  0.30820047  1
  Cl  Cl203  1  0.71724404  0.45145537  0.37087345  1
  Cl  Cl204  1  0.32350517  0.00643765  0.30842636  1
  Cl  Cl205  1  0.36774230  0.46107078  0.37109949  1
  Cl  Cl206  1  0.99398168  0.99620129  0.30686305  1
  Cl  Cl207  1  0.03782599  0.45081445  0.36965022  1
  Cl  Cl208  1  0.33174042  0.84722629  0.28650790  1
  Cl  Cl209  1  0.37611891  0.30082474  0.34882307  1
  Cl  Cl210  1  0.01701235  0.15173989  0.32534568  1
  Cl  Cl211  1  0.97199132  0.69826257  0.26276584  1
  Cl  Cl212  1  0.98059723  0.85304737  0.28447997  1
  Cl  Cl213  1  0.02491769  0.30748804  0.34698929  1
  Cl  Cl214  1  0.64608999  0.85032123  0.28426479  1
  Cl  Cl215  1  0.69015869  0.30431035  0.34655071  1
  Cl  Cl216  1  0.17941028  0.15078021  0.39971322  1
  Cl  Cl217  1  0.21844111  0.60891290  0.46221917  1
  Cl  Cl218  1  0.83847859  0.15445327  0.40067030  1
  Cl  Cl219  1  0.88600008  0.61087016  0.46413263  1
  Cl  Cl220  1  0.91089913  0.76287096  0.48410576  1
  Cl  Cl221  1  0.86154615  0.30758690  0.42186905  1
  Cl  Cl222  1  0.48113384  0.00848828  0.37820495  1
  Cl  Cl223  1  0.52348981  0.46357022  0.44097649  1
  Cl  Cl224  1  0.51997892  0.15589123  0.39804088  1
  Cl  Cl225  1  0.56829832  0.61267259  0.45945251  1
  Cl  Cl226  1  0.83200058  0.99711455  0.37674726  1
  Cl  Cl227  1  0.87537586  0.45433884  0.43996058  1
  Cl  Cl228  1  0.16209851  0.00664328  0.37715763  1
  Cl  Cl229  1  0.20370254  0.46323171  0.44036093  1
  Cl  Cl230  1  0.22848080  0.76669910  0.48077081  1
  Cl  Cl231  1  0.18376651  0.30929731  0.41778891  1
  Cl  Cl232  1  0.57623988  0.76270735  0.48050921  1
  Cl  Cl233  1  0.52952035  0.30431915  0.41748462  1
  Cl  Cl234  1  0.42710881  0.05947584  0.45506014  1
  Cl  Cl235  1  0.38795588  0.60530160  0.39191695  1
  Cl  Cl236  1  0.77821697  0.06050021  0.45637345  1
  Cl  Cl237  1  0.72692260  0.60906279  0.39203109  1
  Cl  Cl238  1  0.76520069  0.90584672  0.43409121  1
  Cl  Cl239  1  0.80803617  0.36090397  0.49532816  1
  Cl  Cl240  1  0.41786015  0.91402768  0.43400784  1
  Cl  Cl241  1  0.46075572  0.36572815  0.49536089  1
  Cl  Cl242  1  0.08705469  0.90433659  0.43303235  1
  Cl  Cl243  1  0.13138712  0.35967688  0.49451449  1
  Cl  Cl244  1  0.42268370  0.75584330  0.41139561  1
  Cl  Cl245  1  0.47228688  0.20453918  0.47284591  1
  Cl  Cl246  1  0.10472682  0.06165538  0.45100636  1
  Cl  Cl247  1  0.06284359  0.60648916  0.38807973  1
  Cl  Cl248  1  0.07294035  0.76135682  0.40946229  1
  Cl  Cl249  1  0.11839917  0.21471543  0.47160493  1
  Cl  Cl250  1  0.73876921  0.75808033  0.40943821  1
  Cl  Cl251  1  0.78358922  0.21174006  0.47200705  1
  Cl  Cl252  1  0.26540286  0.06929647  0.52866169  1
  Cl  Cl253  1  0.27103517  0.51439527  0.59578925  1
  Cl  Cl254  1  0.94147986  0.06429620  0.53233955  1
  Cl  Cl255  1  0.92506958  0.23219810  0.54992291  1
  Cl  Cl256  1  0.59135871  0.91936506  0.50733223  1
  Cl  Cl257  1  0.59035132  0.38634011  0.56604988  1
  Cl  Cl258  1  0.61704843  0.06072050  0.52604689  1
  Cl  Cl259  1  0.93546251  0.90807227  0.50760765  1
  Cl  Cl260  1  0.96743112  0.36771548  0.56596536  1
  Cl  Cl261  1  0.26405877  0.92162738  0.50605478  1
  Cl  Cl262  1  0.28611353  0.22682799  0.54117269  1
  Cl  Cl263  1  0.61068888  0.66745216  0.60277641  1
  Cl  Cl264  1  0.61691630  0.21686788  0.54284334  1
  Cl  Cl265  1  0.52601183  0.97663204  0.58003075  1
  Cl  Cl266  1  0.47300545  0.51932976  0.51641559  1
  Cl  Cl267  1  0.87755194  0.96452987  0.58166608  1
  Cl  Cl268  1  0.82298086  0.52195657  0.52062816  1
  Cl  Cl269  1  0.86074154  0.81541259  0.55819619  1
  Cl  Cl270  1  0.84332080  0.29233118  0.62370173  1
  Cl  Cl271  1  0.52286003  0.82480034  0.56226712  1
  Cl  Cl272  1  0.49425369  0.30537613  0.61775258  1
  Cl  Cl273  1  0.19589591  0.81035203  0.56481439  1
  Cl  Cl274  1  0.51169509  0.66677087  0.53267602  1
  Cl  Cl275  1  0.55703897  0.12012493  0.60167621  1
  Cl  Cl276  1  0.21863624  0.96514468  0.58319780  1
  Cl  Cl277  1  0.15548391  0.51589346  0.51467730  1
  Cl  Cl278  1  0.16834098  0.67286130  0.53530475  1
  Cl  Cl279  1  0.19535747  0.14624106  0.59842338  1
  Cl  Cl280  1  0.83271925  0.66890136  0.53639137  1
  Cl  Cl281  1  0.86711835  0.13542095  0.60199773  1
