# generated using pymatgen
data_Li21Y5Cl36
_symmetry_space_group_name_H-M   'P 1'
_cell_length_a   6.09758500
_cell_length_b   11.17729600
_cell_length_c   48.39891500
_cell_angle_alpha   90.00000000
_cell_angle_beta   90.00000000
_cell_angle_gamma   89.99868772
_symmetry_Int_Tables_number   1
_chemical_formula_structural   Li21Y5Cl36
_chemical_formula_sum   'Li21 Y5 Cl36'
_cell_volume   3298.60445397
_cell_formula_units_Z   1
loop_
 _symmetry_equiv_pos_site_id
 _symmetry_equiv_pos_as_xyz
  1  'x, y, z'
loop_
 _atom_site_type_symbol
 _atom_site_label
 _atom_site_symmetry_multiplicity
 _atom_site_fract_x
 _atom_site_fract_y
 _atom_site_fract_z
 _atom_site_occupancy
  Li  Li0  1  0.91140841  0.00054141  0.03204842  1
  Li  Li1  1  0.94084301  0.26459520  0.09816269  1
  Li  Li2  1  0.01906484  0.73324550  0.03669309  1
  Li  Li3  1  0.49052120  0.08277644  0.16758703  1
  Li  Li4  1  0.50062830  0.74301674  0.16712328  1
  Li  Li5  1  0.52219683  0.78105422  0.03966314  1
  Li  Li6  1  0.47597693  0.27451709  0.10745593  1
  Li  Li7  1  0.49711272  0.55942702  0.08296985  1
  Li  Li8  1  0.99887974  0.74966095  0.16499392  1
  Li  Li9  1  0.99983076  0.58924219  0.23261224  1
  Li  Li10  1  0.99995392  0.74977986  0.29983502  1
  Li  Li11  1  0.99977598  0.25646513  0.23268762  1
  Li  Li12  1  0.50540841  0.56011269  0.38220353  1
  Li  Li13  1  0.52437623  0.27559074  0.35806683  1
  Li  Li14  1  0.49988170  0.26792197  0.23252468  1
  Li  Li15  1  0.49833175  0.74464181  0.29764848  1
  Li  Li16  1  0.50809092  0.08338408  0.29730822  1
  Li  Li17  1  0.06072533  0.26506696  0.36688318  1
  Li  Li18  1  0.08939758  0.99995582  0.43266555  1
  Li  Li19  1  0.98345381  0.73224024  0.42834203  1
  Li  Li20  1  0.47839617  0.78114846  0.42523690  1
  Y  Y21  1  0.01438260  0.91632418  0.10094802  1
  Y  Y22  1  0.99241290  0.41830642  0.16453156  1
  Y  Y23  1  0.99923286  0.92764144  0.23243952  1
  Y  Y24  1  0.00675017  0.41854787  0.30057057  1
  Y  Y25  1  0.98520709  0.91644395  0.36392559  1
  Cl  Cl26  1  0.23100893  0.58943912  0.18744594  1
  Cl  Cl27  1  0.23769847  0.92343455  0.05206862  1
  Cl  Cl28  1  0.25664141  0.75235753  0.12378173  1
  Cl  Cl29  1  0.19544915  0.41604670  0.11597636  1
  Cl  Cl30  1  0.31323127  0.61072032  0.04214641  1
  Cl  Cl31  1  0.25651125  0.91485529  0.18756040  1
  Cl  Cl32  1  0.25295817  0.25595545  0.18870184  1
  Cl  Cl33  1  0.25314411  0.09931809  0.11827332  1
  Cl  Cl34  1  0.74452719  0.59104327  0.14569991  1
  Cl  Cl35  1  0.67873248  0.38110813  0.07619311  1
  Cl  Cl36  1  0.78178805  0.74009934  0.07705345  1
  Cl  Cl37  1  0.75608525  0.91372112  0.14449927  1
  Cl  Cl38  1  0.74155013  0.24432957  0.14341964  1
  Cl  Cl39  1  0.78099972  0.84393656  0.00796181  1
  Cl  Cl40  1  0.78169840  0.07888126  0.07384192  1
  Cl  Cl41  1  0.21890510  0.07895921  0.39101983  1
  Cl  Cl42  1  0.22873985  0.75480083  0.25584124  1
  Cl  Cl43  1  0.23313915  0.41691361  0.25378057  1
  Cl  Cl44  1  0.25862083  0.24510519  0.32177877  1
  Cl  Cl45  1  0.24289453  0.91415863  0.32032474  1
  Cl  Cl46  1  0.24935268  0.09864955  0.25352455  1
  Cl  Cl47  1  0.32066269  0.38226121  0.38914090  1
  Cl  Cl48  1  0.21878826  0.74024572  0.38786950  1
  Cl  Cl49  1  0.25445134  0.59148426  0.31916997  1
  Cl  Cl50  1  0.74650236  0.09940309  0.34669861  1
  Cl  Cl51  1  0.74228917  0.91488167  0.27740957  1
  Cl  Cl52  1  0.74714816  0.25563600  0.27633036  1
  Cl  Cl53  1  0.80435708  0.41649659  0.34921645  1
  Cl  Cl54  1  0.74956968  0.09861702  0.21147778  1
  Cl  Cl55  1  0.74211175  0.75253042  0.34118301  1
  Cl  Cl56  1  0.77019717  0.75445156  0.20908317  1
  Cl  Cl57  1  0.76675040  0.41636106  0.21135078  1
  Cl  Cl58  1  0.76764054  0.58907781  0.27753176  1
  Cl  Cl59  1  0.21971903  0.84388612  0.45696389  1
  Cl  Cl60  1  0.68725098  0.61083876  0.42304945  1
  Cl  Cl61  1  0.76294612  0.92339901  0.41279849  1
