# generated using pymatgen
data_Li45Y13Cl84
_symmetry_space_group_name_H-M   'P 1'
_cell_length_a   11.17722800
_cell_length_b   23.17114807
_cell_length_c   46.52794100
_cell_angle_alpha   90.00000000
_cell_angle_beta   90.00000000
_cell_angle_gamma   61.15890919
_symmetry_Int_Tables_number   1
_chemical_formula_structural   Li45Y13Cl84
_chemical_formula_sum   'Li90 Y26 Cl168'
_cell_volume   10555.53488094
_cell_formula_units_Z   2
loop_
 _symmetry_equiv_pos_site_id
 _symmetry_equiv_pos_as_xyz
  1  'x, y, z'
loop_
 _atom_site_type_symbol
 _atom_site_label
 _atom_site_symmetry_multiplicity
 _atom_site_fract_x
 _atom_site_fract_y
 _atom_site_fract_z
 _atom_site_occupancy
  Li  Li0  1  0.73281866  0.93442582  0.08281047  1
  Li  Li1  1  0.70852550  0.45150404  0.04074107  1
  Li  Li2  1  0.41252457  0.92927165  0.08607040  1
  Li  Li3  1  0.30021356  0.48983104  0.02589837  1
  Li  Li4  1  0.73625982  0.09086765  0.10589229  1
  Li  Li5  1  0.66080034  0.62411041  0.03324128  1
  Li  Li6  1  0.05699871  0.12142389  0.05582414  1
  Li  Li7  1  0.10745710  0.58819513  0.10342405  1
  Li  Li8  1  0.02497629  0.25931471  0.05332015  1
  Li  Li9  1  0.99779746  0.82779737  0.00899459  1
  Li  Li10  1  0.70243747  0.13938071  0.04565196  1
  Li  Li11  1  0.92359813  0.53339608  0.07833035  1
  Li  Li12  1  0.37605128  0.96638206  0.02921921  1
  Li  Li13  1  0.28131684  0.40179477  0.06822490  1
  Li  Li14  1  0.61487312  0.30757863  0.03573014  1
  Li  Li15  1  0.38970538  0.77267947  0.05368147  1
  Li  Li16  1  0.86992181  0.23894142  0.00396256  1
  Li  Li17  1  0.05398293  0.77557328  0.06288598  1
  Li  Li18  1  0.82120449  0.84845812  0.20898565  1
  Li  Li19  1  0.76946132  0.39546589  0.14447308  1
  Li  Li20  1  0.49350007  0.84620737  0.21024981  1
  Li  Li21  1  0.43179861  0.40406060  0.14257955  1
  Li  Li22  1  0.83591360  0.99875252  0.23100787  1
  Li  Li23  1  0.78594640  0.54489799  0.16279674  1
  Li  Li24  1  0.12479763  0.04527137  0.17249105  1
  Li  Li25  1  0.16788490  0.49945452  0.23092603  1
  Li  Li26  1  0.12274609  0.20446280  0.18992428  1
  Li  Li27  1  0.08919680  0.74023741  0.12587495  1
  Li  Li28  1  0.79046290  0.04128483  0.16843642  1
  Li  Li29  1  0.83094264  0.49538916  0.22868886  1
  Li  Li30  1  0.46072461  0.89329789  0.14840844  1
  Li  Li31  1  0.49236100  0.35137429  0.20894102  1
  Li  Li32  1  0.46277817  0.20078668  0.19075299  1
  Li  Li33  1  0.44555697  0.73142848  0.13549233  1
  Li  Li34  1  0.08992286  0.24245143  0.12391641  1
  Li  Li35  1  0.13635522  0.69765315  0.18891537  1
  Li  Li36  1  0.90967461  0.75759949  0.33541629  1
  Li  Li37  1  0.86423014  0.30415320  0.27235485  1
  Li  Li38  1  0.58130307  0.75620425  0.33539970  1
  Li  Li39  1  0.53236915  0.30518733  0.27261524  1
  Li  Li40  1  0.92632662  0.90944191  0.35563188  1
  Li  Li41  1  0.87867289  0.45381546  0.29317490  1
  Li  Li42  1  0.21558571  0.95383237  0.29569180  1
  Li  Li43  1  0.25948537  0.41108883  0.35874585  1
  Li  Li44  1  0.21563729  0.11369332  0.31569207  1
  Li  Li45  1  0.17204001  0.65549451  0.25240108  1
  Li  Li46  1  0.88450935  0.94786930  0.29255334  1
  Li  Li47  1  0.92338163  0.40444449  0.35565621  1
  Li  Li48  1  0.54728523  0.80209272  0.27257519  1
  Li  Li49  1  0.59058075  0.25936092  0.33533598  1
  Li  Li50  1  0.56045976  0.10854997  0.31267486  1
  Li  Li51  1  0.51874798  0.65056726  0.24970728  1
  Li  Li52  1  0.18317143  0.15324323  0.25210616  1
  Li  Li53  1  0.22520851  0.60740185  0.31488286  1
  Li  Li54  1  0.99852028  0.66685464  0.46317218  1
  Li  Li55  1  0.95734217  0.21336439  0.39936771  1
  Li  Li56  1  0.67927647  0.65847850  0.46530579  1
  Li  Li57  1  0.62397324  0.21572452  0.39795353  1
  Li  Li58  1  0.01338046  0.81887813  0.48396932  1
  Li  Li59  1  0.96950525  0.36382147  0.41944841  1
  Li  Li60  1  0.30238727  0.86100621  0.41671270  1
  Li  Li61  1  0.34644796  0.33034927  0.47356372  1
  Li  Li62  1  0.31211544  0.02044399  0.43969674  1
  Li  Li63  1  0.25989359  0.56685842  0.37951130  1
  Li  Li64  1  0.96936907  0.85680720  0.41777194  1
  Li  Li65  1  0.00602578  0.32104507  0.48265148  1
  Li  Li66  1  0.63475931  0.71049074  0.39921101  1
  Li  Li67  1  0.68428411  0.16832791  0.45935189  1
  Li  Li68  1  0.65418252  0.01592975  0.43537865  1
  Li  Li69  1  0.60544069  0.56152885  0.37773152  1
  Li  Li70  1  0.27311376  0.06294581  0.37740659  1
  Li  Li71  1  0.31449240  0.51705927  0.44564077  1
  Li  Li72  1  0.05130404  0.61018626  0.56667875  1
  Li  Li73  1  0.04228045  0.12588790  0.52585350  1
  Li  Li74  1  0.72293322  0.57077683  0.58192889  1
  Li  Li75  1  0.71033144  0.13207398  0.52193198  1
  Li  Li76  1  0.78632017  0.82277075  0.60383178  1
  Li  Li77  1  0.04545489  0.28367442  0.54525012  1
  Li  Li78  1  0.67016763  0.75431493  0.57163450  1
  Li  Li79  1  0.37579972  0.28775253  0.55408383  1
  Li  Li80  1  0.42032287  0.92209138  0.56226472  1
  Li  Li81  1  0.43202764  0.52768578  0.52962269  1
  Li  Li82  1  0.98459356  0.80223267  0.55494453  1
  Li  Li83  1  0.09422369  0.23283332  0.59956442  1
  Li  Li84  1  0.52218285  0.66018323  0.54005622  1
  Li  Li85  1  0.74830954  0.09465329  0.57903059  1
  Li  Li86  1  0.74032247  0.93941322  0.55190406  1
  Li  Li87  1  0.72259065  0.47454353  0.50384275  1
  Li  Li88  1  0.35660031  0.97080579  0.50199034  1
  Li  Li89  1  0.34833011  0.43785439  0.57411574  1
  Y  Y90  1  0.72916224  0.77178463  0.06113714  1
  Y  Y91  1  0.40495087  0.09359828  0.10495268  1
  Y  Y92  1  0.35021407  0.62554093  0.03404162  1
  Y  Y93  1  0.07014551  0.93774725  0.08209689  1
  Y  Y94  1  0.75340463  0.23696832  0.12918245  1
  Y  Y95  1  0.80939415  0.69152805  0.18865265  1
  Y  Y96  1  0.49510177  0.00356823  0.23142226  1
  Y  Y97  1  0.45037828  0.54722098  0.16895723  1
  Y  Y98  1  0.16341620  0.84782623  0.20965633  1
  Y  Y99  1  0.11226832  0.39068986  0.14937789  1
  Y  Y100  1  0.84959014  0.14789529  0.25172355  1
  Y  Y101  1  0.89443356  0.60214052  0.31388337  1
  Y  Y102  1  0.58335725  0.91377273  0.35619225  1
  Y  Y103  1  0.53761959  0.45923327  0.29434654  1
  Y  Y104  1  0.25230699  0.75719792  0.33465933  1
  Y  Y105  1  0.20572572  0.30432806  0.27337786  1
  Y  Y106  1  0.94062408  0.05824078  0.37675978  1
  Y  Y107  1  0.98431231  0.51400122  0.43902676  1
  Y  Y108  1  0.66595127  0.82462434  0.47885990  1
  Y  Y109  1  0.63000236  0.37019965  0.41944646  1
  Y  Y110  1  0.33292097  0.67106901  0.45864358  1
  Y  Y111  1  0.29738838  0.21386418  0.39852138  1
  Y  Y112  1  0.03078949  0.96785771  0.50292648  1
  Y  Y113  1  0.04192210  0.43482205  0.57348565  1
  Y  Y114  1  0.71194358  0.28920714  0.54709031  1
  Y  Y115  1  0.38539420  0.12335269  0.52583489  1
  Cl  Cl116  1  0.97501334  0.36039527  0.11118303  1
  Cl  Cl117  1  0.92416074  0.91046941  0.04371397  1
  Cl  Cl118  1  0.63734954  0.35854627  0.11109488  1
  Cl  Cl119  1  0.59496384  0.90349058  0.04591727  1
  Cl  Cl120  1  0.60691143  0.06589546  0.06705158  1
  Cl  Cl121  1  0.52954061  0.61102109  0.99669987  1
  Cl  Cl122  1  0.25764533  0.21073240  0.08357020  1
  Cl  Cl123  1  0.22236277  0.75901505  0.02186321  1
  Cl  Cl124  1  0.31540728  0.35768272  0.11323863  1
  Cl  Cl125  1  0.26789953  0.90593422  0.04280837  1
  Cl  Cl126  1  0.63153907  0.20601111  0.08790823  1
  Cl  Cl127  1  0.58905249  0.74707646  0.02342195  1
  Cl  Cl128  1  0.95111647  0.20954994  0.08970905  1
  Cl  Cl129  1  0.90791454  0.76176792  0.02196003  1
  Cl  Cl130  1  0.93812534  0.05997726  0.06017514  1
  Cl  Cl131  1  0.29412459  0.04770887  0.06443316  1
  Cl  Cl132  1  0.21389724  0.59022306  0.00086977  1
  Cl  Cl133  1  0.18906794  0.81184022  0.09620804  1
  Cl  Cl134  1  0.39148242  0.37436986  0.02560077  1
  Cl  Cl135  1  0.52130146  0.81143480  0.09892213  1
  Cl  Cl136  1  0.70793331  0.20771566  0.01029151  1
  Cl  Cl137  1  0.49054869  0.66094960  0.07114105  1
  Cl  Cl138  1  0.08772109  0.17753254  0.01732488  1
  Cl  Cl139  1  0.16864316  0.66555391  0.07974368  1
  Cl  Cl140  1  0.84413107  0.65342102  0.08006777  1
  Cl  Cl141  1  0.21883304  0.95992810  0.11922901  1
  Cl  Cl142  1  0.14313665  0.51170315  0.06465261  1
  Cl  Cl143  1  0.79812383  0.33645573  0.03111015  1
  Cl  Cl144  1  0.86243473  0.81328110  0.09658688  1
  Cl  Cl145  1  0.86472587  0.96918357  0.11708982  1
  Cl  Cl146  1  0.82015408  0.51118035  0.04157775  1
  Cl  Cl147  1  0.53690586  0.96393205  0.11829907  1
  Cl  Cl148  1  0.47804292  0.50295492  0.05216493  1
  Cl  Cl149  1  0.06591703  0.27066747  0.23701644  1
  Cl  Cl150  1  0.02394041  0.81674774  0.17250850  1
  Cl  Cl151  1  0.72404660  0.27383204  0.23735748  1
  Cl  Cl152  1  0.67944014  0.81944861  0.17366836  1
  Cl  Cl153  1  0.70144602  0.97202075  0.19498004  1
  Cl  Cl154  1  0.64904675  0.51517550  0.13235590  1
  Cl  Cl155  1  0.36615920  0.12739040  0.21401300  1
  Cl  Cl156  1  0.32217502  0.67339590  0.15066975  1
  Cl  Cl157  1  0.40271593  0.27641070  0.23561332  1
  Cl  Cl158  1  0.35903793  0.82335033  0.17103457  1
  Cl  Cl159  1  0.71714898  0.11615112  0.21306481  1
  Cl  Cl160  1  0.67344055  0.66384789  0.15062307  1
  Cl  Cl161  1  0.04582469  0.12675720  0.21324806  1
  Cl  Cl162  1  0.00279070  0.67300221  0.15049986  1
  Cl  Cl163  1  0.02540468  0.97264402  0.19109637  1
  Cl  Cl164  1  0.98019028  0.51243995  0.12922321  1
  Cl  Cl165  1  0.36955977  0.96971991  0.19068747  1
  Cl  Cl166  1  0.31547337  0.51904333  0.13089403  1
  Cl  Cl167  1  0.22888046  0.26364881  0.16529021  1
  Cl  Cl168  1  0.27396970  0.72410341  0.22764089  1
  Cl  Cl169  1  0.56492154  0.26684590  0.16846851  1
  Cl  Cl170  1  0.61249740  0.72747063  0.22837149  1
  Cl  Cl171  1  0.55928902  0.11210395  0.14262175  1
  Cl  Cl172  1  0.60101174  0.57123921  0.20705082  1
  Cl  Cl173  1  0.21376494  0.11900162  0.14318671  1
  Cl  Cl174  1  0.25237251  0.58072795  0.20792158  1
  Cl  Cl175  1  0.88223583  0.10872196  0.14256439  1
  Cl  Cl176  1  0.92667837  0.56812230  0.20542470  1
  Cl  Cl177  1  0.30751980  0.87438318  0.24701080  1
  Cl  Cl178  1  0.25712953  0.41867620  0.18636721  1
  Cl  Cl179  1  0.90635689  0.26727032  0.16215443  1
  Cl  Cl180  1  0.94788408  0.72725981  0.22437461  1
  Cl  Cl181  1  0.95642618  0.88046260  0.24536786  1
  Cl  Cl182  1  0.90255727  0.42509103  0.18405816  1
  Cl  Cl183  1  0.62249856  0.87701635  0.24518159  1
  Cl  Cl184  1  0.57212413  0.42023243  0.18209673  1
  Cl  Cl185  1  0.15604315  0.18116727  0.36278169  1
  Cl  Cl186  1  0.10777298  0.72641531  0.29892284  1
  Cl  Cl187  1  0.81494478  0.18461284  0.36293602  1
  Cl  Cl188  1  0.76795870  0.72936130  0.29963692  1
  Cl  Cl189  1  0.79050428  0.88237061  0.32053408  1
  Cl  Cl190  1  0.74440634  0.42660078  0.25824542  1
  Cl  Cl191  1  0.45569006  0.03855082  0.33976255  1
  Cl  Cl192  1  0.40950152  0.58318436  0.27715572  1
  Cl  Cl193  1  0.49480830  0.18724296  0.36116388  1
  Cl  Cl194  1  0.44751874  0.73279353  0.29701662  1
  Cl  Cl195  1  0.80713638  0.02756246  0.33837113  1
  Cl  Cl196  1  0.75993655  0.57246310  0.27520563  1
  Cl  Cl197  1  0.13623932  0.03742674  0.33873717  1
  Cl  Cl198  1  0.08996205  0.58167152  0.27584951  1
  Cl  Cl199  1  0.11356591  0.88316051  0.31686074  1
  Cl  Cl200  1  0.06659486  0.42762530  0.25469090  1
  Cl  Cl201  1  0.45709532  0.88047558  0.31624673  1
  Cl  Cl202  1  0.41268225  0.42457035  0.25429947  1
  Cl  Cl203  1  0.31731198  0.17864860  0.29126486  1
  Cl  Cl204  1  0.36021668  0.63400485  0.35348015  1
  Cl  Cl205  1  0.65663879  0.18123271  0.29174944  1
  Cl  Cl206  1  0.69989880  0.63719935  0.35378888  1
  Cl  Cl207  1  0.64914378  0.02422960  0.26946199  1
  Cl  Cl208  1  0.69195133  0.47960441  0.33235882  1
  Cl  Cl209  1  0.30014176  0.03410817  0.26973373  1
  Cl  Cl210  1  0.34317311  0.48908845  0.33286541  1
  Cl  Cl211  1  0.97103697  0.02326953  0.26847288  1
  Cl  Cl212  1  0.01435587  0.47828488  0.33104511  1
  Cl  Cl213  1  0.39336558  0.78512677  0.37246983  1
  Cl  Cl214  1  0.35196978  0.32883872  0.31094939  1
  Cl  Cl215  1  0.99386687  0.17935501  0.28744775  1
  Cl  Cl216  1  0.03562657  0.63517210  0.34987580  1
  Cl  Cl217  1  0.04484193  0.79117910  0.37091007  1
  Cl  Cl218  1  0.99922897  0.33504775  0.30910123  1
  Cl  Cl219  1  0.70929915  0.78786969  0.37070588  1
  Cl  Cl220  1  0.66567474  0.33204799  0.30840028  1
  Cl  Cl221  1  0.24249223  0.09201890  0.49090846  1
  Cl  Cl222  1  0.19157072  0.63643559  0.42413029  1
  Cl  Cl223  1  0.90380228  0.09740020  0.48977052  1
  Cl  Cl224  1  0.85226920  0.64112874  0.42574625  1
  Cl  Cl225  1  0.87887112  0.79425793  0.44568030  1
  Cl  Cl226  1  0.84035623  0.33423450  0.38383803  1
  Cl  Cl227  1  0.53889107  0.95285720  0.46553384  1
  Cl  Cl228  1  0.50139770  0.49368017  0.40268706  1
  Cl  Cl229  1  0.57798722  0.10158795  0.48869210  1
  Cl  Cl230  1  0.53407144  0.64279311  0.42171775  1
  Cl  Cl231  1  0.88979211  0.94227209  0.46495086  1
  Cl  Cl232  1  0.85297512  0.48050163  0.40016750  1
  Cl  Cl233  1  0.22217311  0.94933679  0.46530127  1
  Cl  Cl234  1  0.18287860  0.49025139  0.40098269  1
  Cl  Cl235  1  0.19423446  0.79777141  0.44249676  1
  Cl  Cl236  1  0.16015659  0.33737356  0.38044487  1
  Cl  Cl237  1  0.53694439  0.79447480  0.43976738  1
  Cl  Cl238  1  0.50543832  0.33411641  0.37965883  1
  Cl  Cl239  1  0.40861760  0.08894877  0.41713846  1
  Cl  Cl240  1  0.44523214  0.54897214  0.47870078  1
  Cl  Cl241  1  0.74684601  0.09184537  0.41736376  1
  Cl  Cl242  1  0.79267142  0.54326651  0.47709415  1
  Cl  Cl243  1  0.73744343  0.93489200  0.39471570  1
  Cl  Cl244  1  0.78621513  0.38887077  0.45767561  1
  Cl  Cl245  1  0.38803586  0.94528721  0.39503904  1
  Cl  Cl246  1  0.43907346  0.39784548  0.45748873  1
  Cl  Cl247  1  0.05901433  0.93441141  0.39406969  1
  Cl  Cl248  1  0.10706114  0.38799925  0.45746849  1
  Cl  Cl249  1  0.46956571  0.70393649  0.49491154  1
  Cl  Cl250  1  0.44326521  0.23864938  0.43714926  1
  Cl  Cl251  1  0.08366671  0.08982517  0.41317759  1
  Cl  Cl252  1  0.11761910  0.54658280  0.47573444  1
  Cl  Cl253  1  0.13483710  0.70112154  0.49670815  1
  Cl  Cl254  1  0.09516276  0.24476730  0.43557663  1
  Cl  Cl255  1  0.79369682  0.70308068  0.49691682  1
  Cl  Cl256  1  0.75572475  0.24226062  0.43441388  1
  Cl  Cl257  1  0.28217704  0.55065348  0.56605059  1
  Cl  Cl258  1  0.92561203  0.55747801  0.55543547  1
  Cl  Cl259  1  0.91114487  0.72504945  0.57684427  1
  Cl  Cl260  1  0.92781157  0.24720552  0.51139798  1
  Cl  Cl261  1  0.58897094  0.40784898  0.52855802  1
  Cl  Cl262  1  0.60704661  0.54983159  0.54313646  1
  Cl  Cl263  1  0.88201195  0.88396263  0.59073389  1
  Cl  Cl264  1  0.93783350  0.39481795  0.52829464  1
  Cl  Cl265  1  0.56227895  0.85375499  0.59752894  1
  Cl  Cl266  1  0.25285934  0.39930356  0.53626237  1
  Cl  Cl267  1  0.25136603  0.24910722  0.51160081  1
  Cl  Cl268  1  0.58277440  0.68668040  0.58224844  1
  Cl  Cl269  1  0.58233143  0.24998885  0.50926939  1
  Cl  Cl270  1  0.49780212  0.00125721  0.54779425  1
  Cl  Cl271  1  0.82866608  0.01351943  0.54356184  1
  Cl  Cl272  1  0.83540462  0.47026985  0.60676972  1
  Cl  Cl273  1  0.80970150  0.85136383  0.51836193  1
  Cl  Cl274  1  0.87200537  0.29826812  0.58621563  1
  Cl  Cl275  1  0.48237451  0.85535860  0.52011689  1
  Cl  Cl276  1  0.52236345  0.31339325  0.58461526  1
  Cl  Cl277  1  0.11832969  0.85054060  0.52432546  1
  Cl  Cl278  1  0.18044865  0.30156111  0.58594547  1
  Cl  Cl279  1  0.51907328  0.15516610  0.56519852  1
  Cl  Cl280  1  0.17783430  0.99542033  0.54088510  1
  Cl  Cl281  1  0.19223799  0.44964517  0.61073111  1
  Cl  Cl282  1  0.18488706  0.15072173  0.56435387  1
  Cl  Cl283  1  0.84146394  0.15737565  0.56222796  1
