# generated using pymatgen
data_Li83Y25Cl158
_symmetry_space_group_name_H-M   'P 1'
_cell_length_a   11.17722800
_cell_length_b   23.17114807
_cell_length_c   46.52794100
_cell_angle_alpha   90.00000000
_cell_angle_beta   90.00000000
_cell_angle_gamma   61.15890919
_symmetry_Int_Tables_number   1
_chemical_formula_structural   Li83Y25Cl158
_chemical_formula_sum   'Li83 Y25 Cl158'
_cell_volume   10555.53488094
_cell_formula_units_Z   1
loop_
 _symmetry_equiv_pos_site_id
 _symmetry_equiv_pos_as_xyz
  1  'x, y, z'
loop_
 _atom_site_type_symbol
 _atom_site_label
 _atom_site_symmetry_multiplicity
 _atom_site_fract_x
 _atom_site_fract_y
 _atom_site_fract_z
 _atom_site_occupancy
  Li  Li0  1  0.74281355  0.92272270  0.10237095  1
  Li  Li1  1  0.73961273  0.46739066  0.03281345  1
  Li  Li2  1  0.41292340  0.92586774  0.10190735  1
  Li  Li3  1  0.50096705  0.40035240  0.03224040  1
  Li  Li4  1  0.75461394  0.07299565  0.12658190  1
  Li  Li5  1  0.74051866  0.60985178  0.04621271  1
  Li  Li6  1  0.21120618  0.10724866  0.03329437  1
  Li  Li7  1  0.06530292  0.61307301  0.05340329  1
  Li  Li8  1  0.86684740  0.26797453  0.05857063  1
  Li  Li9  1  0.04106370  0.80427754  0.02795119  1
  Li  Li10  1  0.72208777  0.10753401  0.06919422  1
  Li  Li11  1  0.76623590  0.55435753  0.11513104  1
  Li  Li12  1  0.39495051  0.95642905  0.04033464  1
  Li  Li13  1  0.41716094  0.41985320  0.09679194  1
  Li  Li14  1  0.34332471  0.29512754  0.08541975  1
  Li  Li15  1  0.41040488  0.76686330  0.07715289  1
  Li  Li16  1  0.99632799  0.32458149  0.01897203  1
  Li  Li17  1  0.07905720  0.76499282  0.08401145  1
  Li  Li18  1  0.82707061  0.83540528  0.22779295  1
  Li  Li19  1  0.78384911  0.37922958  0.16446093  1
  Li  Li20  1  0.49784360  0.83485542  0.22804151  1
  Li  Li21  1  0.44573657  0.38368283  0.16520734  1
  Li  Li22  1  0.84260585  0.98519677  0.24931195  1
  Li  Li23  1  0.79315893  0.53279407  0.18521640  1
  Li  Li24  1  0.12992036  0.03403258  0.18754589  1
  Li  Li25  1  0.09381451  0.56533996  0.12665626  1
  Li  Li26  1  0.13252085  0.19138553  0.20523803  1
  Li  Li27  1  0.09127754  0.72830271  0.14638854  1
  Li  Li28  1  0.79833165  0.02698103  0.18718054  1
  Li  Li29  1  0.84064671  0.48183592  0.24829993  1
  Li  Li30  1  0.46336997  0.88227414  0.16582189  1
  Li  Li31  1  0.50369787  0.33600619  0.22807518  1
  Li  Li32  1  0.47112334  0.18836319  0.20636143  1
  Li  Li33  1  0.44612239  0.71915513  0.15001197  1
  Li  Li34  1  0.08595016  0.23434697  0.13495867  1
  Li  Li35  1  0.14310443  0.68468502  0.20814816  1
  Li  Li36  1  0.91912209  0.74446548  0.35379335  1
  Li  Li37  1  0.87297818  0.29008019  0.29121602  1
  Li  Li38  1  0.58713536  0.74518268  0.35376305  1
  Li  Li39  1  0.54083703  0.29018133  0.29084347  1
  Li  Li40  1  0.93183367  0.89610747  0.37370855  1
  Li  Li41  1  0.88846629  0.44007190  0.31247832  1
  Li  Li42  1  0.22198458  0.94177649  0.31324219  1
  Li  Li43  1  0.17831546  0.48387549  0.25028875  1
  Li  Li44  1  0.22412992  0.09915721  0.33311059  1
  Li  Li45  1  0.17788340  0.64427499  0.27091353  1
  Li  Li46  1  0.88874354  0.93583499  0.31054240  1
  Li  Li47  1  0.93494472  0.38916408  0.37655167  1
  Li  Li48  1  0.55457636  0.79018734  0.29095797  1
  Li  Li49  1  0.59473038  0.24408250  0.35370033  1
  Li  Li50  1  0.56442555  0.09645196  0.33145546  1
  Li  Li51  1  0.52424699  0.63824791  0.26852175  1
  Li  Li52  1  0.18773521  0.13998482  0.26886496  1
  Li  Li53  1  0.23391901  0.59408319  0.33225636  1
  Li  Li54  1  0.00797664  0.65828447  0.47937057  1
  Li  Li55  1  0.96233777  0.20063504  0.41744854  1
  Li  Li56  1  0.68384969  0.65542084  0.47983628  1
  Li  Li57  1  0.63273687  0.19647047  0.41665668  1
  Li  Li58  1  0.02785019  0.81566589  0.49770039  1
  Li  Li59  1  0.97512604  0.34529653  0.44663050  1
  Li  Li60  1  0.30388079  0.86168109  0.43147302  1
  Li  Li61  1  0.26875828  0.39192129  0.37576568  1
  Li  Li62  1  0.29302657  0.02612682  0.46666986  1
  Li  Li63  1  0.27189650  0.55368444  0.39454711  1
  Li  Li64  1  0.96962228  0.85084214  0.43516747  1
  Li  Li65  1  0.81865787  0.31224174  0.52351421  1
  Li  Li66  1  0.64743149  0.69802876  0.41624354  1
  Li  Li67  1  0.67580457  0.16050834  0.48508096  1
  Li  Li68  1  0.64427158  0.01535229  0.45552929  1
  Li  Li69  1  0.61739290  0.54629777  0.39405493  1
  Li  Li70  1  0.27788017  0.04763030  0.39630976  1
  Li  Li71  1  0.31987610  0.50748414  0.45519096  1
  Li  Li72  1  0.09560094  0.11305986  0.54982656  1
  Li  Li73  1  0.71916218  0.18108617  0.54966710  1
  Li  Li74  1  0.06292496  0.25692553  0.56225494  1
  Li  Li75  1  0.36322899  0.81472206  0.50492643  1
  Li  Li76  1  0.34995906  0.28693234  0.49633242  1
  Li  Li77  1  0.35723820  0.47304046  0.51247877  1
  Li  Li78  1  0.06938806  0.77643124  0.55368654  1
  Li  Li79  1  0.72305767  0.62429029  0.54081491  1
  Li  Li80  1  0.71035997  0.96748523  0.52881468  1
  Li  Li81  1  0.84467889  0.47350221  0.54794019  1
  Li  Li82  1  0.37983078  0.97063440  0.53567275  1
  Y  Y83  1  0.73898441  0.76501302  0.08119361  1
  Y  Y84  1  0.41179493  0.08068613  0.12329387  1
  Y  Y85  1  0.39217311  0.60933780  0.05876003  1
  Y  Y86  1  0.08448694  0.92617602  0.10124938  1
  Y  Y87  1  0.08351298  0.45741722  0.03474224  1
  Y  Y88  1  0.76336907  0.22489253  0.14444941  1
  Y  Y89  1  0.81304622  0.67940041  0.20718422  1
  Y  Y90  1  0.50103485  0.99111387  0.24928016  1
  Y  Y91  1  0.45614995  0.53452121  0.18740685  1
  Y  Y92  1  0.17051389  0.83510647  0.22795903  1
  Y  Y93  1  0.11767540  0.38008870  0.16744148  1
  Y  Y94  1  0.85698449  0.13472042  0.26899373  1
  Y  Y95  1  0.90281508  0.58901539  0.33256733  1
  Y  Y96  1  0.59267385  0.90053630  0.37461316  1
  Y  Y97  1  0.54691223  0.44535800  0.31274722  1
  Y  Y98  1  0.26080361  0.74495654  0.35373099  1
  Y  Y99  1  0.21299596  0.29010373  0.29092248  1
  Y  Y100  1  0.94468363  0.04581469  0.39428781  1
  Y  Y101  1  0.99242894  0.49993102  0.45835065  1
  Y  Y102  1  0.68870120  0.81535654  0.50064052  1
  Y  Y103  1  0.63345682  0.35540039  0.43735644  1
  Y  Y104  1  0.35577534  0.65460928  0.48037271  1
  Y  Y105  1  0.29795873  0.19987579  0.41443358  1
  Y  Y106  1  0.02975218  0.97145152  0.52313920  1
  Y  Y107  1  0.41729054  0.12345734  0.54711706  1
  Cl  Cl108  1  0.93650974  0.43048190  0.99841573  1
  Cl  Cl109  1  0.95457893  0.88809050  0.06342736  1
  Cl  Cl110  1  0.61237206  0.89170093  0.06543265  1
  Cl  Cl111  1  0.62366603  0.04488049  0.08617831  1
  Cl  Cl112  1  0.58571660  0.58274018  0.02107680  1
  Cl  Cl113  1  0.29259736  0.20090034  0.10486802  1
  Cl  Cl114  1  0.26353826  0.74222116  0.04529615  1
  Cl  Cl115  1  0.29732949  0.42990574  0.00512548  1
  Cl  Cl116  1  0.29014787  0.89297317  0.06479911  1
  Cl  Cl117  1  0.64219298  0.18499132  0.10613323  1
  Cl  Cl118  1  0.60416527  0.73502422  0.04437435  1
  Cl  Cl119  1  0.93796164  0.21110835  0.10349159  1
  Cl  Cl120  1  0.93351179  0.74444199  0.04323065  1
  Cl  Cl121  1  0.94931789  0.04475126  0.08006732  1
  Cl  Cl122  1  0.94079578  0.58335238  0.01994577  1
  Cl  Cl123  1  0.30056221  0.04340828  0.08169559  1
  Cl  Cl124  1  0.23830941  0.60130320  0.02114274  1
  Cl  Cl125  1  0.15218081  0.33787055  0.05372043  1
  Cl  Cl126  1  0.20813375  0.79830009  0.11813071  1
  Cl  Cl127  1  0.49378344  0.32822348  0.06545910  1
  Cl  Cl128  1  0.53492109  0.79877990  0.11870053  1
  Cl  Cl129  1  0.52616006  0.64583336  0.09790582  1
  Cl  Cl130  1  0.04977995  0.21436614  0.02793586  1
  Cl  Cl131  1  0.18566590  0.64941234  0.09797055  1
  Cl  Cl132  1  0.86982359  0.64108797  0.09643881  1
  Cl  Cl133  1  0.32349998  0.02334376  0.00372802  1
  Cl  Cl134  1  0.17537343  0.49858322  0.07965245  1
  Cl  Cl135  1  0.74850912  0.36257070  0.02977775  1
  Cl  Cl136  1  0.87981757  0.79990218  0.11722478  1
  Cl  Cl137  1  0.85038895  0.49738497  0.07032496  1
  Cl  Cl138  1  0.50872327  0.48546160  0.07243323  1
  Cl  Cl139  1  0.97718256  0.35256836  0.13050810  1
  Cl  Cl140  1  0.02984026  0.80236865  0.19152510  1
  Cl  Cl141  1  0.63681008  0.35157527  0.13123577  1
  Cl  Cl142  1  0.68601209  0.80610006  0.19199891  1
  Cl  Cl143  1  0.70946366  0.95765524  0.21336213  1
  Cl  Cl144  1  0.65918040  0.50486012  0.15062350  1
  Cl  Cl145  1  0.37223367  0.11429117  0.23139314  1
  Cl  Cl146  1  0.32714230  0.65972330  0.16948258  1
  Cl  Cl147  1  0.31160895  0.35673415  0.13000153  1
  Cl  Cl148  1  0.36633030  0.80896561  0.18961875  1
  Cl  Cl149  1  0.72278756  0.10340605  0.23077759  1
  Cl  Cl150  1  0.67853437  0.65083119  0.16849805  1
  Cl  Cl151  1  0.05195890  0.11435278  0.23049194  1
  Cl  Cl152  1  0.01027037  0.65732286  0.16920652  1
  Cl  Cl153  1  0.03205848  0.95929304  0.20947093  1
  Cl  Cl154  1  0.97858353  0.50507609  0.14772285  1
  Cl  Cl155  1  0.37572601  0.95673851  0.20890825  1
  Cl  Cl156  1  0.32956234  0.50224934  0.14780277  1
  Cl  Cl157  1  0.23750909  0.25471474  0.18394753  1
  Cl  Cl158  1  0.27985622  0.71084720  0.24646764  1
  Cl  Cl159  1  0.57002820  0.25818334  0.18456628  1
  Cl  Cl160  1  0.61833603  0.71422157  0.24701621  1
  Cl  Cl161  1  0.57027566  0.09675300  0.16197537  1
  Cl  Cl162  1  0.60784651  0.55845859  0.22513622  1
  Cl  Cl163  1  0.21301787  0.11099291  0.16001952  1
  Cl  Cl164  1  0.26041246  0.56714827  0.22599694  1
  Cl  Cl165  1  0.89053797  0.09858738  0.16131004  1
  Cl  Cl166  1  0.93128043  0.55594013  0.22426570  1
  Cl  Cl167  1  0.23004319  0.94980922  0.13920000  1
  Cl  Cl168  1  0.26485600  0.40776695  0.20464567  1
  Cl  Cl169  1  0.91232552  0.25524609  0.17866394  1
  Cl  Cl170  1  0.95387730  0.71324159  0.24299867  1
  Cl  Cl171  1  0.88041031  0.95401220  0.13703637  1
  Cl  Cl172  1  0.91004052  0.41394768  0.20300201  1
  Cl  Cl173  1  0.54439489  0.95133038  0.13703636  1
  Cl  Cl174  1  0.58191702  0.40901551  0.20184703  1
  Cl  Cl175  1  0.07152848  0.25835429  0.25463691  1
  Cl  Cl176  1  0.11812645  0.71289459  0.31786286  1
  Cl  Cl177  1  0.72981952  0.26143065  0.25516764  1
  Cl  Cl178  1  0.77640918  0.71594354  0.31840451  1
  Cl  Cl179  1  0.80053420  0.86687849  0.33872403  1
  Cl  Cl180  1  0.75291697  0.41389533  0.27680409  1
  Cl  Cl181  1  0.46338448  0.02398675  0.35742591  1
  Cl  Cl182  1  0.41834262  0.56968126  0.29538131  1
  Cl  Cl183  1  0.40959939  0.26411383  0.25320333  1
  Cl  Cl184  1  0.45647632  0.71907733  0.31614077  1
  Cl  Cl185  1  0.81508455  0.01288558  0.35567508  1
  Cl  Cl186  1  0.76731972  0.55938631  0.29422704  1
  Cl  Cl187  1  0.14424257  0.02198962  0.35656815  1
  Cl  Cl188  1  0.09731600  0.56910609  0.29431091  1
  Cl  Cl189  1  0.12214321  0.86921132  0.33527012  1
  Cl  Cl190  1  0.07458100  0.41527802  0.27334778  1
  Cl  Cl191  1  0.46676434  0.86584859  0.33481926  1
  Cl  Cl192  1  0.42018689  0.41177105  0.27277339  1
  Cl  Cl193  1  0.32505979  0.16484787  0.30849159  1
  Cl  Cl194  1  0.37100749  0.62077736  0.37226608  1
  Cl  Cl195  1  0.66378764  0.16816974  0.30905872  1
  Cl  Cl196  1  0.70913638  0.62339283  0.37299892  1
  Cl  Cl197  1  0.65570171  0.01083516  0.28745063  1
  Cl  Cl198  1  0.70084382  0.46580165  0.35120336  1
  Cl  Cl199  1  0.30615665  0.02074861  0.28757151  1
  Cl  Cl200  1  0.35003937  0.47664210  0.35098342  1
  Cl  Cl201  1  0.97763510  0.01026894  0.28624290  1
  Cl  Cl202  1  0.02047186  0.46586137  0.35042156  1
  Cl  Cl203  1  0.31412519  0.86105247  0.26561804  1
  Cl  Cl204  1  0.35812631  0.31588335  0.32863771  1
  Cl  Cl205  1  0.00060049  0.16614040  0.30482113  1
  Cl  Cl206  1  0.04519247  0.62234654  0.36831130  1
  Cl  Cl207  1  0.96406776  0.86682259  0.26387729  1
  Cl  Cl208  1  0.00816373  0.32167678  0.32720692  1
  Cl  Cl209  1  0.62811219  0.86413796  0.26336844  1
  Cl  Cl210  1  0.67286513  0.31872154  0.32666234  1
  Cl  Cl211  1  0.15806243  0.16620707  0.37875146  1
  Cl  Cl212  1  0.20748852  0.62664742  0.44459787  1
  Cl  Cl213  1  0.81963418  0.17140442  0.37999762  1
  Cl  Cl214  1  0.86699965  0.62927399  0.44468276  1
  Cl  Cl215  1  0.89932990  0.78063781  0.46456460  1
  Cl  Cl216  1  0.84300060  0.32477512  0.40307072  1
  Cl  Cl217  1  0.57180998  0.93937603  0.48563814  1
  Cl  Cl218  1  0.50749346  0.48183656  0.42052316  1
  Cl  Cl219  1  0.50041437  0.17239414  0.37723059  1
  Cl  Cl220  1  0.54919319  0.63068665  0.44259313  1
  Cl  Cl221  1  0.90363020  0.93123615  0.48402508  1
  Cl  Cl222  1  0.85451995  0.46924503  0.42169284  1
  Cl  Cl223  1  0.23744932  0.93454048  0.48399082  1
  Cl  Cl224  1  0.18367499  0.48346569  0.41972606  1
  Cl  Cl225  1  0.22344434  0.78236687  0.46352543  1
  Cl  Cl226  1  0.16681446  0.32535651  0.39799168  1
  Cl  Cl227  1  0.55235523  0.78163658  0.46305156  1
  Cl  Cl228  1  0.50603229  0.32221429  0.39729758  1
  Cl  Cl229  1  0.40873630  0.07501476  0.43416084  1
  Cl  Cl230  1  0.45781459  0.53606047  0.50156415  1
  Cl  Cl231  1  0.75365610  0.07813501  0.43394867  1
  Cl  Cl232  1  0.80615936  0.53716658  0.49979362  1
  Cl  Cl233  1  0.74561051  0.92259174  0.41258015  1
  Cl  Cl234  1  0.78097579  0.36849428  0.47836401  1
  Cl  Cl235  1  0.40106531  0.92938921  0.41335967  1
  Cl  Cl236  1  0.43208050  0.39544723  0.47559185  1
  Cl  Cl237  1  0.06620318  0.92073710  0.41239262  1
  Cl  Cl238  1  0.11335401  0.37977095  0.47700556  1
  Cl  Cl239  1  0.40400413  0.77121381  0.39211253  1
  Cl  Cl240  1  0.44433560  0.22365724  0.45189304  1
  Cl  Cl241  1  0.08896652  0.07516246  0.43106380  1
  Cl  Cl242  1  0.13303093  0.53543453  0.49550727  1
  Cl  Cl243  1  0.05478124  0.77780550  0.39015105  1
  Cl  Cl244  1  0.10229144  0.22725390  0.45130981  1
  Cl  Cl245  1  0.71857614  0.77381879  0.38971620  1
  Cl  Cl246  1  0.75940277  0.22870393  0.45062914  1
  Cl  Cl247  1  0.26460057  0.08317798  0.51165834  1
  Cl  Cl248  1  0.89873597  0.09502281  0.50925758  1
  Cl  Cl249  1  0.89235345  0.21755965  0.55229380  1
  Cl  Cl250  1  0.59261703  0.08177737  0.50241475  1
  Cl  Cl251  1  0.78532708  0.55760122  0.57756695  1
  Cl  Cl252  1  0.89401968  0.36674666  0.55377425  1
  Cl  Cl253  1  0.24676941  0.24298330  0.52803018  1
  Cl  Cl254  1  0.56828399  0.25272649  0.51630895  1
  Cl  Cl255  1  0.52600153  0.99771290  0.56221676  1
  Cl  Cl256  1  0.86050086  0.97928421  0.56088864  1
  Cl  Cl257  1  0.84185667  0.83594324  0.53862448  1
  Cl  Cl258  1  0.49415262  0.84547705  0.53756170  1
  Cl  Cl259  1  0.16767007  0.83836765  0.53651642  1
  Cl  Cl260  1  0.49459588  0.68801537  0.51687519  1
  Cl  Cl261  1  0.57624949  0.15078824  0.57675395  1
  Cl  Cl262  1  0.17083983  0.99766805  0.56085451  1
  Cl  Cl263  1  0.14993776  0.69256708  0.51827105  1
  Cl  Cl264  1  0.21619927  0.15116271  0.58349811  1
  Cl  Cl265  1  0.81478716  0.68860410  0.51624593  1
