# generated using pymatgen
data_Li44Y13Cl83
_symmetry_space_group_name_H-M   'P 1'
_cell_length_a   11.17729600
_cell_length_b   23.17126381
_cell_length_c   46.52694700
_cell_angle_alpha   90.00000000
_cell_angle_beta   90.00000000
_cell_angle_gamma   61.15997857
_symmetry_Int_Tables_number   1
_chemical_formula_structural   Li44Y13Cl83
_chemical_formula_sum   'Li88 Y26 Cl166'
_cell_volume   10555.53480816
_cell_formula_units_Z   2
loop_
 _symmetry_equiv_pos_site_id
 _symmetry_equiv_pos_as_xyz
  1  'x, y, z'
loop_
 _atom_site_type_symbol
 _atom_site_label
 _atom_site_symmetry_multiplicity
 _atom_site_fract_x
 _atom_site_fract_y
 _atom_site_fract_z
 _atom_site_occupancy
  Li  Li0  1  0.07053698  0.09607880  0.08296007  1
  Li  Li1  1  0.01524442  0.65189980  0.02913198  1
  Li  Li2  1  0.07848608  0.25218111  0.10715252  1
  Li  Li3  1  0.00967641  0.79150484  0.03547186  1
  Li  Li4  1  0.74716218  0.09044429  0.08433280  1
  Li  Li5  1  0.67969196  0.63848475  0.02804314  1
  Li  Li6  1  0.64632587  0.48848844  0.05942448  1
  Li  Li7  1  0.77270152  0.89555850  0.11750517  1
  Li  Li8  1  0.34701209  0.98509635  0.00830343  1
  Li  Li9  1  0.28244051  0.56139132  0.05740267  1
  Li  Li10  1  0.70642349  0.13870261  0.02886428  1
  Li  Li11  1  0.94909128  0.53678612  0.05709862  1
  Li  Li12  1  0.04662483  0.28680146  0.04940964  1
  Li  Li13  1  0.09318475  0.73696382  0.09735955  1
  Li  Li14  1  0.38429308  0.29628319  0.05187440  1
  Li  Li15  1  0.39855712  0.76281688  0.11281073  1
  Li  Li16  1  0.38936735  0.93894442  0.06281077  1
  Li  Li17  1  0.34923420  0.43897369  0.02034565  1
  Li  Li18  1  0.15302019  0.01511692  0.20947414  1
  Li  Li19  1  0.10622410  0.56102150  0.14567678  1
  Li  Li20  1  0.16921225  0.16560343  0.23049205  1
  Li  Li21  1  0.11785686  0.71286647  0.16528330  1
  Li  Li22  1  0.81890553  0.01686848  0.20939418  1
  Li  Li23  1  0.76091404  0.57130741  0.13904976  1
  Li  Li24  1  0.80308837  0.36604106  0.18721044  1
  Li  Li25  1  0.84799455  0.81746833  0.24824369  1
  Li  Li26  1  0.41185146  0.91594299  0.12652025  1
  Li  Li27  1  0.45695713  0.37176134  0.18687881  1
  Li  Li28  1  0.79017812  0.05493246  0.14643782  1
  Li  Li29  1  0.82920552  0.51630606  0.20585244  1
  Li  Li30  1  0.12731239  0.20283913  0.16774048  1
  Li  Li31  1  0.16474505  0.66157167  0.22802856  1
  Li  Li32  1  0.46123797  0.21160438  0.17187046  1
  Li  Li33  1  0.50021339  0.66690266  0.23129448  1
  Li  Li34  1  0.46780669  0.86657849  0.18894018  1
  Li  Li35  1  0.42560844  0.40939168  0.11854511  1
  Li  Li36  1  0.24367563  0.92476197  0.33518464  1
  Li  Li37  1  0.19665412  0.47118649  0.27040968  1
  Li  Li38  1  0.26088225  0.07554046  0.35559376  1
  Li  Li39  1  0.21156346  0.62124380  0.29190027  1
  Li  Li40  1  0.91268132  0.92409817  0.33532235  1
  Li  Li41  1  0.86505464  0.47210321  0.27030478  1
  Li  Li42  1  0.89292138  0.27529854  0.31116378  1
  Li  Li43  1  0.93860941  0.73062452  0.37430200  1
  Li  Li44  1  0.50056408  0.82499345  0.25200216  1
  Li  Li45  1  0.54726439  0.28127438  0.31366498  1
  Li  Li46  1  0.87701963  0.97002870  0.27241230  1
  Li  Li47  1  0.92169490  0.42573481  0.33322684  1
  Li  Li48  1  0.21404994  0.11503016  0.29206015  1
  Li  Li49  1  0.25475587  0.57043942  0.35371674  1
  Li  Li50  1  0.54780254  0.12019581  0.29448680  1
  Li  Li51  1  0.58794732  0.57812395  0.35730149  1
  Li  Li52  1  0.55872371  0.77489884  0.31416971  1
  Li  Li53  1  0.51458366  0.32067943  0.25001242  1
  Li  Li54  1  0.33150534  0.83511758  0.46026810  1
  Li  Li55  1  0.28607643  0.38128474  0.39627864  1
  Li  Li56  1  0.34642142  0.98654946  0.48705120  1
  Li  Li57  1  0.30418045  0.53008486  0.41686614  1
  Li  Li58  1  0.00746931  0.82474914  0.46660654  1
  Li  Li59  1  0.95627053  0.38003810  0.39628523  1
  Li  Li60  1  0.98780477  0.18533324  0.43469110  1
  Li  Li61  1  0.02721345  0.63330326  0.49264255  1
  Li  Li62  1  0.59072225  0.73426344  0.37783866  1
  Li  Li63  1  0.63990506  0.19153820  0.43761016  1
  Li  Li64  1  0.96657969  0.88132692  0.39998267  1
  Li  Li65  1  0.00671878  0.33993125  0.45922214  1
  Li  Li66  1  0.30377549  0.02504357  0.41867418  1
  Li  Li67  1  0.34809697  0.48027928  0.47914266  1
  Li  Li68  1  0.63793090  0.02903424  0.41876243  1
  Li  Li69  1  0.67020666  0.49960832  0.48753805  1
  Li  Li70  1  0.64861237  0.68262196  0.44043616  1
  Li  Li71  1  0.60447965  0.23024267  0.37540204  1
  Li  Li72  1  0.42269080  0.74457434  0.57645950  1
  Li  Li73  1  0.36716702  0.30003939  0.52243935  1
  Li  Li74  1  0.33557442  0.95681973  0.58520067  1
  Li  Li75  1  0.37224516  0.45665562  0.54280785  1
  Li  Li76  1  0.06155626  0.75512373  0.57755700  1
  Li  Li77  1  0.03348922  0.30439078  0.52179768  1
  Li  Li78  1  0.08088790  0.10014100  0.55382529  1
  Li  Li79  1  0.67156827  0.65828117  0.50863644  1
  Li  Li80  1  0.72333467  0.10963975  0.55575245  1
  Li  Li81  1  0.12903717  0.85820229  0.54875872  1
  Li  Li82  1  0.08800391  0.25715787  0.57741720  1
  Li  Li83  1  0.51196580  0.83376811  0.54814069  1
  Li  Li84  1  0.42312656  0.41059922  0.59736633  1
  Li  Li85  1  0.73316068  0.90606895  0.54617220  1
  Li  Li86  1  0.69850647  0.60447351  0.57031462  1
  Li  Li87  1  0.68456960  0.14444702  0.49829403  1
  Y  Y88  1  0.41425717  0.09869459  0.08069008  1
  Y  Y89  1  0.74196311  0.25602521  0.10557923  1
  Y  Y90  1  0.68471011  0.78951963  0.04004261  1
  Y  Y91  1  0.05807598  0.93596333  0.05973867  1
  Y  Y92  1  0.49659072  0.01536010  0.20946694  1
  Y  Y93  1  0.44809251  0.55943321  0.14680020  1
  Y  Y94  1  0.82626677  0.17143256  0.23046674  1
  Y  Y95  1  0.77626714  0.71711778  0.16701922  1
  Y  Y96  1  0.09784109  0.39956276  0.12574502  1
  Y  Y97  1  0.13129854  0.86041832  0.18827394  1
  Y  Y98  1  0.58522434  0.92502210  0.33491119  1
  Y  Y99  1  0.53930838  0.47096765  0.27083395  1
  Y  Y100  1  0.91654534  0.08104581  0.35581806  1
  Y  Y101  1  0.86896408  0.62627677  0.29262659  1
  Y  Y102  1  0.18180254  0.31521366  0.24993830  1
  Y  Y103  1  0.22576118  0.76975802  0.31306283  1
  Y  Y104  1  0.67076688  0.83644367  0.45873797  1
  Y  Y105  1  0.63107111  0.38092074  0.39641940  1
  Y  Y106  1  0.00033776  0.99664281  0.48000774  1
  Y  Y107  1  0.95629669  0.53576110  0.41742751  1
  Y  Y108  1  0.27315443  0.22483656  0.37532333  1
  Y  Y109  1  0.31425195  0.67913096  0.43874248  1
  Y  Y110  1  0.71611318  0.29724738  0.52498347  1
  Y  Y111  1  0.03503633  0.45968939  0.54607611  1
  Y  Y112  1  0.35740568  0.13991417  0.50008118  1
  Y  Y113  1  0.37026917  0.60574462  0.56568429  1
  Cl  Cl114  1  0.19504845  0.97714937  0.09590856  1
  Cl  Cl115  1  0.12857841  0.53519457  0.03062637  1
  Cl  Cl116  1  0.20620230  0.13266276  0.11638130  1
  Cl  Cl117  1  0.16817549  0.67781954  0.05294023  1
  Cl  Cl118  1  0.87253177  0.12640428  0.11756685  1
  Cl  Cl119  1  0.82274979  0.66425936  0.05845193  1
  Cl  Cl120  1  0.37269973  0.34020983  0.00864889  1
  Cl  Cl121  1  0.50003764  0.82802481  0.08181742  1
  Cl  Cl122  1  0.18576716  0.81601707  0.07994982  1
  Cl  Cl123  1  0.55639074  0.12405875  0.11855075  1
  Cl  Cl124  1  0.52014202  0.97472755  0.09832415  1
  Cl  Cl125  1  0.47345358  0.49403215  0.03116429  1
  Cl  Cl126  1  0.86072054  0.97499070  0.10016212  1
  Cl  Cl127  1  0.77571127  0.52744864  0.03398181  1
  Cl  Cl128  1  0.84818679  0.81502631  0.07658015  1
  Cl  Cl129  1  0.28472413  0.38181168  0.08700759  1
  Cl  Cl130  1  0.24609696  0.92462099  0.02251356  1
  Cl  Cl131  1  0.27772378  0.22355631  0.05975364  1
  Cl  Cl132  1  0.62399038  0.22095180  0.06345805  1
  Cl  Cl133  1  0.55911529  0.74265131  0.00905663  1
  Cl  Cl134  1  0.62358519  0.37498927  0.08773787  1
  Cl  Cl135  1  0.56730294  0.91267930  0.02202295  1
  Cl  Cl136  1  0.60472149  0.07658565  0.04253120  1
  Cl  Cl137  1  0.62882587  0.53758234  0.10687062  1
  Cl  Cl138  1  0.97395263  0.36663768  0.08497272  1
  Cl  Cl139  1  0.94973607  0.89931882  0.02068434  1
  Cl  Cl140  1  0.27033110  0.06957039  0.04280057  1
  Cl  Cl141  1  0.30284214  0.53126297  0.10898286  1
  Cl  Cl142  1  0.92787986  0.06764749  0.04518949  1
  Cl  Cl143  1  0.97001758  0.52484863  0.10843598  1
  Cl  Cl144  1  0.94832668  0.22413174  0.06702928  1
  Cl  Cl145  1  0.89038311  0.75330016  0.00363430  1
  Cl  Cl146  1  0.27668301  0.89304316  0.22396998  1
  Cl  Cl147  1  0.23756982  0.43649146  0.15960707  1
  Cl  Cl148  1  0.28840644  0.04777946  0.24537576  1
  Cl  Cl149  1  0.23812253  0.59240690  0.18191795  1
  Cl  Cl150  1  0.95163076  0.04499915  0.24488401  1
  Cl  Cl151  1  0.90452850  0.58849529  0.17874050  1
  Cl  Cl152  1  0.54407483  0.28647778  0.14264974  1
  Cl  Cl153  1  0.58480713  0.74790577  0.20658210  1
  Cl  Cl154  1  0.21964749  0.27446567  0.14159555  1
  Cl  Cl155  1  0.25567278  0.73577327  0.20432963  1
  Cl  Cl156  1  0.63717269  0.04249324  0.24768535  1
  Cl  Cl157  1  0.59290793  0.58660831  0.18319391  1
  Cl  Cl158  1  0.60368318  0.89115079  0.22764327  1
  Cl  Cl159  1  0.56083728  0.43397272  0.16317912  1
  Cl  Cl160  1  0.94017389  0.89448839  0.22851267  1
  Cl  Cl161  1  0.89737666  0.43509094  0.16366737  1
  Cl  Cl162  1  0.90052571  0.27447820  0.14288354  1
  Cl  Cl163  1  0.93341955  0.73687311  0.20540139  1
  Cl  Cl164  1  0.37747580  0.29497136  0.21157756  1
  Cl  Cl165  1  0.32799788  0.84348702  0.15087832  1
  Cl  Cl166  1  0.35717097  0.13995008  0.19078417  1
  Cl  Cl167  1  0.30804478  0.68430379  0.12799600  1
  Cl  Cl168  1  0.70171457  0.13724635  0.18999412  1
  Cl  Cl169  1  0.64063968  0.68850123  0.12884341  1
  Cl  Cl170  1  0.69922816  0.29472146  0.21237593  1
  Cl  Cl171  1  0.65270612  0.84164427  0.15011083  1
  Cl  Cl172  1  0.69010028  0.99093320  0.17208229  1
  Cl  Cl173  1  0.73461236  0.44472308  0.23271460  1
  Cl  Cl174  1  0.04972327  0.28344072  0.21141653  1
  Cl  Cl175  1  0.00157734  0.83039531  0.14907853  1
  Cl  Cl176  1  0.35259392  0.98438664  0.17318982  1
  Cl  Cl177  1  0.39724421  0.43866384  0.23466085  1
  Cl  Cl178  1  0.00886392  0.98708114  0.17373307  1
  Cl  Cl179  1  0.05531067  0.44139036  0.23498530  1
  Cl  Cl180  1  0.03526489  0.13763896  0.19464480  1
  Cl  Cl181  1  0.98497822  0.68362117  0.13091601  1
  Cl  Cl182  1  0.36913506  0.80176742  0.34914268  1
  Cl  Cl183  1  0.32418582  0.34802553  0.28556345  1
  Cl  Cl184  1  0.37825373  0.95769724  0.37102412  1
  Cl  Cl185  1  0.33259468  0.50253585  0.30681269  1
  Cl  Cl186  1  0.04178272  0.95483021  0.37080129  1
  Cl  Cl187  1  0.99753731  0.49925301  0.30633918  1
  Cl  Cl188  1  0.62989424  0.20251196  0.26845763  1
  Cl  Cl189  1  0.67506435  0.65619591  0.33135016  1
  Cl  Cl190  1  0.30224915  0.19129079  0.26745782  1
  Cl  Cl191  1  0.34581121  0.64557057  0.32981428  1
  Cl  Cl192  1  0.72772844  0.95132640  0.37305771  1
  Cl  Cl193  1  0.68351155  0.49668979  0.30834887  1
  Cl  Cl194  1  0.69421601  0.80050938  0.35301838  1
  Cl  Cl195  1  0.64970862  0.34611061  0.28912775  1
  Cl  Cl196  1  0.03449399  0.80388920  0.35375915  1
  Cl  Cl197  1  0.98765421  0.34901133  0.28958011  1
  Cl  Cl198  1  0.98087094  0.19185944  0.26857901  1
  Cl  Cl199  1  0.02379318  0.64669521  0.33077712  1
  Cl  Cl200  1  0.46822290  0.20413075  0.33711348  1
  Cl  Cl201  1  0.42160491  0.74921422  0.27495417  1
  Cl  Cl202  1  0.44613786  0.04989020  0.31662501  1
  Cl  Cl203  1  0.39946246  0.59546052  0.25265185  1
  Cl  Cl204  1  0.79019386  0.04676405  0.31617493  1
  Cl  Cl205  1  0.74561177  0.59246364  0.25191927  1
  Cl  Cl206  1  0.78846172  0.20468973  0.33809027  1
  Cl  Cl207  1  0.74109667  0.75065698  0.27596531  1
  Cl  Cl208  1  0.78068821  0.89934111  0.29737602  1
  Cl  Cl209  1  0.82610142  0.35385336  0.35823799  1
  Cl  Cl210  1  0.13897842  0.19387482  0.33723484  1
  Cl  Cl211  1  0.09224615  0.73970114  0.27429829  1
  Cl  Cl212  1  0.44148287  0.89353282  0.29893869  1
  Cl  Cl213  1  0.48801373  0.34836517  0.36046502  1
  Cl  Cl214  1  0.10014712  0.89678957  0.29941214  1
  Cl  Cl215  1  0.14561823  0.35125990  0.36082963  1
  Cl  Cl216  1  0.12431170  0.04827602  0.32017301  1
  Cl  Cl217  1  0.07636559  0.59439247  0.25660613  1
  Cl  Cl218  1  0.45651223  0.71234748  0.47475809  1
  Cl  Cl219  1  0.41505556  0.25835447  0.41108809  1
  Cl  Cl220  1  0.46916787  0.86481812  0.49661684  1
  Cl  Cl221  1  0.42526109  0.41186197  0.43273341  1
  Cl  Cl222  1  0.12338491  0.87142867  0.49739287  1
  Cl  Cl223  1  0.08767479  0.40906088  0.43204209  1
  Cl  Cl224  1  0.72039186  0.11266846  0.39423808  1
  Cl  Cl225  1  0.76675965  0.56539891  0.45662820  1
  Cl  Cl226  1  0.39253600  0.10144211  0.39338078  1
  Cl  Cl227  1  0.44012575  0.55461669  0.45555159  1
  Cl  Cl228  1  0.80807642  0.85856180  0.49858383  1
  Cl  Cl229  1  0.77593949  0.40536534  0.43383846  1
  Cl  Cl230  1  0.78029034  0.71165952  0.47766800  1
  Cl  Cl231  1  0.74113153  0.25625036  0.41494710  1
  Cl  Cl232  1  0.12145922  0.70766569  0.47695474  1
  Cl  Cl233  1  0.08001226  0.25915013  0.41576833  1
  Cl  Cl234  1  0.07112924  0.10170189  0.39415145  1
  Cl  Cl235  1  0.11906348  0.55275708  0.45480031  1
  Cl  Cl236  1  0.55283650  0.12117568  0.46270840  1
  Cl  Cl237  1  0.51058861  0.65912938  0.40024723  1
  Cl  Cl238  1  0.53250985  0.96214727  0.44252780  1
  Cl  Cl239  1  0.48947591  0.50511456  0.37811505  1
  Cl  Cl240  1  0.87146175  0.96126315  0.44189464  1
  Cl  Cl241  1  0.83351616  0.50150762  0.37724608  1
  Cl  Cl242  1  0.87167665  0.12188569  0.46421222  1
  Cl  Cl243  1  0.83064968  0.66020888  0.40129588  1
  Cl  Cl244  1  0.87003594  0.80963482  0.42241415  1
  Cl  Cl245  1  0.90934090  0.27135671  0.48712119  1
  Cl  Cl246  1  0.21938990  0.11027527  0.46295922  1
  Cl  Cl247  1  0.18403654  0.64847677  0.39921424  1
  Cl  Cl248  1  0.52659914  0.80357396  0.42370031  1
  Cl  Cl249  1  0.57548256  0.26362588  0.48927916  1
  Cl  Cl250  1  0.18523305  0.80787534  0.42713050  1
  Cl  Cl251  1  0.22924782  0.26960850  0.48818381  1
  Cl  Cl252  1  0.21398696  0.95984764  0.44612703  1
  Cl  Cl253  1  0.16683019  0.50295535  0.38175409  1
  Cl  Cl254  1  0.50141775  0.64309244  0.60210487  1
  Cl  Cl255  1  0.50015348  0.17210485  0.53846500  1
  Cl  Cl256  1  0.51458885  0.32622650  0.56290707  1
  Cl  Cl257  1  0.16781323  0.32810802  0.56075454  1
  Cl  Cl258  1  0.80980940  0.02914445  0.52055481  1
  Cl  Cl259  1  0.85388368  0.49699924  0.58527897  1
  Cl  Cl260  1  0.47469246  0.02128980  0.51805027  1
  Cl  Cl261  1  0.49918687  0.48284844  0.58390786  1
  Cl  Cl262  1  0.86231282  0.31917626  0.56327865  1
  Cl  Cl263  1  0.82918840  0.17225577  0.54588197  1
  Cl  Cl264  1  0.15046830  0.65148031  0.59655946  1
  Cl  Cl265  1  0.16941964  0.17568430  0.54230210  1
  Cl  Cl266  1  0.15075851  0.01492430  0.51863745  1
  Cl  Cl267  1  0.20130562  0.47099051  0.58309953  1
  Cl  Cl268  1  0.58435971  0.58057561  0.52913269  1
  Cl  Cl269  1  0.56933236  0.90114181  0.57409306  1
  Cl  Cl270  1  0.57468465  0.42113085  0.50731007  1
  Cl  Cl271  1  0.93811621  0.86672978  0.57194042  1
  Cl  Cl272  1  0.91635088  0.42048382  0.50569161  1
  Cl  Cl273  1  0.92320859  0.57966836  0.52575028  1
  Cl  Cl274  1  0.16103555  0.05560944  0.59682881  1
  Cl  Cl275  1  0.26219057  0.56749946  0.52388606  1
  Cl  Cl276  1  0.62892570  0.71784407  0.55281681  1
  Cl  Cl277  1  0.25600447  0.73123345  0.54739007  1
  Cl  Cl278  1  0.30494794  0.86101922  0.57486358  1
  Cl  Cl279  1  0.25391567  0.41874927  0.50977772  1
