# generated using pymatgen
data_Li21Y5Cl36
_symmetry_space_group_name_H-M   'P 1'
_cell_length_a   6.09758500
_cell_length_b   11.17729600
_cell_length_c   48.39891500
_cell_angle_alpha   90.00000000
_cell_angle_beta   90.00000000
_cell_angle_gamma   89.99868772
_symmetry_Int_Tables_number   1
_chemical_formula_structural   Li21Y5Cl36
_chemical_formula_sum   'Li21 Y5 Cl36'
_cell_volume   3298.60445397
_cell_formula_units_Z   1
loop_
 _symmetry_equiv_pos_site_id
 _symmetry_equiv_pos_as_xyz
  1  'x, y, z'
loop_
 _atom_site_type_symbol
 _atom_site_label
 _atom_site_symmetry_multiplicity
 _atom_site_fract_x
 _atom_site_fract_y
 _atom_site_fract_z
 _atom_site_occupancy
  Li  Li0  1  0.04955987  0.05142262  0.02147810  1
  Li  Li1  1  0.99919783  0.21613668  0.07203562  1
  Li  Li2  1  0.00100440  0.50001420  0.05929092  1
  Li  Li3  1  0.49191217  0.04067638  0.14261488  1
  Li  Li4  1  0.49351588  0.69062625  0.14748715  1
  Li  Li5  1  0.45582657  0.71301249  0.03119320  1
  Li  Li6  1  0.49268465  0.19262902  0.06765430  1
  Li  Li7  1  0.50160402  0.50521884  0.07380973  1
  Li  Li8  1  0.99458840  0.69656893  0.14448341  1
  Li  Li9  1  0.99982312  0.53324402  0.21076821  1
  Li  Li10  1  0.00505879  0.69786406  0.27729455  1
  Li  Li11  1  0.00000981  0.20075801  0.21070755  1
  Li  Li12  1  0.49877175  0.50508823  0.34835528  1
  Li  Li13  1  0.50652420  0.19324870  0.35368371  1
  Li  Li14  1  0.49993660  0.20952903  0.21082876  1
  Li  Li15  1  0.50643241  0.69003299  0.27474680  1
  Li  Li16  1  0.51107991  0.03955764  0.27926703  1
  Li  Li17  1  0.00061969  0.21599832  0.35013659  1
  Li  Li18  1  0.94954478  0.05173793  0.40055403  1
  Li  Li19  1  0.99852106  0.50011242  0.36116706  1
  Li  Li20  1  0.54439455  0.71168097  0.39110960  1
  Y  Y21  1  0.00136691  0.86727969  0.07977367  1
  Y  Y22  1  0.98413567  0.35888884  0.14289793  1
  Y  Y23  1  0.00010616  0.87443524  0.21095471  1
  Y  Y24  1  0.01603580  0.35850165  0.27883884  1
  Y  Y25  1  0.99826996  0.86699707  0.34229709  1
  Cl  Cl26  1  0.22278503  0.53496645  0.16547145  1
  Cl  Cl27  1  0.23566331  0.21055313  0.03269107  1
  Cl  Cl28  1  0.21651836  0.87062748  0.03070280  1
  Cl  Cl29  1  0.24604047  0.70011702  0.10163373  1
  Cl  Cl30  1  0.22292508  0.37126388  0.09699990  1
  Cl  Cl31  1  0.29576096  0.53705989  0.03262308  1
  Cl  Cl32  1  0.25130941  0.85968180  0.16573350  1
  Cl  Cl33  1  0.25219114  0.20157350  0.16699091  1
  Cl  Cl34  1  0.25191941  0.04287582  0.09740376  1
  Cl  Cl35  1  0.73737666  0.53661641  0.12341438  1
  Cl  Cl36  1  0.73428238  0.35519774  0.05562228  1
  Cl  Cl37  1  0.77300941  0.68663810  0.05684222  1
  Cl  Cl38  1  0.74749222  0.86020440  0.12350176  1
  Cl  Cl39  1  0.75055629  0.04470868  0.18971615  1
  Cl  Cl40  1  0.74530811  0.19388021  0.11918577  1
  Cl  Cl41  1  0.76675610  0.70000620  0.18786277  1
  Cl  Cl42  1  0.76407143  0.36225187  0.18990372  1
  Cl  Cl43  1  0.75920266  0.02894288  0.05268920  1
  Cl  Cl44  1  0.23931889  0.02958579  0.36917190  1
  Cl  Cl45  1  0.23282039  0.70021687  0.23408667  1
  Cl  Cl46  1  0.23608402  0.36251195  0.23185260  1
  Cl  Cl47  1  0.25514075  0.19365187  0.30256957  1
  Cl  Cl48  1  0.25222450  0.85982037  0.29851810  1
  Cl  Cl49  1  0.24920084  0.04508121  0.23199935  1
  Cl  Cl50  1  0.26518553  0.35549030  0.36626203  1
  Cl  Cl51  1  0.22762904  0.68697331  0.36523854  1
  Cl  Cl52  1  0.26137903  0.53628898  0.29864090  1
  Cl  Cl53  1  0.74768647  0.04217060  0.32436985  1
  Cl  Cl54  1  0.74805160  0.86010896  0.25615272  1
  Cl  Cl55  1  0.74825856  0.20138255  0.25464093  1
  Cl  Cl56  1  0.77650029  0.37053579  0.32474995  1
  Cl  Cl57  1  0.70836386  0.53666642  0.38896402  1
  Cl  Cl58  1  0.75405029  0.69978125  0.32031059  1
  Cl  Cl59  1  0.76177730  0.21009449  0.38905667  1
  Cl  Cl60  1  0.78174973  0.87078784  0.39126939  1
  Cl  Cl61  1  0.77740153  0.53503377  0.25644904  1
