# generated using pymatgen
data_Li87Y25Cl162
_symmetry_space_group_name_H-M   'P 1'
_cell_length_a   11.17722800
_cell_length_b   23.17114807
_cell_length_c   46.52794100
_cell_angle_alpha   90.00000000
_cell_angle_beta   90.00000000
_cell_angle_gamma   61.15890919
_symmetry_Int_Tables_number   1
_chemical_formula_structural   Li87Y25Cl162
_chemical_formula_sum   'Li87 Y25 Cl162'
_cell_volume   10555.53488094
_cell_formula_units_Z   1
loop_
 _symmetry_equiv_pos_site_id
 _symmetry_equiv_pos_as_xyz
  1  'x, y, z'
loop_
 _atom_site_type_symbol
 _atom_site_label
 _atom_site_symmetry_multiplicity
 _atom_site_fract_x
 _atom_site_fract_y
 _atom_site_fract_z
 _atom_site_occupancy
  Li  Li0  1  0.74130620  0.92134001  0.10587880  1
  Li  Li1  1  0.74119009  0.43154186  0.05032113  1
  Li  Li2  1  0.40827714  0.92090569  0.10806339  1
  Li  Li3  1  0.32622527  0.48207019  0.03845658  1
  Li  Li4  1  0.74150584  0.23953379  0.03676655  1
  Li  Li5  1  0.71662060  0.60723079  0.06583250  1
  Li  Li6  1  0.15041397  0.10651909  0.04076528  1
  Li  Li7  1  0.04566320  0.62061062  0.05800700  1
  Li  Li8  1  0.05507286  0.25390330  0.08118512  1
  Li  Li9  1  0.13216639  0.86294118  0.03491369  1
  Li  Li10  1  0.75455140  0.12351175  0.06316792  1
  Li  Li11  1  0.68498304  0.64941504  0.00986386  1
  Li  Li12  1  0.37355164  0.95611450  0.04754833  1
  Li  Li13  1  0.42098531  0.42732120  0.11051630  1
  Li  Li14  1  0.35413478  0.22463997  0.05745030  1
  Li  Li15  1  0.05681763  0.02298885  0.00588443  1
  Li  Li16  1  0.01752276  0.30752664  0.02481562  1
  Li  Li17  1  0.05377634  0.76562793  0.07935403  1
  Li  Li18  1  0.83213653  0.83171464  0.23337254  1
  Li  Li19  1  0.79583664  0.37429399  0.17014744  1
  Li  Li20  1  0.50275862  0.83236074  0.23328796  1
  Li  Li21  1  0.46156064  0.37145605  0.17034659  1
  Li  Li22  1  0.76148958  0.06870579  0.12604131  1
  Li  Li23  1  0.80533045  0.52702734  0.19098281  1
  Li  Li24  1  0.13481569  0.03039251  0.19160689  1
  Li  Li25  1  0.09278562  0.56940847  0.13685889  1
  Li  Li26  1  0.14148658  0.18644443  0.21246191  1
  Li  Li27  1  0.07727479  0.74114882  0.15057336  1
  Li  Li28  1  0.80309381  0.02226957  0.18974442  1
  Li  Li29  1  0.76141800  0.55738037  0.12640728  1
  Li  Li30  1  0.47016373  0.87568016  0.17039822  1
  Li  Li31  1  0.51277541  0.33182634  0.23327990  1
  Li  Li32  1  0.48765162  0.18016752  0.20774612  1
  Li  Li33  1  0.43115258  0.72812099  0.15201352  1
  Li  Li34  1  0.10467695  0.22589171  0.14809077  1
  Li  Li35  1  0.15170034  0.68096891  0.21232052  1
  Li  Li36  1  0.92222878  0.74156636  0.35808613  1
  Li  Li37  1  0.88011063  0.28692310  0.29612895  1
  Li  Li38  1  0.59477672  0.74028840  0.35851221  1
  Li  Li39  1  0.54721721  0.28722775  0.29576937  1
  Li  Li40  1  0.84904157  0.98251450  0.25372398  1
  Li  Li41  1  0.89436803  0.43663421  0.31681940  1
  Li  Li42  1  0.22697902  0.93832271  0.31702594  1
  Li  Li43  1  0.18586590  0.48004537  0.25623727  1
  Li  Li44  1  0.22754296  0.09843170  0.33878834  1
  Li  Li45  1  0.18136728  0.64141302  0.27592043  1
  Li  Li46  1  0.89205246  0.93197966  0.31590692  1
  Li  Li47  1  0.85170059  0.47491403  0.25269581  1
  Li  Li48  1  0.56138740  0.78623098  0.29570405  1
  Li  Li49  1  0.60317036  0.24167766  0.35872763  1
  Li  Li50  1  0.57307433  0.09312090  0.33543547  1
  Li  Li51  1  0.53094248  0.63408812  0.27462495  1
  Li  Li52  1  0.19422371  0.13617700  0.27474953  1
  Li  Li53  1  0.24124632  0.59051569  0.33804013  1
  Li  Li54  1  0.00946135  0.65275991  0.48535508  1
  Li  Li55  1  0.97041296  0.19927749  0.42158216  1
  Li  Li56  1  0.67706405  0.65264916  0.48369493  1
  Li  Li57  1  0.63062471  0.20151666  0.42168915  1
  Li  Li58  1  0.94073197  0.89210309  0.37947986  1
  Li  Li59  1  0.98055778  0.34723409  0.44434550  1
  Li  Li60  1  0.31366067  0.84511884  0.44023472  1
  Li  Li61  1  0.27203642  0.39340213  0.38340523  1
  Li  Li62  1  0.30412712  0.01577399  0.46504886  1
  Li  Li63  1  0.27302823  0.55139957  0.40170447  1
  Li  Li64  1  0.98784563  0.83128239  0.44079427  1
  Li  Li65  1  0.93984958  0.38659313  0.37944195  1
  Li  Li66  1  0.64836624  0.69646370  0.42137193  1
  Li  Li67  1  0.69928974  0.14571092  0.48141041  1
  Li  Li68  1  0.65944725  0.00325341  0.45458207  1
  Li  Li69  1  0.62209821  0.54195035  0.39999758  1
  Li  Li70  1  0.28584272  0.04625522  0.40045186  1
  Li  Li71  1  0.32622168  0.50399610  0.46505781  1
  Li  Li72  1  0.03077647  0.14095865  0.54123550  1
  Li  Li73  1  0.71706511  0.09123289  0.55337921  1
  Li  Li74  1  0.01014221  0.80753552  0.51255756  1
  Li  Li75  1  0.05648289  0.26701280  0.56679633  1
  Li  Li76  1  0.52949249  0.55018913  0.58573926  1
  Li  Li77  1  0.22742191  0.34957335  0.53359573  1
  Li  Li78  1  0.41015595  0.92400794  0.58150660  1
  Li  Li79  1  0.42580214  0.45007520  0.52810543  1
  Li  Li80  1  0.28134687  0.70996655  0.55705506  1
  Li  Li81  1  0.98691885  0.31817078  0.51104972  1
  Li  Li82  1  0.71056863  0.61753647  0.54414287  1
  Li  Li83  1  0.71203107  0.95345110  0.53340553  1
  Li  Li84  1  0.78766297  0.46686845  0.55009649  1
  Li  Li85  1  0.35560792  0.96718658  0.52585317  1
  Li  Li86  1  0.64431691  0.33314157  0.55526917  1
  Y  Y87  1  0.72124566  0.76301394  0.08517287  1
  Y  Y88  1  0.37991595  0.61780737  0.06090960  1
  Y  Y89  1  0.08356037  0.91751183  0.11053873  1
  Y  Y90  1  0.04725398  0.45384128  0.04112942  1
  Y  Y91  1  0.78044122  0.21789758  0.14926594  1
  Y  Y92  1  0.81535474  0.67616976  0.21133888  1
  Y  Y93  1  0.41922902  0.07398550  0.12777851  1
  Y  Y94  1  0.46393309  0.53221910  0.19233770  1
  Y  Y95  1  0.17513895  0.83178757  0.23383049  1
  Y  Y96  1  0.13512661  0.37515652  0.16972726  1
  Y  Y97  1  0.86336735  0.13123550  0.27416575  1
  Y  Y98  1  0.90836917  0.58552778  0.33709116  1
  Y  Y99  1  0.50619127  0.98765163  0.25461238  1
  Y  Y100  1  0.55252946  0.44231782  0.31761427  1
  Y  Y101  1  0.26585822  0.74130263  0.35782943  1
  Y  Y102  1  0.22282445  0.28647431  0.29587822  1
  Y  Y103  1  0.95505218  0.04112924  0.39943231  1
  Y  Y104  1  0.99363549  0.49914268  0.46385909  1
  Y  Y105  1  0.59428793  0.89682148  0.38027702  1
  Y  Y106  1  0.64198493  0.35489091  0.44254130  1
  Y  Y107  1  0.34528744  0.65550851  0.48127178  1
  Y  Y108  1  0.31154309  0.19826781  0.42190146  1
  Y  Y109  1  0.04178262  0.95530433  0.53067422  1
  Y  Y110  1  0.67331845  0.81038850  0.50657406  1
  Y  Y111  1  0.38071305  0.12020759  0.55073960  1
  Cl  Cl112  1  0.90260438  0.41867724  0.00783359  1
  Cl  Cl113  1  0.95247607  0.88485629  0.07162816  1
  Cl  Cl114  1  0.59665780  0.88846226  0.06934498  1
  Cl  Cl115  1  0.62319820  0.04142082  0.09168301  1
  Cl  Cl116  1  0.58300419  0.58648834  0.02395122  1
  Cl  Cl117  1  0.29423310  0.19618443  0.10888408  1
  Cl  Cl118  1  0.24734400  0.74053258  0.04610066  1
  Cl  Cl119  1  0.25511363  0.42372875  0.00878577  1
  Cl  Cl120  1  0.27098229  0.89281915  0.06993118  1
  Cl  Cl121  1  0.65890952  0.18416295  0.11102863  1
  Cl  Cl122  1  0.59991407  0.72762370  0.04580672  1
  Cl  Cl123  1  0.97384005  0.19871515  0.11228732  1
  Cl  Cl124  1  0.91526868  0.73683636  0.04774891  1
  Cl  Cl125  1  0.94769297  0.03717070  0.09138970  1
  Cl  Cl126  1  0.91088912  0.58088025  0.02468552  1
  Cl  Cl127  1  0.29584860  0.03892999  0.08758046  1
  Cl  Cl128  1  0.23587034  0.59128368  0.02387606  1
  Cl  Cl129  1  0.14649484  0.33581340  0.06325177  1
  Cl  Cl130  1  0.04504327  0.93170624  0.99840466  1
  Cl  Cl131  1  0.26644507  0.01994607  0.00967578  1
  Cl  Cl132  1  0.56238299  0.21344803  0.04019291  1
  Cl  Cl133  1  0.53560560  0.62971321  0.10113085  1
  Cl  Cl134  1  0.18272853  0.19822409  0.03637792  1
  Cl  Cl135  1  0.18127515  0.64287344  0.09838819  1
  Cl  Cl136  1  0.91878768  0.13151249  0.03005251  1
  Cl  Cl137  1  0.85579709  0.63562188  0.10027829  1
  Cl  Cl138  1  0.17561408  0.49325394  0.07879167  1
  Cl  Cl139  1  0.82518615  0.31445835  0.04998226  1
  Cl  Cl140  1  0.87034786  0.79454081  0.11981430  1
  Cl  Cl141  1  0.83797971  0.48850128  0.07902679  1
  Cl  Cl142  1  0.50340835  0.48014119  0.06921362  1
  Cl  Cl143  1  0.99006032  0.34451796  0.13468069  1
  Cl  Cl144  1  0.03230836  0.79973900  0.19752218  1
  Cl  Cl145  1  0.64734515  0.34602676  0.13361790  1
  Cl  Cl146  1  0.69100962  0.80289526  0.19714848  1
  Cl  Cl147  1  0.71390671  0.95470737  0.21885978  1
  Cl  Cl148  1  0.67068985  0.49802094  0.15573337  1
  Cl  Cl149  1  0.37906302  0.11109432  0.23722278  1
  Cl  Cl150  1  0.33424566  0.65540326  0.17411660  1
  Cl  Cl151  1  0.32456464  0.35789835  0.13262762  1
  Cl  Cl152  1  0.37134683  0.80473837  0.19572235  1
  Cl  Cl153  1  0.72927246  0.10036764  0.23600001  1
  Cl  Cl154  1  0.68454707  0.64523202  0.17210908  1
  Cl  Cl155  1  0.06022928  0.11015342  0.23643411  1
  Cl  Cl156  1  0.01141707  0.65765011  0.17274149  1
  Cl  Cl157  1  0.03686686  0.95528122  0.21531314  1
  Cl  Cl158  1  0.98966578  0.50154090  0.15159534  1
  Cl  Cl159  1  0.38253630  0.95227626  0.21467841  1
  Cl  Cl160  1  0.33580298  0.50265997  0.15054107  1
  Cl  Cl161  1  0.24677104  0.25036590  0.18740922  1
  Cl  Cl162  1  0.20134030  0.79005463  0.12617949  1
  Cl  Cl163  1  0.58163500  0.25440164  0.18903975  1
  Cl  Cl164  1  0.53117845  0.79648938  0.12588293  1
  Cl  Cl165  1  0.57256081  0.09587810  0.16619864  1
  Cl  Cl166  1  0.61803767  0.55290321  0.22985569  1
  Cl  Cl167  1  0.22602887  0.10612927  0.16724500  1
  Cl  Cl168  1  0.26662418  0.56276143  0.22984973  1
  Cl  Cl169  1  0.89877554  0.09387895  0.16753479  1
  Cl  Cl170  1  0.93794087  0.55260530  0.22831145  1
  Cl  Cl171  1  0.23294309  0.94474596  0.14641029  1
  Cl  Cl172  1  0.27487736  0.40306844  0.20832894  1
  Cl  Cl173  1  0.91894601  0.25323724  0.18558909  1
  Cl  Cl174  1  0.95971129  0.70788563  0.24711987  1
  Cl  Cl175  1  0.87437575  0.94849892  0.14503792  1
  Cl  Cl176  1  0.92703828  0.40902629  0.20630689  1
  Cl  Cl177  1  0.54594009  0.94629318  0.14192885  1
  Cl  Cl178  1  0.58906361  0.40510955  0.20518161  1
  Cl  Cl179  1  0.07975478  0.25459276  0.25982350  1
  Cl  Cl180  1  0.12153851  0.70987746  0.32214259  1
  Cl  Cl181  1  0.73737863  0.25800117  0.26028524  1
  Cl  Cl182  1  0.78165360  0.71282007  0.32278812  1
  Cl  Cl183  1  0.80264607  0.86529586  0.34462261  1
  Cl  Cl184  1  0.75988360  0.40979007  0.28141372  1
  Cl  Cl185  1  0.47010433  0.02045470  0.36335762  1
  Cl  Cl186  1  0.42396971  0.56624734  0.29983433  1
  Cl  Cl187  1  0.41735286  0.26113005  0.25807905  1
  Cl  Cl188  1  0.46191759  0.71542003  0.32027108  1
  Cl  Cl189  1  0.81879004  0.01050982  0.36193040  1
  Cl  Cl190  1  0.77446819  0.55562894  0.29830342  1
  Cl  Cl191  1  0.15069118  0.02020164  0.36193359  1
  Cl  Cl192  1  0.10389162  0.56527003  0.29876532  1
  Cl  Cl193  1  0.12567465  0.86660516  0.34039666  1
  Cl  Cl194  1  0.08211562  0.41144560  0.27767576  1
  Cl  Cl195  1  0.47117200  0.86267663  0.34011596  1
  Cl  Cl196  1  0.42753082  0.40855914  0.27715472  1
  Cl  Cl197  1  0.33198944  0.16160708  0.31405207  1
  Cl  Cl198  1  0.28529336  0.70664747  0.25137452  1
  Cl  Cl199  1  0.67067656  0.16511671  0.31458842  1
  Cl  Cl200  1  0.62368092  0.71023671  0.25144643  1
  Cl  Cl201  1  0.66122531  0.00777153  0.29294526  1
  Cl  Cl202  1  0.70754814  0.46287238  0.35540349  1
  Cl  Cl203  1  0.31226366  0.01749584  0.29335710  1
  Cl  Cl204  1  0.35604562  0.47311264  0.35562003  1
  Cl  Cl205  1  0.98280784  0.00716363  0.29190235  1
  Cl  Cl206  1  0.02818265  0.46213269  0.35448811  1
  Cl  Cl207  1  0.31988046  0.85765092  0.27127838  1
  Cl  Cl208  1  0.36559206  0.31256878  0.33364724  1
  Cl  Cl209  1  0.00599868  0.16345241  0.31040360  1
  Cl  Cl210  1  0.04983224  0.61880111  0.37282723  1
  Cl  Cl211  1  0.96837450  0.86323518  0.26955518  1
  Cl  Cl212  1  0.01601102  0.31851143  0.33205172  1
  Cl  Cl213  1  0.63446138  0.86025605  0.26882730  1
  Cl  Cl214  1  0.67937406  0.31568028  0.33154116  1
  Cl  Cl215  1  0.17150672  0.16427220  0.38531611  1
  Cl  Cl216  1  0.19836473  0.62460819  0.44658278  1
  Cl  Cl217  1  0.82568300  0.16822420  0.38659041  1
  Cl  Cl218  1  0.86465366  0.62690919  0.44966216  1
  Cl  Cl219  1  0.88608195  0.77863659  0.47197387  1
  Cl  Cl220  1  0.85137115  0.31977020  0.40634872  1
  Cl  Cl221  1  0.55292903  0.93785736  0.49151173  1
  Cl  Cl222  1  0.51265241  0.47883693  0.42400637  1
  Cl  Cl223  1  0.50773221  0.17017443  0.38343070  1
  Cl  Cl224  1  0.54906447  0.62835268  0.44543281  1
  Cl  Cl225  1  0.89293362  0.93036609  0.49325245  1
  Cl  Cl226  1  0.86369266  0.46692896  0.42459801  1
  Cl  Cl227  1  0.22162029  0.94360689  0.49051144  1
  Cl  Cl228  1  0.19013500  0.47743670  0.42533068  1
  Cl  Cl229  1  0.20808163  0.78297866  0.46553504  1
  Cl  Cl230  1  0.17315661  0.32297026  0.40430998  1
  Cl  Cl231  1  0.55067801  0.77661109  0.46589693  1
  Cl  Cl232  1  0.51607175  0.31874031  0.40275175  1
  Cl  Cl233  1  0.41955924  0.07179330  0.44010148  1
  Cl  Cl234  1  0.37459494  0.61776515  0.37635520  1
  Cl  Cl235  1  0.76708627  0.07072878  0.44114933  1
  Cl  Cl236  1  0.71412795  0.62053412  0.37701522  1
  Cl  Cl237  1  0.75373722  0.91504318  0.41887483  1
  Cl  Cl238  1  0.79682608  0.37430543  0.47966224  1
  Cl  Cl239  1  0.40214737  0.92785990  0.41963188  1
  Cl  Cl240  1  0.45250528  0.38881845  0.48059469  1
  Cl  Cl241  1  0.07150001  0.91788138  0.41765075  1
  Cl  Cl242  1  0.11227579  0.37712654  0.48281456  1
  Cl  Cl243  1  0.40748593  0.76836042  0.39592432  1
  Cl  Cl244  1  0.46550125  0.21580241  0.45918321  1
  Cl  Cl245  1  0.09366791  0.07512969  0.43599139  1
  Cl  Cl246  1  0.13279910  0.53175308  0.49976384  1
  Cl  Cl247  1  0.05907544  0.77305378  0.39416139  1
  Cl  Cl248  1  0.10568498  0.22858949  0.45707991  1
  Cl  Cl249  1  0.72317796  0.77008714  0.39453624  1
  Cl  Cl250  1  0.76524202  0.22694817  0.45828766  1
  Cl  Cl251  1  0.24122233  0.08537073  0.51269842  1
  Cl  Cl252  1  0.89023386  0.09288270  0.52245534  1
  Cl  Cl253  1  0.87914902  0.25851447  0.54181536  1
  Cl  Cl254  1  0.60702499  0.44144334  0.56139186  1
  Cl  Cl255  1  0.58839756  0.08068766  0.51299710  1
  Cl  Cl256  1  0.00361800  0.37550236  0.55508942  1
  Cl  Cl257  1  0.41325729  0.36007418  0.55133816  1
  Cl  Cl258  1  0.33394450  0.64075854  0.59339324  1
  Cl  Cl259  1  0.24382377  0.23795308  0.52846690  1
  Cl  Cl260  1  0.73278504  0.55279124  0.58173025  1
  Cl  Cl261  1  0.49834953  0.99297375  0.56697278  1
  Cl  Cl262  1  0.44874552  0.53562165  0.50002250  1
  Cl  Cl263  1  0.84471369  0.98194952  0.56773495  1
  Cl  Cl264  1  0.79979627  0.53441246  0.50403988  1
  Cl  Cl265  1  0.81433255  0.83687512  0.54403803  1
  Cl  Cl266  1  0.48153534  0.84542794  0.54590031  1
  Cl  Cl267  1  0.15399764  0.83265934  0.54564553  1
  Cl  Cl268  1  0.48201335  0.68041972  0.52202318  1
  Cl  Cl269  1  0.52941643  0.14984778  0.58300282  1
  Cl  Cl270  1  0.18213549  0.98713833  0.56752652  1
  Cl  Cl271  1  0.14820992  0.68819584  0.52009354  1
  Cl  Cl272  1  0.16612038  0.15556112  0.58402759  1
  Cl  Cl273  1  0.79969842  0.68483707  0.52229621  1
