# generated using pymatgen
data_Li23Y7Cl44
_symmetry_space_group_name_H-M   'P 1'
_cell_length_a   6.09758500
_cell_length_b   11.17729600
_cell_length_c   48.39891500
_cell_angle_alpha   90.00000000
_cell_angle_beta   90.00000000
_cell_angle_gamma   89.99868772
_symmetry_Int_Tables_number   1
_chemical_formula_structural   Li23Y7Cl44
_chemical_formula_sum   'Li23 Y7 Cl44'
_cell_volume   3298.60445397
_cell_formula_units_Z   1
loop_
 _symmetry_equiv_pos_site_id
 _symmetry_equiv_pos_as_xyz
  1  'x, y, z'
loop_
 _atom_site_type_symbol
 _atom_site_label
 _atom_site_symmetry_multiplicity
 _atom_site_fract_x
 _atom_site_fract_y
 _atom_site_fract_z
 _atom_site_occupancy
  Li  Li0  1  0.87950676  0.12939528  0.06582945  1
  Li  Li1  1  0.00304403  0.33308425  0.13198548  1
  Li  Li2  1  0.94309024  0.83667701  0.06616997  1
  Li  Li3  1  0.49360956  0.16668936  0.19947365  1
  Li  Li4  1  0.44060904  0.33507678  0.04462638  1
  Li  Li5  1  0.48597973  0.85276698  0.07130438  1
  Li  Li6  1  0.50708547  0.33347291  0.13057657  1
  Li  Li7  1  0.51438031  0.65812934  0.13092666  1
  Li  Li8  1  0.00098853  0.83373903  0.19972846  1
  Li  Li9  1  0.00006051  0.66575457  0.26618922  1
  Li  Li10  1  0.99942710  0.83445014  0.33269154  1
  Li  Li11  1  0.99949375  0.33524312  0.26621475  1
  Li  Li12  1  0.48450776  0.65853686  0.40108348  1
  Li  Li13  1  0.50139867  0.82782547  0.20186089  1
  Li  Li14  1  0.50004152  0.34827244  0.26604663  1
  Li  Li15  1  0.49812658  0.82732728  0.33081363  1
  Li  Li16  1  0.50577502  0.16602467  0.33284242  1
  Li  Li17  1  0.99778797  0.33467326  0.40050345  1
  Li  Li18  1  0.11809211  0.13116930  0.46662363  1
  Li  Li19  1  0.05506513  0.83688072  0.46624888  1
  Li  Li20  1  0.49339300  0.33389063  0.40182746  1
  Li  Li21  1  0.51233356  0.85263811  0.46135516  1
  Li  Li22  1  0.55935504  0.33593457  0.48840674  1
  Y  Y23  1  0.00841178  0.50873530  0.06327777  1
  Y  Y24  1  0.99987475  0.99516419  0.13449454  1
  Y  Y25  1  0.00320217  0.49704033  0.19765726  1
  Y  Y26  1  0.00031554  0.00835234  0.26621510  1
  Y  Y27  1  0.99731132  0.49692164  0.33459829  1
  Y  Y28  1  0.99937532  0.99558160  0.39807653  1
  Y  Y29  1  0.99171784  0.50953324  0.46922732  1
  Cl  Cl30  1  0.25812361  0.33500119  0.08837276  1
  Cl  Cl31  1  0.19018172  0.99800050  0.08468847  1
  Cl  Cl32  1  0.24680839  0.83113504  0.15751844  1
  Cl  Cl33  1  0.25264988  0.49214549  0.15254884  1
  Cl  Cl34  1  0.25013269  0.68440346  0.08570202  1
  Cl  Cl35  1  0.27059857  0.48598357  0.02226496  1
  Cl  Cl36  1  0.25343006  0.17096248  0.15337133  1
  Cl  Cl37  1  0.74621378  0.67027491  0.17831214  1
  Cl  Cl38  1  0.75712866  0.49079018  0.11011984  1
  Cl  Cl39  1  0.73468199  0.83180037  0.11158082  1
  Cl  Cl40  1  0.75108907  0.99271788  0.17932861  1
  Cl  Cl41  1  0.76736937  0.67283860  0.04335000  1
  Cl  Cl42  1  0.75425601  0.33113009  0.17468522  1
  Cl  Cl43  1  0.80920308  0.31285426  0.04240108  1
  Cl  Cl44  1  0.70180488  0.97672893  0.04474573  1
  Cl  Cl45  1  0.76066569  0.17044881  0.11251752  1
  Cl  Cl46  1  0.23241460  0.67124103  0.22106766  1
  Cl  Cl47  1  0.22988601  0.83381261  0.28949506  1
  Cl  Cl48  1  0.22908756  0.49685867  0.28806599  1
  Cl  Cl49  1  0.24614420  0.33144380  0.35767534  1
  Cl  Cl50  1  0.24880310  0.99283020  0.35324677  1
  Cl  Cl51  1  0.24909355  0.17898789  0.28746050  1
  Cl  Cl52  1  0.25684917  0.99508664  0.22144623  1
  Cl  Cl53  1  0.25789753  0.33564874  0.22276400  1
  Cl  Cl54  1  0.25355478  0.67051813  0.35407877  1
  Cl  Cl55  1  0.74618646  0.17141249  0.37912780  1
  Cl  Cl56  1  0.74359418  0.99494220  0.31098432  1
  Cl  Cl57  1  0.74296124  0.33542587  0.30954945  1
  Cl  Cl58  1  0.74833190  0.49245277  0.37977359  1
  Cl  Cl59  1  0.75239875  0.17888431  0.24478992  1
  Cl  Cl60  1  0.75254690  0.83150559  0.37493155  1
  Cl  Cl61  1  0.77116466  0.83346020  0.24295798  1
  Cl  Cl62  1  0.77173250  0.49661614  0.24422362  1
  Cl  Cl63  1  0.76838270  0.67154991  0.31131189  1
  Cl  Cl64  1  0.23861699  0.17117430  0.41996564  1
  Cl  Cl65  1  0.19086071  0.31380894  0.49025554  1
  Cl  Cl66  1  0.29583512  0.97782595  0.48762035  1
  Cl  Cl67  1  0.23358429  0.67371724  0.48902543  1
  Cl  Cl68  1  0.24282842  0.49121251  0.42232091  1
  Cl  Cl69  1  0.26407624  0.83166616  0.42080924  1
  Cl  Cl70  1  0.73069149  0.48767573  0.51039666  1
  Cl  Cl71  1  0.74973162  0.68482245  0.44683207  1
  Cl  Cl72  1  0.74150555  0.33571858  0.44433219  1
  Cl  Cl73  1  0.80824425  0.99828943  0.44778107  1
