# generated using pymatgen
data_Li9Y2Cl15
_symmetry_space_group_name_H-M   'P 1'
_cell_length_a   6.09758500
_cell_length_b   11.17729600
_cell_length_c   48.39891500
_cell_angle_alpha   90.00000000
_cell_angle_beta   90.00000000
_cell_angle_gamma   89.99868772
_symmetry_Int_Tables_number   1
_chemical_formula_structural   Li9Y2Cl15
_chemical_formula_sum   'Li18 Y4 Cl30'
_cell_volume   3298.60445397
_cell_formula_units_Z   2
loop_
 _symmetry_equiv_pos_site_id
 _symmetry_equiv_pos_as_xyz
  1  'x, y, z'
loop_
 _atom_site_type_symbol
 _atom_site_label
 _atom_site_symmetry_multiplicity
 _atom_site_fract_x
 _atom_site_fract_y
 _atom_site_fract_z
 _atom_site_occupancy
  Li  Li0  1  0.97198977  0.24097625  0.09203681  1
  Li  Li1  1  0.99974989  0.45714648  0.17624717  1
  Li  Li2  1  0.94539885  0.95359903  0.10933724  1
  Li  Li3  1  0.58293986  0.66728582  0.04757171  1
  Li  Li4  1  0.47287986  0.41117090  0.05490889  1
  Li  Li5  1  0.48288192  0.00211222  0.11749208  1
  Li  Li6  1  0.50040112  0.45351566  0.17405196  1
  Li  Li7  1  0.52930481  0.78582638  0.18076802  1
  Li  Li8  1  0.97767669  0.44393538  0.04449729  1
  Li  Li9  1  0.02820721  0.74080678  0.32897038  1
  Li  Li10  1  0.02067536  0.94314856  0.37597373  1
  Li  Li11  1  0.05491876  0.45356605  0.31109577  1
  Li  Li12  1  0.47090246  0.28591007  0.24001141  1
  Li  Li13  1  0.49893670  0.95377484  0.24638846  1
  Li  Li14  1  0.51899151  0.50104436  0.30332200  1
  Li  Li15  1  0.52738646  0.91266438  0.36602376  1
  Li  Li16  1  0.41762049  0.16829342  0.37289482  1
  Li  Li17  1  0.00011023  0.95579808  0.24411920  1
  Y  Y18  1  0.00259133  0.62097219  0.10977519  1
  Y  Y19  1  0.98448181  0.12409283  0.17771501  1
  Y  Y20  1  0.99695563  0.12042967  0.31077064  1
  Y  Y21  1  0.01610353  0.62361383  0.24296857  1
  Cl  Cl22  1  0.19118840  0.27874955  0.05325494  1
  Cl  Cl23  1  0.24427400  0.46165503  0.13432229  1
  Cl  Cl24  1  0.18607061  0.12585307  0.12857659  1
  Cl  Cl25  1  0.25664657  0.61944670  0.19725798  1
  Cl  Cl26  1  0.23301637  0.81308939  0.12275407  1
  Cl  Cl27  1  0.22823023  0.59931472  0.06179363  1
  Cl  Cl28  1  0.24760706  0.29530058  0.19758064  1
  Cl  Cl29  1  0.75155693  0.62233177  0.15493975  1
  Cl  Cl30  1  0.73099971  0.95224410  0.15462340  1
  Cl  Cl31  1  0.67894038  0.51106829  0.02047242  1
  Cl  Cl32  1  0.74994775  0.77297804  0.08314991  1
  Cl  Cl33  1  0.76762627  0.43717690  0.08947883  1
  Cl  Cl34  1  0.71781966  0.08733029  0.08637303  1
  Cl  Cl35  1  0.75379556  0.29930826  0.15738427  1
  Cl  Cl36  1  0.24676962  0.79909430  0.26318105  1
  Cl  Cl37  1  0.23151270  0.93681087  0.33121565  1
  Cl  Cl38  1  0.28270374  0.58695293  0.33419994  1
  Cl  Cl39  1  0.24126363  0.95991053  0.20006166  1
  Cl  Cl40  1  0.31916369  0.01203871  0.40005142  1
  Cl  Cl41  1  0.24924792  0.27276985  0.33738466  1
  Cl  Cl42  1  0.24810077  0.12221656  0.26564556  1
  Cl  Cl43  1  0.26983742  0.45218952  0.26605320  1
  Cl  Cl44  1  0.75264674  0.79484970  0.22313911  1
  Cl  Cl45  1  0.77140363  0.09946498  0.35882444  1
  Cl  Cl46  1  0.74310133  0.11926570  0.22326999  1
  Cl  Cl47  1  0.76665307  0.31282326  0.29779578  1
  Cl  Cl48  1  0.75890370  0.45995528  0.22059936  1
  Cl  Cl49  1  0.75509405  0.96157322  0.28620756  1
  Cl  Cl50  1  0.81469091  0.62554853  0.29215213  1
  Cl  Cl51  1  0.80703038  0.77845422  0.36752362  1
