# generated using pymatgen
data_Li81Y23Cl150
_symmetry_space_group_name_H-M   'P 1'
_cell_length_a   11.17729600
_cell_length_b   23.17126381
_cell_length_c   46.52694700
_cell_angle_alpha   90.00000000
_cell_angle_beta   90.00000000
_cell_angle_gamma   61.15997857
_symmetry_Int_Tables_number   1
_chemical_formula_structural   Li81Y23Cl150
_chemical_formula_sum   'Li81 Y23 Cl150'
_cell_volume   10555.53480816
_cell_formula_units_Z   1
loop_
 _symmetry_equiv_pos_site_id
 _symmetry_equiv_pos_as_xyz
  1  'x, y, z'
loop_
 _atom_site_type_symbol
 _atom_site_label
 _atom_site_symmetry_multiplicity
 _atom_site_fract_x
 _atom_site_fract_y
 _atom_site_fract_z
 _atom_site_occupancy
  Li  Li0  1  0.07776880  0.09403598  0.09022210  1
  Li  Li1  1  0.04638848  0.63777476  0.03401268  1
  Li  Li2  1  0.07427579  0.24889404  0.11537069  1
  Li  Li3  1  0.03704902  0.78415981  0.04603391  1
  Li  Li4  1  0.75385126  0.09151408  0.09032776  1
  Li  Li5  1  0.76648811  0.62364316  0.02252353  1
  Li  Li6  1  0.42369852  0.58436034  0.04990228  1
  Li  Li7  1  0.74800652  0.93468434  0.06515377  1
  Li  Li8  1  0.36903283  0.97777857  0.01678230  1
  Li  Li9  1  0.40827944  0.40813899  0.05763378  1
  Li  Li10  1  0.73243507  0.11766860  0.02840805  1
  Li  Li11  1  0.74222465  0.58929907  0.08965761  1
  Li  Li12  1  0.06166535  0.28161877  0.05770131  1
  Li  Li13  1  0.11553152  0.72303099  0.10568252  1
  Li  Li14  1  0.49112453  0.25907801  0.02080890  1
  Li  Li15  1  0.41238043  0.75446045  0.12119165  1
  Li  Li16  1  0.40932614  0.93473005  0.07243190  1
  Li  Li17  1  0.21542891  0.47966851  0.00983192  1
  Li  Li18  1  0.16192608  0.00974422  0.21682123  1
  Li  Li19  1  0.11820150  0.55265015  0.15361361  1
  Li  Li20  1  0.17426260  0.16002044  0.23785434  1
  Li  Li21  1  0.12867244  0.70573211  0.17541171  1
  Li  Li22  1  0.82995958  0.01014865  0.21730093  1
  Li  Li23  1  0.77922114  0.55359427  0.15411034  1
  Li  Li24  1  0.80495877  0.36031755  0.19293041  1
  Li  Li25  1  0.78208612  0.89518767  0.14054591  1
  Li  Li26  1  0.43178002  0.90470048  0.13497702  1
  Li  Li27  1  0.45869887  0.36585732  0.19584909  1
  Li  Li28  1  0.79712076  0.05609682  0.15452944  1
  Li  Li29  1  0.83734073  0.50818191  0.21685709  1
  Li  Li30  1  0.13035585  0.19973359  0.17544927  1
  Li  Li31  1  0.17458140  0.65320690  0.23738753  1
  Li  Li32  1  0.46341342  0.20750845  0.17642325  1
  Li  Li33  1  0.51228859  0.65669836  0.23926714  1
  Li  Li34  1  0.47951807  0.85879139  0.19777077  1
  Li  Li35  1  0.42236049  0.40635409  0.12888147  1
  Li  Li36  1  0.25133550  0.91857277  0.34309455  1
  Li  Li37  1  0.20459729  0.46470533  0.27989092  1
  Li  Li38  1  0.26872736  0.06865019  0.36258071  1
  Li  Li39  1  0.21984034  0.61478078  0.30174909  1
  Li  Li40  1  0.91997137  0.91877912  0.34314840  1
  Li  Li41  1  0.87249331  0.46412339  0.27985410  1
  Li  Li42  1  0.89590642  0.27183628  0.32046875  1
  Li  Li43  1  0.85750726  0.81129492  0.25798583  1
  Li  Li44  1  0.51186568  0.81757223  0.26059660  1
  Li  Li45  1  0.55115186  0.27495200  0.32268627  1
  Li  Li46  1  0.88684106  0.96409747  0.28001643  1
  Li  Li47  1  0.92567042  0.42045660  0.34295705  1
  Li  Li48  1  0.21818980  0.11090375  0.29986517  1
  Li  Li49  1  0.26349610  0.56338122  0.36457864  1
  Li  Li50  1  0.55220454  0.11714634  0.30214110  1
  Li  Li51  1  0.59799515  0.56771947  0.36669250  1
  Li  Li52  1  0.56547635  0.76808175  0.32222126  1
  Li  Li53  1  0.52105289  0.31421200  0.25856651  1
  Li  Li54  1  0.33633565  0.83550164  0.47029887  1
  Li  Li55  1  0.29476976  0.37622722  0.40672378  1
  Li  Li56  1  0.34757797  0.99502455  0.48822203  1
  Li  Li57  1  0.30612752  0.52308203  0.43128051  1
  Li  Li58  1  0.00465284  0.83846570  0.47029310  1
  Li  Li59  1  0.95891487  0.37427235  0.40573670  1
  Li  Li60  1  0.99290061  0.17369321  0.43890066  1
  Li  Li61  1  0.94903163  0.72092475  0.38330085  1
  Li  Li62  1  0.60136129  0.72882507  0.38491228  1
  Li  Li63  1  0.63333173  0.20475024  0.45430585  1
  Li  Li64  1  0.98091142  0.87232293  0.40568330  1
  Li  Li65  1  0.99089977  0.33946975  0.47042890  1
  Li  Li66  1  0.31369089  0.02388601  0.42565642  1
  Li  Li67  1  0.29613937  0.52058871  0.50238761  1
  Li  Li68  1  0.64308510  0.03403986  0.42014151  1
  Li  Li69  1  0.66370675  0.34327856  0.51086418  1
  Li  Li70  1  0.64463570  0.68006645  0.44460522  1
  Li  Li71  1  0.61060754  0.22364092  0.38503033  1
  Li  Li72  1  0.39022113  0.29150375  0.52531915  1
  Li  Li73  1  0.24550221  0.44972985  0.54985105  1
  Li  Li74  1  0.08230046  0.30632307  0.53755389  1
  Li  Li75  1  0.07855872  0.66987091  0.53835658  1
  Li  Li76  1  0.69590716  0.64759617  0.50244941  1
  Li  Li77  1  0.04070478  0.80976243  0.53168034  1
  Li  Li78  1  0.39530235  0.95142763  0.54366749  1
  Li  Li79  1  0.68797791  0.99469993  0.49493503  1
  Li  Li80  1  0.67521129  0.14499431  0.51464310  1
  Y  Y81  1  0.41788308  0.09784288  0.08989207  1
  Y  Y82  1  0.73888406  0.25131632  0.11061647  1
  Y  Y83  1  0.71097908  0.77946345  0.04849243  1
  Y  Y84  1  0.08458003  0.93085134  0.06989325  1
  Y  Y85  1  0.50336815  0.00951286  0.21734924  1
  Y  Y86  1  0.45609146  0.55255686  0.15609596  1
  Y  Y87  1  0.83299571  0.16533210  0.23835907  1
  Y  Y88  1  0.78936215  0.70766609  0.17589992  1
  Y  Y89  1  0.09986379  0.39670665  0.13265788  1
  Y  Y90  1  0.14498711  0.85389098  0.19746814  1
  Y  Y91  1  0.59315539  0.91908186  0.34300443  1
  Y  Y92  1  0.54584613  0.46436056  0.28005238  1
  Y  Y93  1  0.92315042  0.07491590  0.36286139  1
  Y  Y94  1  0.87718994  0.61952521  0.30213014  1
  Y  Y95  1  0.18814360  0.30888050  0.25792024  1
  Y  Y96  1  0.23468610  0.76322357  0.32188605  1
  Y  Y97  1  0.68428573  0.83121817  0.47082129  1
  Y  Y98  1  0.63283593  0.37615254  0.40397395  1
  Y  Y99  1  0.01634364  0.99830007  0.49079893  1
  Y  Y100  1  0.96492782  0.53201307  0.42733087  1
  Y  Y101  1  0.27571008  0.22082700  0.38416513  1
  Y  Y102  1  0.31242054  0.67823872  0.44955165  1
  Y  Y103  1  0.33930163  0.14987221  0.51168582  1
  Cl  Cl104  1  0.21406311  0.97165433  0.10608786  1
  Cl  Cl105  1  0.99949215  0.56702099  0.00587888  1
  Cl  Cl106  1  0.19200375  0.67162256  0.06028520  1
  Cl  Cl107  1  0.84713167  0.65900513  0.06841448  1
  Cl  Cl108  1  0.33117492  0.36684994  0.01945591  1
  Cl  Cl109  1  0.51811075  0.82169065  0.08969455  1
  Cl  Cl110  1  0.20344281  0.80923676  0.08807626  1
  Cl  Cl111  1  0.61717726  0.17707813  0.99162833  1
  Cl  Cl112  1  0.54067033  0.96938659  0.10685005  1
  Cl  Cl113  1  0.36450311  0.50630454  0.03435963  1
  Cl  Cl114  1  0.87453384  0.96764437  0.10729414  1
  Cl  Cl115  1  0.63111477  0.58693977  0.04756095  1
  Cl  Cl116  1  0.86035927  0.81583382  0.08527929  1
  Cl  Cl117  1  0.28696655  0.38053383  0.09589283  1
  Cl  Cl118  1  0.27114381  0.91504305  0.03151303  1
  Cl  Cl119  1  0.29085739  0.21447884  0.06649408  1
  Cl  Cl120  1  0.63860900  0.20882965  0.06886823  1
  Cl  Cl121  1  0.60541751  0.73765579  0.01138192  1
  Cl  Cl122  1  0.60747998  0.37041400  0.09082160  1
  Cl  Cl123  1  0.59359514  0.90910177  0.03286829  1
  Cl  Cl124  1  0.62757999  0.05759566  0.05387266  1
  Cl  Cl125  1  0.64640418  0.53001878  0.11913673  1
  Cl  Cl126  1  0.97783704  0.36060686  0.09348043  1
  Cl  Cl127  1  0.94758095  0.90083171  0.03317807  1
  Cl  Cl128  1  0.28649794  0.06008557  0.05232467  1
  Cl  Cl129  1  0.31147520  0.52573783  0.11981801  1
  Cl  Cl130  1  0.94919805  0.05881819  0.05387546  1
  Cl  Cl131  1  0.96621198  0.52294844  0.11805102  1
  Cl  Cl132  1  0.95555564  0.21957513  0.07501628  1
  Cl  Cl133  1  0.91693364  0.75114426  0.01364824  1
  Cl  Cl134  1  0.28785763  0.88745848  0.23276194  1
  Cl  Cl135  1  0.23981159  0.43026747  0.16897292  1
  Cl  Cl136  1  0.21157830  0.12758252  0.12526391  1
  Cl  Cl137  1  0.24685185  0.58726257  0.19203390  1
  Cl  Cl138  1  0.87864925  0.12257856  0.12514644  1
  Cl  Cl139  1  0.91539756  0.58155695  0.18948473  1
  Cl  Cl140  1  0.54921205  0.28086877  0.14988659  1
  Cl  Cl141  1  0.59486450  0.74086783  0.21488852  1
  Cl  Cl142  1  0.21975336  0.27062533  0.14972743  1
  Cl  Cl143  1  0.26488543  0.73005378  0.21396539  1
  Cl  Cl144  1  0.56541210  0.12041952  0.12761127  1
  Cl  Cl145  1  0.59964088  0.58003313  0.19432504  1
  Cl  Cl146  1  0.61305630  0.88506476  0.23579777  1
  Cl  Cl147  1  0.56806414  0.42617903  0.17190068  1
  Cl  Cl148  1  0.94946480  0.88837952  0.23666223  1
  Cl  Cl149  1  0.90454147  0.43043207  0.17324502  1
  Cl  Cl150  1  0.89433086  0.27120530  0.14967682  1
  Cl  Cl151  1  0.94122662  0.73050707  0.21431344  1
  Cl  Cl152  1  0.38422111  0.28819871  0.21968793  1
  Cl  Cl153  1  0.34203362  0.83485083  0.15953826  1
  Cl  Cl154  1  0.36460237  0.13317631  0.19831433  1
  Cl  Cl155  1  0.31907064  0.67847437  0.13746002  1
  Cl  Cl156  1  0.70902799  0.13013833  0.19797121  1
  Cl  Cl157  1  0.65693230  0.67711894  0.13644879  1
  Cl  Cl158  1  0.70429870  0.28825968  0.22063287  1
  Cl  Cl159  1  0.66453502  0.83344461  0.15899952  1
  Cl  Cl160  1  0.69997876  0.98308473  0.17899850  1
  Cl  Cl161  1  0.74173909  0.43802610  0.24228594  1
  Cl  Cl162  1  0.05560932  0.27716208  0.21935555  1
  Cl  Cl163  1  0.01424136  0.82388920  0.15849817  1
  Cl  Cl164  1  0.36433789  0.97655413  0.18073583  1
  Cl  Cl165  1  0.40338449  0.43269812  0.24370876  1
  Cl  Cl166  1  0.01918370  0.98000391  0.18152152  1
  Cl  Cl167  1  0.06178155  0.43560549  0.24417471  1
  Cl  Cl168  1  0.04167418  0.13171859  0.20220964  1
  Cl  Cl169  1  0.99572411  0.67776276  0.14002432  1
  Cl  Cl170  1  0.37618667  0.79671036  0.35799148  1
  Cl  Cl171  1  0.33136974  0.34064730  0.29390124  1
  Cl  Cl172  1  0.29606892  0.04136773  0.25291010  1
  Cl  Cl173  1  0.34013025  0.49598255  0.31633459  1
  Cl  Cl174  1  0.96091650  0.03841863  0.25263821  1
  Cl  Cl175  1  0.00460002  0.49279993  0.31571284  1
  Cl  Cl176  1  0.63772393  0.19498033  0.27661271  1
  Cl  Cl177  1  0.68131075  0.65124890  0.34066693  1
  Cl  Cl178  1  0.30928176  0.18453265  0.27528789  1
  Cl  Cl179  1  0.35199534  0.64018255  0.33964723  1
  Cl  Cl180  1  0.64668434  0.03555427  0.25495889  1
  Cl  Cl181  1  0.68930633  0.49059162  0.31775129  1
  Cl  Cl182  1  0.70222723  0.79535704  0.36197369  1
  Cl  Cl183  1  0.65624774  0.33919878  0.29751339  1
  Cl  Cl184  1  0.04066422  0.79825386  0.36239834  1
  Cl  Cl185  1  0.99625166  0.34254164  0.29819523  1
  Cl  Cl186  1  0.98763975  0.18548316  0.27637989  1
  Cl  Cl187  1  0.03153297  0.64045992  0.34035558  1
  Cl  Cl188  1  0.47352238  0.19780031  0.34587397  1
  Cl  Cl189  1  0.42973798  0.74304492  0.28387042  1
  Cl  Cl190  1  0.45408162  0.04336944  0.32442868  1
  Cl  Cl191  1  0.40613566  0.58953528  0.26262568  1
  Cl  Cl192  1  0.79750654  0.04007406  0.32358356  1
  Cl  Cl193  1  0.75275006  0.58603490  0.26172211  1
  Cl  Cl194  1  0.79524287  0.19866299  0.34624968  1
  Cl  Cl195  1  0.74945366  0.74396855  0.28483399  1
  Cl  Cl196  1  0.78887968  0.89292143  0.30547391  1
  Cl  Cl197  1  0.83109313  0.34864335  0.36564329  1
  Cl  Cl198  1  0.14777440  0.18742948  0.34522857  1
  Cl  Cl199  1  0.09885398  0.73365494  0.28356385  1
  Cl  Cl200  1  0.45006792  0.88704193  0.30730250  1
  Cl  Cl201  1  0.49244577  0.34153257  0.36813652  1
  Cl  Cl202  1  0.10846205  0.89010563  0.30767068  1
  Cl  Cl203  1  0.15025523  0.34694136  0.37049741  1
  Cl  Cl204  1  0.13360474  0.04099319  0.32761995  1
  Cl  Cl205  1  0.08404932  0.58806220  0.26621177  1
  Cl  Cl206  1  0.46564798  0.70940672  0.48528406  1
  Cl  Cl207  1  0.42192736  0.25084938  0.42017967  1
  Cl  Cl208  1  0.38843208  0.95173506  0.37962235  1
  Cl  Cl209  1  0.43447324  0.40326936  0.44024289  1
  Cl  Cl210  1  0.04935934  0.94872969  0.37883123  1
  Cl  Cl211  1  0.08335201  0.40591878  0.44197940  1
  Cl  Cl212  1  0.73255585  0.10508285  0.40191551  1
  Cl  Cl213  1  0.77058943  0.56876637  0.46655697  1
  Cl  Cl214  1  0.40225591  0.09515983  0.40133950  1
  Cl  Cl215  1  0.41895922  0.55914889  0.46935389  1
  Cl  Cl216  1  0.73625237  0.94579450  0.38136264  1
  Cl  Cl217  1  0.77799230  0.39915706  0.44074293  1
  Cl  Cl218  1  0.79195967  0.71451488  0.49422080  1
  Cl  Cl219  1  0.74707293  0.25035042  0.42273218  1
  Cl  Cl220  1  0.12653629  0.72039477  0.49123920  1
  Cl  Cl221  1  0.08159631  0.25170153  0.42349807  1
  Cl  Cl222  1  0.08294041  0.09352405  0.40069600  1
  Cl  Cl223  1  0.11959880  0.54817357  0.46411408  1
  Cl  Cl224  1  0.56216458  0.11305792  0.47502622  1
  Cl  Cl225  1  0.50753761  0.65848716  0.41053870  1
  Cl  Cl226  1  0.54934940  0.95966920  0.45377201  1
  Cl  Cl227  1  0.49282239  0.50274923  0.38828069  1
  Cl  Cl228  1  0.87869600  0.96204584  0.45344639  1
  Cl  Cl229  1  0.83735183  0.49844410  0.38668119  1
  Cl  Cl230  1  0.89259690  0.11957983  0.47223219  1
  Cl  Cl231  1  0.83255925  0.65839932  0.41036523  1
  Cl  Cl232  1  0.87608190  0.80928425  0.43300327  1
  Cl  Cl233  1  0.23114042  0.10759854  0.47042954  1
  Cl  Cl234  1  0.18203923  0.64818826  0.41037331  1
  Cl  Cl235  1  0.53807112  0.80135988  0.43533482  1
  Cl  Cl236  1  0.60560714  0.25697069  0.49977474  1
  Cl  Cl237  1  0.19325254  0.80726558  0.43541102  1
  Cl  Cl238  1  0.23489574  0.27013519  0.49144569  1
  Cl  Cl239  1  0.22729862  0.95750052  0.45454814  1
  Cl  Cl240  1  0.17225948  0.49892069  0.39112155  1
  Cl  Cl241  1  0.48738519  0.17872765  0.54654224  1
  Cl  Cl242  1  0.47693597  0.86880488  0.50828629  1
  Cl  Cl243  1  0.13678622  0.87038148  0.50669437  1
  Cl  Cl244  1  0.81868355  0.02884248  0.52745260  1
  Cl  Cl245  1  0.48130173  0.02047576  0.52746164  1
  Cl  Cl246  1  0.81303641  0.87164173  0.50685572  1
  Cl  Cl247  1  0.14915191  0.19194383  0.54853802  1
  Cl  Cl248  1  0.17160337  0.01435467  0.52904820  1
  Cl  Cl249  1  0.44855743  0.42260638  0.52577005  1
  Cl  Cl250  1  0.87442453  0.34239002  0.51256447  1
  Cl  Cl251  1  0.04380434  0.75028237  0.56835027  1
  Cl  Cl252  1  0.13505197  0.56208749  0.54028131  1
  Cl  Cl253  1  0.20308348  0.36271373  0.55370874  1
