# generated using pymatgen
data_Li81Y23Cl150
_symmetry_space_group_name_H-M   'P 1'
_cell_length_a   11.17722800
_cell_length_b   23.17114807
_cell_length_c   46.52794100
_cell_angle_alpha   90.00000000
_cell_angle_beta   90.00000000
_cell_angle_gamma   61.15890919
_symmetry_Int_Tables_number   1
_chemical_formula_structural   Li81Y23Cl150
_chemical_formula_sum   'Li81 Y23 Cl150'
_cell_volume   10555.53488094
_cell_formula_units_Z   1
loop_
 _symmetry_equiv_pos_site_id
 _symmetry_equiv_pos_as_xyz
  1  'x, y, z'
loop_
 _atom_site_type_symbol
 _atom_site_label
 _atom_site_symmetry_multiplicity
 _atom_site_fract_x
 _atom_site_fract_y
 _atom_site_fract_z
 _atom_site_occupancy
  Li  Li0  1  0.74590592  0.92580765  0.09259230  1
  Li  Li1  1  0.71455681  0.46888607  0.03703513  1
  Li  Li2  1  0.42216224  0.92359240  0.09237776  1
  Li  Li3  1  0.43523488  0.45467054  0.02497910  1
  Li  Li4  1  0.74104984  0.08193474  0.11827514  1
  Li  Li5  1  0.70378418  0.61680975  0.04822375  1
  Li  Li6  1  0.15398192  0.09027784  0.02472391  1
  Li  Li7  1  0.08034658  0.58642131  0.12372627  1
  Li  Li8  1  0.07921331  0.24006017  0.05969169  1
  Li  Li9  1  0.03650043  0.80965911  0.01880233  1
  Li  Li10  1  0.73037397  0.11241080  0.05989028  1
  Li  Li11  1  0.78107970  0.55564124  0.10803274  1
  Li  Li12  1  0.40024643  0.95040884  0.03057449  1
  Li  Li13  1  0.41094748  0.42172359  0.09204682  1
  Li  Li14  1  0.08997147  0.41820499  0.05194540  1
  Li  Li15  1  0.41522158  0.76715545  0.06706276  1
  Li  Li16  1  0.88432768  0.31158694  0.01285813  1
  Li  Li17  1  0.07670635  0.76709714  0.07441781  1
  Li  Li18  1  0.82864029  0.84140252  0.21944941  1
  Li  Li19  1  0.78827673  0.38431107  0.15558626  1
  Li  Li20  1  0.49867111  0.84139580  0.21975978  1
  Li  Li21  1  0.44795965  0.38498165  0.15631890  1
  Li  Li22  1  0.84348262  0.99125591  0.24018010  1
  Li  Li23  1  0.79757597  0.53742905  0.17723451  1
  Li  Li24  1  0.13241729  0.03956584  0.17938581  1
  Li  Li25  1  0.18019073  0.48820175  0.24212770  1
  Li  Li26  1  0.12928724  0.19743892  0.19807829  1
  Li  Li27  1  0.10109203  0.73615782  0.13699057  1
  Li  Li28  1  0.80076812  0.03138001  0.17776343  1
  Li  Li29  1  0.84279125  0.48495509  0.23943051  1
  Li  Li30  1  0.46514531  0.88732057  0.15695515  1
  Li  Li31  1  0.50720002  0.33926691  0.21877942  1
  Li  Li32  1  0.47361837  0.19212185  0.19567899  1
  Li  Li33  1  0.45107483  0.72639138  0.14208838  1
  Li  Li34  1  0.09141546  0.23751108  0.13126982  1
  Li  Li35  1  0.14807020  0.68992201  0.19995017  1
  Li  Li36  1  0.91893421  0.75094649  0.34596812  1
  Li  Li37  1  0.87306820  0.29624468  0.28267654  1
  Li  Li38  1  0.58856662  0.75072165  0.34550936  1
  Li  Li39  1  0.54094696  0.29641036  0.28221845  1
  Li  Li40  1  0.93810619  0.90129661  0.36481948  1
  Li  Li41  1  0.88704259  0.44708785  0.30376408  1
  Li  Li42  1  0.21967468  0.94957108  0.30477700  1
  Li  Li43  1  0.26672938  0.40046789  0.36873305  1
  Li  Li44  1  0.21939124  0.10786313  0.32498007  1
  Li  Li45  1  0.18034968  0.64984056  0.26286447  1
  Li  Li46  1  0.88804854  0.94265096  0.30201839  1
  Li  Li47  1  0.93065992  0.39629760  0.36686504  1
  Li  Li48  1  0.55435832  0.79593896  0.28246953  1
  Li  Li49  1  0.59371772  0.25244291  0.34578317  1
  Li  Li50  1  0.56571149  0.10337105  0.32231781  1
  Li  Li51  1  0.52619084  0.64232522  0.25999273  1
  Li  Li52  1  0.18889887  0.14569191  0.26071477  1
  Li  Li53  1  0.23413301  0.60106669  0.32461334  1
  Li  Li54  1  0.00616209  0.66699187  0.47231247  1
  Li  Li55  1  0.96478038  0.20803751  0.40898584  1
  Li  Li56  1  0.67562891  0.67029553  0.47249265  1
  Li  Li57  1  0.62607889  0.20732420  0.40843990  1
  Li  Li58  1  0.01702594  0.82636881  0.49024790  1
  Li  Li59  1  0.97585141  0.35406003  0.43346620  1
  Li  Li60  1  0.31304391  0.86640768  0.42242292  1
  Li  Li61  1  0.33270483  0.17578141  0.51292513  1
  Li  Li62  1  0.29937965  0.03812135  0.45681151  1
  Li  Li63  1  0.27173842  0.55981692  0.38708538  1
  Li  Li64  1  0.98203696  0.85674065  0.42784846  1
  Li  Li65  1  0.96482914  0.35331300  0.50498404  1
  Li  Li66  1  0.65059362  0.70382639  0.40775247  1
  Li  Li67  1  0.65932281  0.17282307  0.47312736  1
  Li  Li68  1  0.66051396  0.00636501  0.44124565  1
  Li  Li69  1  0.61788735  0.55339317  0.38543482  1
  Li  Li70  1  0.28037158  0.05544651  0.38741707  1
  Li  Li71  1  0.31343573  0.51072344  0.44700993  1
  Li  Li72  1  0.06005273  0.12309379  0.52794885  1
  Li  Li73  1  0.75274271  0.13771268  0.54017178  1
  Li  Li74  1  0.91279639  0.28200815  0.55184445  1
  Li  Li75  1  0.35709922  0.82608120  0.49724809  1
  Li  Li76  1  0.36387678  0.47927002  0.50505993  1
  Li  Li77  1  0.06385184  0.78360834  0.54580458  1
  Li  Li78  1  0.70956348  0.64238989  0.53438618  1
  Li  Li79  1  0.73842250  0.50313959  0.54062710  1
  Li  Li80  1  0.34378747  0.97649940  0.51664407  1
  Y  Y81  1  0.75243619  0.76283269  0.07201460  1
  Y  Y82  1  0.40783694  0.08288870  0.11306789  1
  Y  Y83  1  0.37879599  0.61121417  0.05092367  1
  Y  Y84  1  0.08633238  0.93005752  0.09169317  1
  Y  Y85  1  0.76970412  0.22842410  0.13492759  1
  Y  Y86  1  0.81324462  0.68546658  0.19967879  1
  Y  Y87  1  0.50174513  0.99709304  0.24061745  1
  Y  Y88  1  0.45784868  0.53921349  0.17810785  1
  Y  Y89  1  0.17194840  0.84090145  0.21949319  1
  Y  Y90  1  0.12521614  0.38425467  0.15830982  1
  Y  Y91  1  0.85633936  0.14067383  0.26034896  1
  Y  Y92  1  0.90353022  0.59542140  0.32402772  1
  Y  Y93  1  0.59235201  0.90714532  0.36502156  1
  Y  Y94  1  0.54557811  0.45156827  0.30436225  1
  Y  Y95  1  0.26203881  0.75113299  0.34537584  1
  Y  Y96  1  0.21427897  0.29624195  0.28232954  1
  Y  Y97  1  0.94423060  0.05314498  0.38660072  1
  Y  Y98  1  0.98129156  0.50976624  0.45182436  1
  Y  Y99  1  0.68554284  0.83039456  0.49279483  1
  Y  Y100  1  0.63427656  0.36406881  0.42971543  1
  Y  Y101  1  0.35421050  0.66268505  0.47320325  1
  Y  Y102  1  0.30159357  0.20845325  0.40633064  1
  Y  Y103  1  0.00829142  0.98163602  0.51402310  1
  Cl  Cl104  1  0.98103797  0.35708571  0.12206333  1
  Cl  Cl105  1  0.95452208  0.89209975  0.05426146  1
  Cl  Cl106  1  0.63565236  0.35446935  0.12024760  1
  Cl  Cl107  1  0.61721621  0.89086385  0.05596100  1
  Cl  Cl108  1  0.62362033  0.05137362  0.07739929  1
  Cl  Cl109  1  0.58432827  0.58277120  0.01610721  1
  Cl  Cl110  1  0.27712706  0.20184318  0.09314740  1
  Cl  Cl111  1  0.26168430  0.74069859  0.03506509  1
  Cl  Cl112  1  0.31579202  0.36141354  0.12144224  1
  Cl  Cl113  1  0.29650430  0.88938136  0.05582190  1
  Cl  Cl114  1  0.64858952  0.19164425  0.09577439  1
  Cl  Cl115  1  0.61532034  0.73290484  0.03520054  1
  Cl  Cl116  1  0.95666999  0.21211870  0.09816106  1
  Cl  Cl117  1  0.93934750  0.74687120  0.03369488  1
  Cl  Cl118  1  0.96113140  0.04596095  0.06743311  1
  Cl  Cl119  1  0.30704217  0.04067800  0.07126899  1
  Cl  Cl120  1  0.27283962  0.56907635  0.01411833  1
  Cl  Cl121  1  0.03184064  0.33922978  0.03704775  1
  Cl  Cl122  1  0.20784796  0.80165058  0.10877564  1
  Cl  Cl123  1  0.29954489  0.41857954  0.05000959  1
  Cl  Cl124  1  0.54262978  0.79937293  0.10939667  1
  Cl  Cl125  1  0.52788746  0.64823960  0.08770732  1
  Cl  Cl126  1  0.00044732  0.19899810  0.02200179  1
  Cl  Cl127  1  0.18592647  0.65377884  0.09209434  1
  Cl  Cl128  1  0.87173603  0.64126052  0.09009555  1
  Cl  Cl129  1  0.27927032  0.01021661  0.99441996  1
  Cl  Cl130  1  0.66806629  0.39852403  0.00853850  1
  Cl  Cl131  1  0.88157922  0.80378207  0.10822913  1
  Cl  Cl132  1  0.85888277  0.50419544  0.06271443  1
  Cl  Cl133  1  0.51574766  0.49072050  0.07100242  1
  Cl  Cl134  1  0.07226473  0.26419324  0.24608533  1
  Cl  Cl135  1  0.03263586  0.80808018  0.18301415  1
  Cl  Cl136  1  0.73046140  0.26733156  0.24656954  1
  Cl  Cl137  1  0.68725070  0.81169570  0.18389493  1
  Cl  Cl138  1  0.71043096  0.96341506  0.20451756  1
  Cl  Cl139  1  0.66402580  0.50963852  0.14213258  1
  Cl  Cl140  1  0.37290987  0.12013320  0.22298403  1
  Cl  Cl141  1  0.33280045  0.66504413  0.16118254  1
  Cl  Cl142  1  0.41047188  0.26964125  0.24457591  1
  Cl  Cl143  1  0.36868392  0.81455920  0.18121858  1
  Cl  Cl144  1  0.72440389  0.10878534  0.22181697  1
  Cl  Cl145  1  0.68295418  0.65561241  0.16051759  1
  Cl  Cl146  1  0.05268186  0.11994145  0.22214840  1
  Cl  Cl147  1  0.00996802  0.66681562  0.16173254  1
  Cl  Cl148  1  0.03357324  0.96484364  0.20065239  1
  Cl  Cl149  1  0.98742615  0.51015555  0.13960093  1
  Cl  Cl150  1  0.37774456  0.96206748  0.20019039  1
  Cl  Cl151  1  0.32532157  0.50862599  0.13869035  1
  Cl  Cl152  1  0.23789583  0.25784021  0.17419884  1
  Cl  Cl153  1  0.28166477  0.71657536  0.23810031  1
  Cl  Cl154  1  0.57411266  0.26190326  0.17545793  1
  Cl  Cl155  1  0.61818756  0.71996185  0.23893585  1
  Cl  Cl156  1  0.56298814  0.10287044  0.15220879  1
  Cl  Cl157  1  0.60972923  0.56229998  0.21641664  1
  Cl  Cl158  1  0.21813068  0.11255423  0.15237484  1
  Cl  Cl159  1  0.26344101  0.57246733  0.21706733  1
  Cl  Cl160  1  0.88886554  0.10248759  0.15223685  1
  Cl  Cl161  1  0.93348612  0.56156561  0.21601006  1
  Cl  Cl162  1  0.23387592  0.95197997  0.12961394  1
  Cl  Cl163  1  0.26893911  0.41157982  0.19654212  1
  Cl  Cl164  1  0.90977825  0.26183050  0.17126020  1
  Cl  Cl165  1  0.95612234  0.71913988  0.23494892  1
  Cl  Cl166  1  0.87984219  0.96048485  0.12714150  1
  Cl  Cl167  1  0.91551590  0.41883334  0.19412468  1
  Cl  Cl168  1  0.54735844  0.95407336  0.12739366  1
  Cl  Cl169  1  0.58442959  0.41316649  0.19169788  1
  Cl  Cl170  1  0.16160671  0.17350217  0.37053423  1
  Cl  Cl171  1  0.11921134  0.71902227  0.30965665  1
  Cl  Cl172  1  0.81851085  0.17932502  0.37307327  1
  Cl  Cl173  1  0.77698633  0.72231380  0.30995416  1
  Cl  Cl174  1  0.80279468  0.87304926  0.32984222  1
  Cl  Cl175  1  0.75238207  0.42001997  0.26844586  1
  Cl  Cl176  1  0.46446611  0.03075482  0.34842969  1
  Cl  Cl177  1  0.41875371  0.57596569  0.28706634  1
  Cl  Cl178  1  0.50005903  0.18077085  0.36814663  1
  Cl  Cl179  1  0.45765671  0.72495104  0.30783259  1
  Cl  Cl180  1  0.81670795  0.01961260  0.34766697  1
  Cl  Cl181  1  0.76767808  0.56575449  0.28574006  1
  Cl  Cl182  1  0.14206727  0.03016761  0.34825686  1
  Cl  Cl183  1  0.09856811  0.57516447  0.28599508  1
  Cl  Cl184  1  0.12317418  0.87538515  0.32674104  1
  Cl  Cl185  1  0.07457776  0.42138669  0.26470880  1
  Cl  Cl186  1  0.46580013  0.87240171  0.32593084  1
  Cl  Cl187  1  0.42162867  0.41778078  0.26402585  1
  Cl  Cl188  1  0.32471632  0.17115315  0.29990507  1
  Cl  Cl189  1  0.37131298  0.62715984  0.36412901  1
  Cl  Cl190  1  0.66453678  0.17455219  0.30062634  1
  Cl  Cl191  1  0.70936944  0.63021597  0.36458176  1
  Cl  Cl192  1  0.65661759  0.01729694  0.27864367  1
  Cl  Cl193  1  0.69990194  0.47264213  0.34259080  1
  Cl  Cl194  1  0.30669947  0.02675206  0.27886116  1
  Cl  Cl195  1  0.34929236  0.48331378  0.34285395  1
  Cl  Cl196  1  0.97833324  0.01628081  0.27771631  1
  Cl  Cl197  1  0.02052507  0.47230976  0.34158692  1
  Cl  Cl198  1  0.31509989  0.86710198  0.25710150  1
  Cl  Cl199  1  0.35746418  0.32270390  0.32005240  1
  Cl  Cl200  1  0.99992994  0.17240286  0.29625737  1
  Cl  Cl201  1  0.04517042  0.62862076  0.36024370  1
  Cl  Cl202  1  0.96491229  0.87311509  0.25528725  1
  Cl  Cl203  1  0.00824707  0.32820004  0.31857069  1
  Cl  Cl204  1  0.62905364  0.87021156  0.25500469  1
  Cl  Cl205  1  0.67278074  0.32493511  0.31817335  1
  Cl  Cl206  1  0.27459970  0.08902371  0.50228810  1
  Cl  Cl207  1  0.20862710  0.63236282  0.43774207  1
  Cl  Cl208  1  0.90387887  0.10203926  0.49397871  1
  Cl  Cl209  1  0.86370635  0.63867825  0.43752686  1
  Cl  Cl210  1  0.89644950  0.78931296  0.45649605  1
  Cl  Cl211  1  0.84142072  0.33071689  0.39344905  1
  Cl  Cl212  1  0.56176348  0.95195356  0.47465255  1
  Cl  Cl213  1  0.50165494  0.49016089  0.41265482  1
  Cl  Cl214  1  0.54563711  0.64072375  0.43527290  1
  Cl  Cl215  1  0.90089755  0.93917824  0.47269136  1
  Cl  Cl216  1  0.85121499  0.48032710  0.41235363  1
  Cl  Cl217  1  0.23097903  0.94525650  0.47723363  1
  Cl  Cl218  1  0.17667937  0.49003962  0.41274378  1
  Cl  Cl219  1  0.21902962  0.79110446  0.45608196  1
  Cl  Cl220  1  0.16104458  0.33474623  0.39042209  1
  Cl  Cl221  1  0.54832920  0.79389433  0.45546590  1
  Cl  Cl222  1  0.50577798  0.33054177  0.38916392  1
  Cl  Cl223  1  0.41576696  0.08265601  0.42519145  1
  Cl  Cl224  1  0.46030985  0.54653363  0.49736380  1
  Cl  Cl225  1  0.75087207  0.08387202  0.42601106  1
  Cl  Cl226  1  0.79597883  0.55225784  0.49351199  1
  Cl  Cl227  1  0.75155732  0.92587054  0.40298014  1
  Cl  Cl228  1  0.78865220  0.38047276  0.46643657  1
  Cl  Cl229  1  0.40183881  0.93734208  0.40408260  1
  Cl  Cl230  1  0.44014137  0.40045373  0.46899044  1
  Cl  Cl231  1  0.07173549  0.92725894  0.40353329  1
  Cl  Cl232  1  0.08873239  0.39056708  0.47148658  1
  Cl  Cl233  1  0.40564030  0.77776559  0.38365601  1
  Cl  Cl234  1  0.44597721  0.23145664  0.44333915  1
  Cl  Cl235  1  0.09114949  0.08302765  0.42254614  1
  Cl  Cl236  1  0.13498223  0.54084479  0.48753687  1
  Cl  Cl237  1  0.05708900  0.78395074  0.38193139  1
  Cl  Cl238  1  0.10359613  0.23503687  0.44266245  1
  Cl  Cl239  1  0.71835657  0.78084751  0.38104018  1
  Cl  Cl240  1  0.75197288  0.23815468  0.44457377  1
  Cl  Cl241  1  0.87228160  0.19440806  0.55623308  1
  Cl  Cl242  1  0.70703951  0.58314090  0.57061327  1
  Cl  Cl243  1  0.80177462  0.39444064  0.54254145  1
  Cl  Cl244  1  0.11643801  0.25481660  0.52789575  1
  Cl  Cl245  1  0.54381849  0.17459152  0.51517782  1
  Cl  Cl246  1  0.81888176  0.02354312  0.55108023  1
  Cl  Cl247  1  0.84068290  0.84627665  0.53112402  1
  Cl  Cl248  1  0.48835795  0.86044180  0.52950891  1
  Cl  Cl249  1  0.15088012  0.85223250  0.52968681  1
  Cl  Cl250  1  0.48288578  0.70353759  0.50900859  1
  Cl  Cl251  1  0.15696632  0.01019760  0.54885123  1
  Cl  Cl252  1  0.14601820  0.70088334  0.51051603  1
  Cl  Cl253  1  0.80641767  0.70235223  0.50884314  1
