# generated using pymatgen
data_Li7Y2Cl13
_symmetry_space_group_name_H-M   'P 1'
_cell_length_a   11.17729600
_cell_length_b   23.17126381
_cell_length_c   46.52694700
_cell_angle_alpha   90.00000000
_cell_angle_beta   90.00000000
_cell_angle_gamma   61.15997857
_symmetry_Int_Tables_number   1
_chemical_formula_structural   Li7Y2Cl13
_chemical_formula_sum   'Li84 Y24 Cl156'
_cell_volume   10555.53480816
_cell_formula_units_Z   12
loop_
 _symmetry_equiv_pos_site_id
 _symmetry_equiv_pos_as_xyz
  1  'x, y, z'
loop_
 _atom_site_type_symbol
 _atom_site_label
 _atom_site_symmetry_multiplicity
 _atom_site_fract_x
 _atom_site_fract_y
 _atom_site_fract_z
 _atom_site_occupancy
  Li  Li0  1  0.72151051  0.26729662  0.05424959  1
  Li  Li1  1  0.09110915  0.58873382  0.07308524  1
  Li  Li2  1  0.79703780  0.36862164  0.03118067  1
  Li  Li3  1  0.08769635  0.75030825  0.10027776  1
  Li  Li4  1  0.75381405  0.09510250  0.01112002  1
  Li  Li5  1  0.74881797  0.58877306  0.07802112  1
  Li  Li6  1  0.76315013  0.40275291  0.11153025  1
  Li  Li7  1  0.72877367  0.94950564  0.07052974  1
  Li  Li8  1  0.41463520  0.90848187  0.04680424  1
  Li  Li9  1  0.41752926  0.41147085  0.10749694  1
  Li  Li10  1  0.77882554  0.07631607  0.07171203  1
  Li  Li11  1  0.71538589  0.63905567  0.02275508  1
  Li  Li12  1  0.07111071  0.26912555  0.09855572  1
  Li  Li13  1  0.05016920  0.79160168  0.04316334  1
  Li  Li14  1  0.40043019  0.26766816  0.10409734  1
  Li  Li15  1  0.38278093  0.79396617  0.04673127  1
  Li  Li16  1  0.42612084  0.91556800  0.11897626  1
  Li  Li17  1  0.45247605  0.37268490  0.03070656  1
  Li  Li18  1  0.11228809  0.06566007  0.14030278  1
  Li  Li19  1  0.15883267  0.51787598  0.20250408  1
  Li  Li20  1  0.12224378  0.21416418  0.16132352  1
  Li  Li21  1  0.16961765  0.66905724  0.22487453  1
  Li  Li22  1  0.77569798  0.06900862  0.14064060  1
  Li  Li23  1  0.82333050  0.51879451  0.20363361  1
  Li  Li24  1  0.85091341  0.32269300  0.24234032  1
  Li  Li25  1  0.81076766  0.86731394  0.18679082  1
  Li  Li26  1  0.46634142  0.87308651  0.18353851  1
  Li  Li27  1  0.50558280  0.32811065  0.24546026  1
  Li  Li28  1  0.83544392  0.02136337  0.20376231  1
  Li  Li29  1  0.78999084  0.55421237  0.13924249  1
  Li  Li30  1  0.16786266  0.16548233  0.22417363  1
  Li  Li31  1  0.13558780  0.69843902  0.15979179  1
  Li  Li32  1  0.50418886  0.17124182  0.22553179  1
  Li  Li33  1  0.46527152  0.70856675  0.16553124  1
  Li  Li34  1  0.51766998  0.82368581  0.24574067  1
  Li  Li35  1  0.46756255  0.37039407  0.18014562  1
  Li  Li36  1  0.19947853  0.97484470  0.26665254  1
  Li  Li37  1  0.24429585  0.42820797  0.32956649  1
  Li  Li38  1  0.21513504  0.12453859  0.28774078  1
  Li  Li39  1  0.26099421  0.57960419  0.35002102  1
  Li  Li40  1  0.86887791  0.97468863  0.26656508  1
  Li  Li41  1  0.91417471  0.42859663  0.32943988  1
  Li  Li42  1  0.94205722  0.23155704  0.37031151  1
  Li  Li43  1  0.89471676  0.78018508  0.30724768  1
  Li  Li44  1  0.54990641  0.78474865  0.30944626  1
  Li  Li45  1  0.59660717  0.23712516  0.37136463  1
  Li  Li46  1  0.92324111  0.92918558  0.32920636  1
  Li  Li47  1  0.87885749  0.47421108  0.26666042  1
  Li  Li48  1  0.25797469  0.07500267  0.35044338  1
  Li  Li49  1  0.21608417  0.61856142  0.28619928  1
  Li  Li50  1  0.59231503  0.08004792  0.35376953  1
  Li  Li51  1  0.55100935  0.62378489  0.28889190  1
  Li  Li52  1  0.60554736  0.73343308  0.37092204  1
  Li  Li53  1  0.56063357  0.27860135  0.30811690  1
  Li  Li54  1  0.29122948  0.88513927  0.39267784  1
  Li  Li55  1  0.34005607  0.33814196  0.45550050  1
  Li  Li56  1  0.30505432  0.03257671  0.41562871  1
  Li  Li57  1  0.35461840  0.48736148  0.47636522  1
  Li  Li58  1  0.95800573  0.88255214  0.39246051  1
  Li  Li59  1  0.01121075  0.33292335  0.45551822  1
  Li  Li60  1  0.03216786  0.13547523  0.49159698  1
  Li  Li61  1  0.98042596  0.69444477  0.43070906  1
  Li  Li62  1  0.62961663  0.70466665  0.43577020  1
  Li  Li63  1  0.70550650  0.13434579  0.49754186  1
  Li  Li64  1  0.99602406  0.84979502  0.45701338  1
  Li  Li65  1  0.97286428  0.38169542  0.39240717  1
  Li  Li66  1  0.33686877  0.99236943  0.48872639  1
  Li  Li67  1  0.30879723  0.53010988  0.41220258  1
  Li  Li68  1  0.66363484  0.00144344  0.48356079  1
  Li  Li69  1  0.64156734  0.53622038  0.40910686  1
  Li  Li70  1  0.68829777  0.65268426  0.49519359  1
  Li  Li71  1  0.64743584  0.18852764  0.43439192  1
  Li  Li72  1  0.36510290  0.81485373  0.52234557  1
  Li  Li73  1  0.35345623  0.13624550  0.54216073  1
  Li  Li74  1  0.29648270  0.02980461  0.56536183  1
  Li  Li75  1  0.02280184  0.81481202  0.51814901  1
  Li  Li76  1  0.04222060  0.31018022  0.58511090  1
  Li  Li77  1  0.06687363  0.60982697  0.54820119  1
  Li  Li78  1  0.73027286  0.61146149  0.55195195  1
  Li  Li79  1  0.09029213  0.76425361  0.57307849  1
  Li  Li80  1  0.03042217  0.32637740  0.52431809  1
  Li  Li81  1  0.32939705  0.49506853  0.54838299  1
  Li  Li82  1  0.72651905  0.45355710  0.52506726  1
  Li  Li83  1  0.63285450  0.03428216  0.56453494  1
  Y  Y84  1  0.41264334  0.59768436  0.07519510  1
  Y  Y85  1  0.74835368  0.75654601  0.09853459  1
  Y  Y86  1  0.06486904  0.43570306  0.05249262  1
  Y  Y87  1  0.09945135  0.90420675  0.12220262  1
  Y  Y88  1  0.44700112  0.06429745  0.14214121  1
  Y  Y89  1  0.49832350  0.51748781  0.20411512  1
  Y  Y90  1  0.78130283  0.21895225  0.16189724  1
  Y  Y91  1  0.82840339  0.67368880  0.22508046  1
  Y  Y92  1  0.13843585  0.36291939  0.18265428  1
  Y  Y93  1  0.18528167  0.81819621  0.24476246  1
  Y  Y94  1  0.54109025  0.97457588  0.26672044  1
  Y  Y95  1  0.58655781  0.42862330  0.32906845  1
  Y  Y96  1  0.87260243  0.12983604  0.28815245  1
  Y  Y97  1  0.91883990  0.58486897  0.35103068  1
  Y  Y98  1  0.22891780  0.27324086  0.30774232  1
  Y  Y99  1  0.27299797  0.72923526  0.37065961  1
  Y  Y100  1  0.62976422  0.88551627  0.39187103  1
  Y  Y101  1  0.67260709  0.33864777  0.45359764  1
  Y  Y102  1  0.96114341  0.03970682  0.41319705  1
  Y  Y103  1  0.00519774  0.49862427  0.47318788  1
  Y  Y104  1  0.31611571  0.18406813  0.43386947  1
  Y  Y105  1  0.35872310  0.64686401  0.49709758  1
  Y  Y106  1  0.70474425  0.80584745  0.52047340  1
  Y  Y107  1  0.03317710  0.96767379  0.54351269  1
  Cl  Cl108  1  0.18847164  0.47709451  0.08989999  1
  Cl  Cl109  1  0.85524818  0.31544189  0.07561489  1
  Cl  Cl110  1  0.20642706  0.63522811  0.11249966  1
  Cl  Cl111  1  0.79024941  0.15517072  0.04259301  1
  Cl  Cl112  1  0.87089694  0.63158280  0.11082239  1
  Cl  Cl113  1  0.50088701  0.32022793  0.07548080  1
  Cl  Cl114  1  0.37492728  0.85980571  0.01014449  1
  Cl  Cl115  1  0.18923537  0.31335715  0.07178463  1
  Cl  Cl116  1  0.55716354  0.62776579  0.11315213  1
  Cl  Cl117  1  0.53244529  0.47422561  0.09192621  1
  Cl  Cl118  1  0.74945642  0.01047586  0.03214121  1
  Cl  Cl119  1  0.86368919  0.47616648  0.09485790  1
  Cl  Cl120  1  0.23883206  0.41567705  0.01242997  1
  Cl  Cl121  1  0.29385820  0.88337655  0.08350915  1
  Cl  Cl122  1  0.31244688  0.18627647  0.12189892  1
  Cl  Cl123  1  0.27341963  0.72998619  0.05725712  1
  Cl  Cl124  1  0.65918910  0.18300040  0.12309359  1
  Cl  Cl125  1  0.62570906  0.72723805  0.05576428  1
  Cl  Cl126  1  0.61401377  0.88349047  0.07613769  1
  Cl  Cl127  1  0.64537638  0.03848482  0.10386775  1
  Cl  Cl128  1  0.59982707  0.58410602  0.03735336  1
  Cl  Cl129  1  0.90686454  0.42259455  0.01557897  1
  Cl  Cl130  1  0.97125005  0.87412000  0.07962593  1
  Cl  Cl131  1  0.31252016  0.03151079  0.10492240  1
  Cl  Cl132  1  0.26269054  0.57921009  0.03921998  1
  Cl  Cl133  1  0.97300862  0.02817229  0.10401160  1
  Cl  Cl134  1  0.93150272  0.56951822  0.03985297  1
  Cl  Cl135  1  0.66462089  0.33025738  0.01099219  1
  Cl  Cl136  1  0.94504735  0.73335901  0.05991524  1
  Cl  Cl137  1  0.24033754  0.93919086  0.15599459  1
  Cl  Cl138  1  0.28170115  0.39580250  0.21801847  1
  Cl  Cl139  1  0.24418389  0.09451445  0.17795076  1
  Cl  Cl140  1  0.28989292  0.55147778  0.24027546  1
  Cl  Cl141  1  0.91321356  0.09025453  0.17591962  1
  Cl  Cl142  1  0.95537658  0.54763718  0.23915713  1
  Cl  Cl143  1  0.58777783  0.24931170  0.20097313  1
  Cl  Cl144  1  0.55005874  0.79362249  0.13559488  1
  Cl  Cl145  1  0.25929616  0.23815280  0.19936812  1
  Cl  Cl146  1  0.22043852  0.77868842  0.13578087  1
  Cl  Cl147  1  0.59675928  0.08846441  0.17917046  1
  Cl  Cl148  1  0.64017904  0.54574757  0.24216200  1
  Cl  Cl149  1  0.56623749  0.93694574  0.15742020  1
  Cl  Cl150  1  0.60855317  0.39323946  0.22212578  1
  Cl  Cl151  1  0.90090327  0.93906513  0.15963619  1
  Cl  Cl152  1  0.94511072  0.39705829  0.22289821  1
  Cl  Cl153  1  0.93752568  0.23890548  0.20062584  1
  Cl  Cl154  1  0.90016906  0.78015920  0.13497229  1
  Cl  Cl155  1  0.33103391  0.34359354  0.14470272  1
  Cl  Cl156  1  0.38140246  0.79717764  0.20626145  1
  Cl  Cl157  1  0.40280124  0.09865225  0.24842026  1
  Cl  Cl158  1  0.35838229  0.64324835  0.18565039  1
  Cl  Cl159  1  0.74829211  0.09529382  0.24779496  1
  Cl  Cl160  1  0.70409599  0.64062385  0.18432635  1
  Cl  Cl161  1  0.65511978  0.34162905  0.14445598  1
  Cl  Cl162  1  0.70177999  0.79819957  0.20706997  1
  Cl  Cl163  1  0.73753422  0.94785613  0.22851987  1
  Cl  Cl164  1  0.69255670  0.49299359  0.16681402  1
  Cl  Cl165  1  0.00556710  0.33139702  0.14418603  1
  Cl  Cl166  1  0.05079097  0.78773358  0.20620803  1
  Cl  Cl167  1  0.40157713  0.94147655  0.23006862  1
  Cl  Cl168  1  0.35423290  0.48862104  0.16815809  1
  Cl  Cl169  1  0.05830217  0.94491857  0.23056000  1
  Cl  Cl170  1  0.01141519  0.48930199  0.16787446  1
  Cl  Cl171  1  0.99214814  0.18435694  0.12657948  1
  Cl  Cl172  1  0.03597418  0.64174024  0.18893763  1
  Cl  Cl173  1  0.32754961  0.85080713  0.28062124  1
  Cl  Cl174  1  0.37151742  0.30584305  0.34368566  1
  Cl  Cl175  1  0.33531732  0.00565711  0.30264716  1
  Cl  Cl176  1  0.38085322  0.46172373  0.36574834  1
  Cl  Cl177  1  0.00039666  0.00266599  0.30207088  1
  Cl  Cl178  1  0.04455910  0.45814561  0.36529628  1
  Cl  Cl179  1  0.67708698  0.16019861  0.32643844  1
  Cl  Cl180  1  0.63335322  0.70542223  0.26343569  1
  Cl  Cl181  1  0.34812668  0.14960385  0.32515224  1
  Cl  Cl182  1  0.30368473  0.69468321  0.26238510  1
  Cl  Cl183  1  0.68654182  0.99963421  0.30406463  1
  Cl  Cl184  1  0.72961893  0.45522828  0.36731558  1
  Cl  Cl185  1  0.65260109  0.84918730  0.28440380  1
  Cl  Cl186  1  0.69683912  0.30450536  0.34751205  1
  Cl  Cl187  1  0.99157107  0.85225127  0.28481778  1
  Cl  Cl188  1  0.03549858  0.30766992  0.34806235  1
  Cl  Cl189  1  0.02689236  0.15012786  0.32630578  1
  Cl  Cl190  1  0.98176505  0.69528506  0.26310265  1
  Cl  Cl191  1  0.42379756  0.25317244  0.26953174  1
  Cl  Cl192  1  0.46960825  0.70783883  0.33265132  1
  Cl  Cl193  1  0.49138936  0.00978286  0.37381947  1
  Cl  Cl194  1  0.44763120  0.55405191  0.31151142  1
  Cl  Cl195  1  0.83544182  0.00582930  0.37310404  1
  Cl  Cl196  1  0.79280599  0.55100810  0.31105811  1
  Cl  Cl197  1  0.74451205  0.25342389  0.27075436  1
  Cl  Cl198  1  0.79012166  0.70843768  0.33353117  1
  Cl  Cl199  1  0.82786073  0.85747136  0.35369259  1
  Cl  Cl200  1  0.78239635  0.40362471  0.29179223  1
  Cl  Cl201  1  0.09481696  0.24270681  0.26932960  1
  Cl  Cl202  1  0.14077629  0.69763644  0.33241530  1
  Cl  Cl203  1  0.48994911  0.85152693  0.35554700  1
  Cl  Cl204  1  0.44323235  0.39740415  0.29323773  1
  Cl  Cl205  1  0.14710174  0.85528806  0.35657809  1
  Cl  Cl206  1  0.10245332  0.40033735  0.29384546  1
  Cl  Cl207  1  0.08052253  0.09706263  0.25225132  1
  Cl  Cl208  1  0.12578752  0.55232302  0.31513876  1
  Cl  Cl209  1  0.41643813  0.76134573  0.40676229  1
  Cl  Cl210  1  0.45773089  0.21882014  0.46907792  1
  Cl  Cl211  1  0.42742595  0.91445720  0.42757827  1
  Cl  Cl212  1  0.47214614  0.37176286  0.49074087  1
  Cl  Cl213  1  0.08745006  0.91334233  0.42786446  1
  Cl  Cl214  1  0.12608079  0.37484162  0.49163478  1
  Cl  Cl215  1  0.76536052  0.07145600  0.45176472  1
  Cl  Cl216  1  0.72323431  0.61549435  0.38961414  1
  Cl  Cl217  1  0.43573324  0.06130569  0.45139598  1
  Cl  Cl218  1  0.39521195  0.60486880  0.38874774  1
  Cl  Cl219  1  0.77563511  0.90977865  0.42915404  1
  Cl  Cl220  1  0.81956031  0.36382948  0.49216012  1
  Cl  Cl221  1  0.74230717  0.75986329  0.41024366  1
  Cl  Cl222  1  0.78179993  0.21671581  0.47383596  1
  Cl  Cl223  1  0.08276875  0.76222346  0.41142914  1
  Cl  Cl224  1  0.12275473  0.21949093  0.47286876  1
  Cl  Cl225  1  0.11493343  0.05928259  0.45117193  1
  Cl  Cl226  1  0.07279428  0.60591741  0.38951365  1
  Cl  Cl227  1  0.51235484  0.16388415  0.39517792  1
  Cl  Cl228  1  0.55782889  0.62312955  0.46065592  1
  Cl  Cl229  1  0.57788765  0.92925656  0.50382769  1
  Cl  Cl230  1  0.53714727  0.46592271  0.43818584  1
  Cl  Cl231  1  0.91256105  0.92738369  0.50110549  1
  Cl  Cl232  1  0.87531592  0.46382374  0.43604567  1
  Cl  Cl233  1  0.83264660  0.16450994  0.39639044  1
  Cl  Cl234  1  0.87594124  0.62416445  0.45960266  1
  Cl  Cl235  1  0.91023901  0.77545497  0.48272607  1
  Cl  Cl236  1  0.87123248  0.31415920  0.41667600  1
  Cl  Cl237  1  0.18307560  0.15341355  0.39496747  1
  Cl  Cl238  1  0.23441103  0.60965473  0.46002332  1
  Cl  Cl239  1  0.57483419  0.76783269  0.48310450  1
  Cl  Cl240  1  0.53057320  0.30840854  0.41775860  1
  Cl  Cl241  1  0.23123904  0.77207027  0.48506245  1
  Cl  Cl242  1  0.19022418  0.31268959  0.41997258  1
  Cl  Cl243  1  0.16959957  0.00726955  0.37770733  1
  Cl  Cl244  1  0.21606408  0.46361263  0.43939993  1
  Cl  Cl245  1  0.50889092  0.66994410  0.53569834  1
  Cl  Cl246  1  0.42425544  0.07209619  0.58498721  1
  Cl  Cl247  1  0.51783799  0.82392747  0.55636063  1
  Cl  Cl248  1  0.16708478  0.83383409  0.55609988  1
  Cl  Cl249  1  0.84961335  0.98097299  0.58066217  1
  Cl  Cl250  1  0.81686991  0.52906935  0.51570503  1
  Cl  Cl251  1  0.47904194  0.51964365  0.51915106  1
  Cl  Cl252  1  0.86467742  0.81911994  0.55848868  1
  Cl  Cl253  1  0.83012681  0.67332350  0.53807955  1
  Cl  Cl254  1  0.17743684  0.67624193  0.53987031  1
  Cl  Cl255  1  0.16820841  0.98712358  0.58351378  1
  Cl  Cl256  1  0.15770557  0.51959807  0.51179599  1
  Cl  Cl257  1  0.86859021  0.39358579  0.56359817  1
  Cl  Cl258  1  0.91190305  0.09013267  0.52431230  1
  Cl  Cl259  1  0.23732577  0.08351533  0.52076607  1
  Cl  Cl260  1  0.19095398  0.54378915  0.58489717  1
  Cl  Cl261  1  0.58189155  0.08795773  0.52016657  1
  Cl  Cl262  1  0.19898854  0.24873828  0.55380749  1
  Cl  Cl263  1  0.23904462  0.92650519  0.50592864  1
