# generated using pymatgen
data_Li7Y2Cl13
_symmetry_space_group_name_H-M   'P 1'
_cell_length_a   11.17729600
_cell_length_b   23.17126381
_cell_length_c   46.52694700
_cell_angle_alpha   90.00000000
_cell_angle_beta   90.00000000
_cell_angle_gamma   61.15997857
_symmetry_Int_Tables_number   1
_chemical_formula_structural   Li7Y2Cl13
_chemical_formula_sum   'Li84 Y24 Cl156'
_cell_volume   10555.53480816
_cell_formula_units_Z   12
loop_
 _symmetry_equiv_pos_site_id
 _symmetry_equiv_pos_as_xyz
  1  'x, y, z'
loop_
 _atom_site_type_symbol
 _atom_site_label
 _atom_site_symmetry_multiplicity
 _atom_site_fract_x
 _atom_site_fract_y
 _atom_site_fract_z
 _atom_site_occupancy
  Li  Li0  1  0.94039302  0.19232159  0.05847085  1
  Li  Li1  1  0.07465727  0.59786535  0.06686257  1
  Li  Li2  1  0.01503767  0.30117064  0.03075305  1
  Li  Li3  1  0.08506601  0.75841168  0.08677910  1
  Li  Li4  1  0.73685761  0.07070866  0.02291661  1
  Li  Li5  1  0.74438130  0.59168074  0.06852904  1
  Li  Li6  1  0.74706066  0.40763744  0.09545524  1
  Li  Li7  1  0.71484115  0.95442558  0.06680942  1
  Li  Li8  1  0.39577945  0.91819885  0.04072321  1
  Li  Li9  1  0.38603276  0.43298345  0.11493828  1
  Li  Li10  1  0.64774246  0.17921042  0.06284531  1
  Li  Li11  1  0.70718845  0.64308235  0.01336467  1
  Li  Li12  1  0.05784980  0.26918909  0.09198164  1
  Li  Li13  1  0.91338913  0.85168724  0.03117802  1
  Li  Li14  1  0.32068393  0.18904287  0.05901668  1
  Li  Li15  1  0.37422410  0.79795514  0.03942513  1
  Li  Li16  1  0.42329621  0.91508317  0.11237323  1
  Li  Li17  1  0.34654142  0.47086099  0.04290516  1
  Li  Li18  1  0.10740794  0.06434590  0.13266450  1
  Li  Li19  1  0.14528751  0.52411096  0.19618506  1
  Li  Li20  1  0.12186900  0.21801210  0.15286806  1
  Li  Li21  1  0.16013439  0.67543410  0.21618704  1
  Li  Li22  1  0.77237608  0.07584477  0.12886813  1
  Li  Li23  1  0.81461413  0.52395871  0.19510690  1
  Li  Li24  1  0.84342527  0.32910140  0.23410246  1
  Li  Li25  1  0.80276303  0.87428791  0.17956949  1
  Li  Li26  1  0.46273687  0.87752757  0.17726702  1
  Li  Li27  1  0.49625587  0.33321201  0.23773389  1
  Li  Li28  1  0.82457416  0.02790848  0.19494128  1
  Li  Li29  1  0.78441913  0.55622538  0.13119516  1
  Li  Li30  1  0.16011136  0.17023244  0.21620658  1
  Li  Li31  1  0.12642941  0.70564906  0.14976352  1
  Li  Li32  1  0.49582439  0.17385752  0.21678748  1
  Li  Li33  1  0.44894702  0.71935343  0.16009406  1
  Li  Li34  1  0.50939856  0.82881249  0.23896255  1
  Li  Li35  1  0.45706972  0.37391172  0.17399180  1
  Li  Li36  1  0.19102014  0.98011828  0.25905788  1
  Li  Li37  1  0.23507369  0.43449062  0.32102257  1
  Li  Li38  1  0.20386329  0.13070586  0.27995485  1
  Li  Li39  1  0.25234066  0.58557810  0.34135053  1
  Li  Li40  1  0.85997772  0.98086461  0.25896803  1
  Li  Li41  1  0.90663758  0.43372033  0.32088152  1
  Li  Li42  1  0.92975369  0.24018263  0.36286295  1
  Li  Li43  1  0.88827990  0.78337970  0.29868351  1
  Li  Li44  1  0.53970314  0.79075802  0.30224234  1
  Li  Li45  1  0.58618709  0.24423825  0.36425564  1
  Li  Li46  1  0.91356346  0.93613797  0.32217156  1
  Li  Li47  1  0.87268564  0.47785604  0.25777135  1
  Li  Li48  1  0.24878319  0.08038768  0.34212999  1
  Li  Li49  1  0.20713691  0.62417327  0.27781802  1
  Li  Li50  1  0.58773860  0.08502916  0.34622475  1
  Li  Li51  1  0.53962999  0.63151672  0.28157944  1
  Li  Li52  1  0.59635229  0.73894030  0.36384045  1
  Li  Li53  1  0.55176052  0.28281638  0.30002087  1
  Li  Li54  1  0.27930194  0.89048458  0.38472111  1
  Li  Li55  1  0.32151161  0.34980741  0.44789566  1
  Li  Li56  1  0.28916113  0.04133537  0.40613420  1
  Li  Li57  1  0.34041635  0.49941745  0.46818658  1
  Li  Li58  1  0.94876447  0.89017903  0.38516346  1
  Li  Li59  1  0.00847143  0.33905522  0.45103820  1
  Li  Li60  1  0.78219542  0.22721122  0.52096077  1
  Li  Li61  1  0.97371623  0.69497984  0.41983342  1
  Li  Li62  1  0.62463460  0.70767291  0.43039771  1
  Li  Li63  1  0.68068841  0.14572712  0.48853544  1
  Li  Li64  1  0.98068909  0.85880023  0.44952959  1
  Li  Li65  1  0.96708263  0.38613116  0.38463313  1
  Li  Li66  1  0.33586091  0.98135410  0.46498060  1
  Li  Li67  1  0.30309004  0.53677624  0.40315551  1
  Li  Li68  1  0.64794091  0.00711663  0.48525228  1
  Li  Li69  1  0.63691542  0.53953021  0.40007091  1
  Li  Li70  1  0.68637064  0.65630968  0.49383856  1
  Li  Li71  1  0.64284911  0.19643686  0.42720444  1
  Li  Li72  1  0.35852725  0.81683609  0.51264270  1
  Li  Li73  1  0.40877900  0.22337860  0.52097802  1
  Li  Li74  1  0.37409940  0.94315300  0.53758762  1
  Li  Li75  1  0.01507814  0.82240179  0.51201132  1
  Li  Li76  1  0.96477820  0.34384099  0.55711219  1
  Li  Li77  1  0.05534851  0.61741741  0.54073492  1
  Li  Li78  1  0.70256439  0.56249149  0.54942485  1
  Li  Li79  1  0.07904029  0.77189691  0.56714897  1
  Li  Li80  1  0.09269002  0.23475128  0.51723106  1
  Li  Li81  1  0.31756801  0.49727106  0.53947580  1
  Li  Li82  1  0.71132104  0.46038509  0.51287125  1
  Li  Li83  1  0.70166531  0.11370503  0.54968435  1
  Y  Y84  1  0.40350241  0.60797147  0.06486701  1
  Y  Y85  1  0.74293426  0.76075816  0.08992786  1
  Y  Y86  1  0.06443168  0.43802451  0.04269011  1
  Y  Y87  1  0.09678880  0.90788373  0.11747836  1
  Y  Y88  1  0.44330726  0.06568700  0.13507686  1
  Y  Y89  1  0.49162042  0.52338761  0.19619088  1
  Y  Y90  1  0.77148177  0.22702659  0.15326781  1
  Y  Y91  1  0.81916402  0.67904297  0.21697259  1
  Y  Y92  1  0.13423097  0.36766402  0.17348353  1
  Y  Y93  1  0.17525525  0.82407668  0.23779691  1
  Y  Y94  1  0.53271700  0.98024556  0.25971897  1
  Y  Y95  1  0.57848805  0.43387940  0.32018167  1
  Y  Y96  1  0.86371573  0.13554972  0.28039068  1
  Y  Y97  1  0.90855822  0.59039795  0.34226374  1
  Y  Y98  1  0.22146750  0.27833188  0.29955695  1
  Y  Y99  1  0.26270951  0.73545334  0.36323323  1
  Y  Y100  1  0.62409379  0.89092691  0.38385668  1
  Y  Y101  1  0.66049770  0.34865527  0.44486390  1
  Y  Y102  1  0.95438589  0.04675207  0.40667764  1
  Y  Y103  1  0.99834369  0.50661417  0.46272091  1
  Y  Y104  1  0.31026687  0.18750944  0.42676566  1
  Y  Y105  1  0.35025549  0.65400946  0.49033395  1
  Y  Y106  1  0.70568710  0.80670568  0.51528289  1
  Y  Y107  1  0.02571760  0.97665684  0.53760804  1
  Cl  Cl108  1  0.19011743  0.48099080  0.08164613  1
  Cl  Cl109  1  0.13608051  0.18612169  0.03911792  1
  Cl  Cl110  1  0.19851666  0.63972061  0.10188658  1
  Cl  Cl111  1  0.84363712  0.13481160  0.03693294  1
  Cl  Cl112  1  0.87182569  0.63303572  0.10047412  1
  Cl  Cl113  1  0.37816969  0.86290543  0.00402369  1
  Cl  Cl114  1  0.17684678  0.31744295  0.06382135  1
  Cl  Cl115  1  0.51669280  0.15339197  0.03406203  1
  Cl  Cl116  1  0.55853606  0.62397940  0.10352475  1
  Cl  Cl117  1  0.50859935  0.47720344  0.07844848  1
  Cl  Cl118  1  0.76667561  0.96109787  0.01913353  1
  Cl  Cl119  1  0.86267557  0.47684903  0.08444007  1
  Cl  Cl120  1  0.84483999  0.31498103  0.06530007  1
  Cl  Cl121  1  0.27709181  0.41367973  0.01272999  1
  Cl  Cl122  1  0.28821530  0.88442016  0.07760206  1
  Cl  Cl123  1  0.30316018  0.18596846  0.11254667  1
  Cl  Cl124  1  0.26664914  0.73276617  0.04881329  1
  Cl  Cl125  1  0.65265832  0.19237089  0.11296912  1
  Cl  Cl126  1  0.62144474  0.72578103  0.04854588  1
  Cl  Cl127  1  0.60164861  0.88730682  0.07057921  1
  Cl  Cl128  1  0.63776657  0.04304701  0.09756243  1
  Cl  Cl129  1  0.59772744  0.58384879  0.02716168  1
  Cl  Cl130  1  0.94561283  0.40089207  0.00606666  1
  Cl  Cl131  1  0.96181651  0.87944576  0.07757702  1
  Cl  Cl132  1  0.31015242  0.03116099  0.09830668  1
  Cl  Cl133  1  0.25038359  0.58244648  0.02983243  1
  Cl  Cl134  1  0.97879264  0.02937121  0.09981031  1
  Cl  Cl135  1  0.92913332  0.56924368  0.02906863  1
  Cl  Cl136  1  0.98315127  0.18778339  0.11642815  1
  Cl  Cl137  1  0.92477840  0.74959080  0.04951806  1
  Cl  Cl138  1  0.24263970  0.94073085  0.15111676  1
  Cl  Cl139  1  0.27170527  0.40182171  0.21052956  1
  Cl  Cl140  1  0.23322415  0.10042682  0.17005972  1
  Cl  Cl141  1  0.28169607  0.55635453  0.23169489  1
  Cl  Cl142  1  0.89814599  0.09980391  0.16796745  1
  Cl  Cl143  1  0.94725454  0.55263777  0.23096701  1
  Cl  Cl144  1  0.57993891  0.25577512  0.19223443  1
  Cl  Cl145  1  0.55009079  0.79387386  0.12834815  1
  Cl  Cl146  1  0.25333577  0.24322114  0.19091680  1
  Cl  Cl147  1  0.22159364  0.77967558  0.12924243  1
  Cl  Cl148  1  0.58647165  0.09599276  0.17154072  1
  Cl  Cl149  1  0.63268272  0.55096585  0.23373850  1
  Cl  Cl150  1  0.56462843  0.93923178  0.15125908  1
  Cl  Cl151  1  0.59878834  0.39868013  0.21331515  1
  Cl  Cl152  1  0.89524726  0.94296817  0.15450080  1
  Cl  Cl153  1  0.93817017  0.40244433  0.21400898  1
  Cl  Cl154  1  0.92927398  0.24575384  0.19126048  1
  Cl  Cl155  1  0.89824031  0.78021452  0.12645619  1
  Cl  Cl156  1  0.32428466  0.35280478  0.13699817  1
  Cl  Cl157  1  0.37490019  0.80193135  0.19991026  1
  Cl  Cl158  1  0.39388333  0.10388981  0.24078814  1
  Cl  Cl159  1  0.34972297  0.64783194  0.17736751  1
  Cl  Cl160  1  0.73967581  0.10077645  0.24019533  1
  Cl  Cl161  1  0.69508809  0.64608257  0.17613625  1
  Cl  Cl162  1  0.64156957  0.34958344  0.13426055  1
  Cl  Cl163  1  0.69418415  0.80384706  0.20027268  1
  Cl  Cl164  1  0.72857270  0.95371244  0.22176514  1
  Cl  Cl165  1  0.68408114  0.49768424  0.15850207  1
  Cl  Cl166  1  0.00197933  0.33426985  0.13578034  1
  Cl  Cl167  1  0.04309476  0.79331635  0.19899872  1
  Cl  Cl168  1  0.39352833  0.94671567  0.22327249  1
  Cl  Cl169  1  0.34397940  0.49509706  0.15952646  1
  Cl  Cl170  1  0.05054067  0.95047660  0.22350372  1
  Cl  Cl171  1  0.00211271  0.49511267  0.15930904  1
  Cl  Cl172  1  0.07162444  0.10269054  0.24442399  1
  Cl  Cl173  1  0.02671410  0.64728197  0.18095731  1
  Cl  Cl174  1  0.31900438  0.85596585  0.27371916  1
  Cl  Cl175  1  0.36301107  0.31137036  0.33553617  1
  Cl  Cl176  1  0.32546478  0.01160412  0.29531872  1
  Cl  Cl177  1  0.37282717  0.46751424  0.35674188  1
  Cl  Cl178  1  0.99118857  0.00867056  0.29460849  1
  Cl  Cl179  1  0.03679569  0.46376610  0.35646094  1
  Cl  Cl180  1  0.66894887  0.16576224  0.31895956  1
  Cl  Cl181  1  0.62585934  0.71032330  0.25587064  1
  Cl  Cl182  1  0.33944651  0.15517019  0.31751460  1
  Cl  Cl183  1  0.29598718  0.69951163  0.25427996  1
  Cl  Cl184  1  0.67735561  0.00584903  0.29718954  1
  Cl  Cl185  1  0.72194360  0.46019047  0.35816579  1
  Cl  Cl186  1  0.64394785  0.85485063  0.27742522  1
  Cl  Cl187  1  0.68742546  0.31026629  0.33922629  1
  Cl  Cl188  1  0.98222887  0.85807145  0.27773964  1
  Cl  Cl189  1  0.02767028  0.31308644  0.33973601  1
  Cl  Cl190  1  0.01812019  0.15608176  0.31855703  1
  Cl  Cl191  1  0.97365647  0.70026949  0.25509372  1
  Cl  Cl192  1  0.41715458  0.25740583  0.26139354  1
  Cl  Cl193  1  0.45972518  0.71409909  0.32511939  1
  Cl  Cl194  1  0.48187551  0.01574046  0.36673879  1
  Cl  Cl195  1  0.43922207  0.55945469  0.30265991  1
  Cl  Cl196  1  0.82867068  0.01180827  0.36607743  1
  Cl  Cl197  1  0.78380245  0.55632575  0.30228571  1
  Cl  Cl198  1  0.73586267  0.25876651  0.26243959  1
  Cl  Cl199  1  0.78026720  0.71478041  0.32572836  1
  Cl  Cl200  1  0.82050050  0.86324262  0.34629140  1
  Cl  Cl201  1  0.77515532  0.40824744  0.28278847  1
  Cl  Cl202  1  0.08652047  0.24828481  0.26103362  1
  Cl  Cl203  1  0.13246169  0.70400476  0.32424461  1
  Cl  Cl204  1  0.47989744  0.85806636  0.34839565  1
  Cl  Cl205  1  0.43440554  0.40238485  0.28465977  1
  Cl  Cl206  1  0.13798757  0.86177314  0.34930033  1
  Cl  Cl207  1  0.09485035  0.40533702  0.28532996  1
  Cl  Cl208  1  0.16079796  0.01243744  0.36978032  1
  Cl  Cl209  1  0.11634438  0.55851710  0.30653016  1
  Cl  Cl210  1  0.40705984  0.76712822  0.39923673  1
  Cl  Cl211  1  0.44406439  0.22658113  0.46368397  1
  Cl  Cl212  1  0.41980145  0.91934272  0.42059453  1
  Cl  Cl213  1  0.45860838  0.38305007  0.48178600  1
  Cl  Cl214  1  0.07734071  0.91934736  0.42106171  1
  Cl  Cl215  1  0.12266283  0.38503129  0.48041583  1
  Cl  Cl216  1  0.75547530  0.08033054  0.44440076  1
  Cl  Cl217  1  0.71521660  0.62102952  0.38118709  1
  Cl  Cl218  1  0.42539773  0.06506484  0.44579477  1
  Cl  Cl219  1  0.38743457  0.61049657  0.37985181  1
  Cl  Cl220  1  0.76505839  0.91662443  0.42155348  1
  Cl  Cl221  1  0.80942876  0.37101582  0.48257557  1
  Cl  Cl222  1  0.73114288  0.76657675  0.40274049  1
  Cl  Cl223  1  0.76107765  0.22854744  0.46750502  1
  Cl  Cl224  1  0.07264250  0.76822440  0.40397846  1
  Cl  Cl225  1  0.12235660  0.22236871  0.46705585  1
  Cl  Cl226  1  0.11474861  0.06178188  0.44312536  1
  Cl  Cl227  1  0.06442225  0.61216200  0.38021624  1
  Cl  Cl228  1  0.50555066  0.16893171  0.38884340  1
  Cl  Cl229  1  0.54511120  0.63418369  0.45398080  1
  Cl  Cl230  1  0.54898998  0.93710098  0.50165308  1
  Cl  Cl231  1  0.52925525  0.47520976  0.42881315  1
  Cl  Cl232  1  0.90174974  0.93751191  0.49595318  1
  Cl  Cl233  1  0.86747996  0.47140486  0.42561364  1
  Cl  Cl234  1  0.82487282  0.17109698  0.38909487  1
  Cl  Cl235  1  0.86684970  0.63474046  0.45098429  1
  Cl  Cl236  1  0.89344530  0.79022413  0.47676741  1
  Cl  Cl237  1  0.86375397  0.31857712  0.40834821  1
  Cl  Cl238  1  0.17640399  0.15868069  0.38779712  1
  Cl  Cl239  1  0.22414717  0.62061182  0.45192209  1
  Cl  Cl240  1  0.56407613  0.77474362  0.47826494  1
  Cl  Cl241  1  0.51940046  0.31388402  0.41005709  1
  Cl  Cl242  1  0.22427897  0.78171563  0.47975267  1
  Cl  Cl243  1  0.18318812  0.31474743  0.41208209  1
  Cl  Cl244  1  0.23765563  0.93390901  0.49862089  1
  Cl  Cl245  1  0.21018266  0.47358274  0.42922247  1
  Cl  Cl246  1  0.51028329  0.66459005  0.53089189  1
  Cl  Cl247  1  0.50164566  0.83161348  0.55026013  1
  Cl  Cl248  1  0.15327055  0.84545411  0.55119646  1
  Cl  Cl249  1  0.83251017  0.01381906  0.57420522  1
  Cl  Cl250  1  0.80748959  0.53519273  0.50291903  1
  Cl  Cl251  1  0.46276668  0.52724379  0.50947292  1
  Cl  Cl252  1  0.85105791  0.83082966  0.55314747  1
  Cl  Cl253  1  0.81796112  0.68203642  0.53141474  1
  Cl  Cl254  1  0.15892866  0.68937341  0.53176900  1
  Cl  Cl255  1  0.19020276  0.00011013  0.56782483  1
  Cl  Cl256  1  0.14301167  0.53020975  0.50263580  1
  Cl  Cl257  1  0.55903860  0.09982088  0.51501334  1
  Cl  Cl258  1  0.77484566  0.45299102  0.56087927  1
  Cl  Cl259  1  0.89652215  0.09710029  0.51640358  1
  Cl  Cl260  1  0.90998514  0.26082722  0.54619628  1
  Cl  Cl261  1  0.18920645  0.55237130  0.57614714  1
  Cl  Cl262  1  0.59284549  0.22865709  0.54059093  1
  Cl  Cl263  1  0.19891187  0.27980472  0.54308545  1
