# generated using pymatgen
data_Li3YCl6
_symmetry_space_group_name_H-M   'P 1'
_cell_length_a   6.09758500
_cell_length_b   11.17729600
_cell_length_c   48.39891500
_cell_angle_alpha   90.00000000
_cell_angle_beta   90.00000000
_cell_angle_gamma   89.99868772
_symmetry_Int_Tables_number   1
_chemical_formula_structural   Li3YCl6
_chemical_formula_sum   'Li21 Y7 Cl42'
_cell_volume   3298.60445397
_cell_formula_units_Z   7
loop_
 _symmetry_equiv_pos_site_id
 _symmetry_equiv_pos_as_xyz
  1  'x, y, z'
loop_
 _atom_site_type_symbol
 _atom_site_label
 _atom_site_symmetry_multiplicity
 _atom_site_fract_x
 _atom_site_fract_y
 _atom_site_fract_z
 _atom_site_occupancy
  Li  Li0  1  0.00108111  0.15033913  0.05964112  1
  Li  Li1  1  0.00714957  0.31192566  0.11933769  1
  Li  Li2  1  0.98830802  0.77736829  0.06538673  1
  Li  Li3  1  0.48598345  0.13870772  0.18642123  1
  Li  Li4  1  0.49939945  0.80364283  0.18920970  1
  Li  Li5  1  0.46116928  0.62990383  0.03270318  1
  Li  Li6  1  0.50987795  0.30738296  0.11803034  1
  Li  Li7  1  0.52871989  0.63629084  0.11985612  1
  Li  Li8  1  0.99990239  0.80895733  0.18708751  1
  Li  Li9  1  0.99902012  0.64107583  0.25366772  1
  Li  Li10  1  0.99827518  0.80900491  0.32015457  1
  Li  Li11  1  0.99809232  0.31110885  0.25372538  1
  Li  Li12  1  0.46770785  0.63486909  0.38769053  1
  Li  Li13  1  0.49450503  0.30550665  0.38889245  1
  Li  Li14  1  0.49906399  0.31985177  0.25310968  1
  Li  Li15  1  0.49766448  0.80327442  0.31831168  1
  Li  Li16  1  0.50558291  0.14049523  0.32034673  1
  Li  Li17  1  0.99413886  0.31160774  0.38779353  1
  Li  Li18  1  0.00112490  0.15145260  0.44750613  1
  Li  Li19  1  0.01326731  0.77834765  0.44209072  1
  Li  Li20  1  0.54185303  0.62951485  0.47510296  1
  Y  Y21  1  0.01690537  0.45887579  0.04887081  1
  Y  Y22  1  0.99687549  0.97106300  0.12196722  1
  Y  Y23  1  0.00472795  0.47146698  0.18521961  1
  Y  Y24  1  0.99829048  0.98321259  0.25368448  1
  Y  Y25  1  0.99307750  0.47153747  0.32193196  1
  Y  Y26  1  0.00283513  0.97115150  0.38527947  1
  Y  Y27  1  0.98618583  0.45944335  0.45830341  1
  Cl  Cl28  1  0.25273581  0.30018911  0.07707906  1
  Cl  Cl29  1  0.17295911  0.96355924  0.07121511  1
  Cl  Cl30  1  0.24606124  0.80629186  0.14488523  1
  Cl  Cl31  1  0.25493643  0.46721734  0.14028480  1
  Cl  Cl32  1  0.26931309  0.63441315  0.07425739  1
  Cl  Cl33  1  0.30035043  0.47847544  0.00978005  1
  Cl  Cl34  1  0.25675087  0.14465487  0.14105509  1
  Cl  Cl35  1  0.74612256  0.64471310  0.16589221  1
  Cl  Cl36  1  0.76032335  0.46699200  0.09527045  1
  Cl  Cl37  1  0.73414437  0.80783448  0.10013803  1
  Cl  Cl38  1  0.74957007  0.96859937  0.16696085  1
  Cl  Cl39  1  0.82748865  0.66055361  0.02919919  1
  Cl  Cl40  1  0.75584024  0.30833087  0.16133411  1
  Cl  Cl41  1  0.82757162  0.27676263  0.02796793  1
  Cl  Cl42  1  0.76267892  0.14654229  0.09942663  1
  Cl  Cl43  1  0.23200522  0.64623475  0.20853877  1
  Cl  Cl44  1  0.22822561  0.80855139  0.27691671  1
  Cl  Cl45  1  0.22670365  0.47099164  0.27555393  1
  Cl  Cl46  1  0.24335416  0.30828876  0.34568712  1
  Cl  Cl47  1  0.24903860  0.96871029  0.34015634  1
  Cl  Cl48  1  0.24676381  0.15379522  0.27504906  1
  Cl  Cl49  1  0.25508834  0.96945669  0.20891250  1
  Cl  Cl50  1  0.25706748  0.30925334  0.21021772  1
  Cl  Cl51  1  0.25242266  0.64448466  0.34134667  1
  Cl  Cl52  1  0.74332923  0.14486956  0.36610941  1
  Cl  Cl53  1  0.74217229  0.96970963  0.29832966  1
  Cl  Cl54  1  0.74013956  0.30978061  0.29692108  1
  Cl  Cl55  1  0.74490407  0.46737164  0.36702285  1
  Cl  Cl56  1  0.75078190  0.15365366  0.23216225  1
  Cl  Cl57  1  0.75361160  0.80642952  0.36241417  1
  Cl  Cl58  1  0.76942077  0.80835587  0.23033121  1
  Cl  Cl59  1  0.77058963  0.47088317  0.23157748  1
  Cl  Cl60  1  0.76570223  0.64651998  0.29871117  1
  Cl  Cl61  1  0.23862532  0.14670113  0.40763127  1
  Cl  Cl62  1  0.17822509  0.27743305  0.47891466  1
  Cl  Cl63  1  0.17564721  0.66088889  0.47810782  1
  Cl  Cl64  1  0.24156959  0.46723546  0.41183836  1
  Cl  Cl65  1  0.26627159  0.80817204  0.40712220  1
  Cl  Cl66  1  0.70508320  0.47783892  0.49768210  1
  Cl  Cl67  1  0.73222730  0.63496766  0.43332689  1
  Cl  Cl68  1  0.74950533  0.30064564  0.43018524  1
  Cl  Cl69  1  0.82908396  0.96452055  0.43614058  1
