# generated using pymatgen
data_Li3YCl6
_symmetry_space_group_name_H-M   'P 1'
_cell_length_a   6.09758500
_cell_length_b   11.17729600
_cell_length_c   48.39891500
_cell_angle_alpha   90.00000000
_cell_angle_beta   90.00000000
_cell_angle_gamma   89.99868772
_symmetry_Int_Tables_number   1
_chemical_formula_structural   Li3YCl6
_chemical_formula_sum   'Li18 Y6 Cl36'
_cell_volume   3298.60445397
_cell_formula_units_Z   6
loop_
 _symmetry_equiv_pos_site_id
 _symmetry_equiv_pos_as_xyz
  1  'x, y, z'
loop_
 _atom_site_type_symbol
 _atom_site_label
 _atom_site_symmetry_multiplicity
 _atom_site_fract_x
 _atom_site_fract_y
 _atom_site_fract_z
 _atom_site_occupancy
  Li  Li0  1  0.98535448  0.29197876  0.12221490  1
  Li  Li1  1  0.00003595  0.47195147  0.18754771  1
  Li  Li2  1  0.99179193  0.97451820  0.12024687  1
  Li  Li3  1  0.54213032  0.87530556  0.06014058  1
  Li  Li4  1  0.50457859  0.41373923  0.06677311  1
  Li  Li5  1  0.48956426  0.99930046  0.12196136  1
  Li  Li6  1  0.50085609  0.46556186  0.18592976  1
  Li  Li7  1  0.52839001  0.80358308  0.18824528  1
  Li  Li8  1  0.99851826  0.44716573  0.06259095  1
  Li  Li9  1  0.01712389  0.79201887  0.32160996  1
  Li  Li10  1  0.00243456  0.94677463  0.38121407  1
  Li  Li11  1  0.00802245  0.47495749  0.32355986  1
  Li  Li12  1  0.47217843  0.30441599  0.25575637  1
  Li  Li13  1  0.49848618  0.96824209  0.25753508  1
  Li  Li14  1  0.50949081  0.50010328  0.32165408  1
  Li  Li15  1  0.49783890  0.91490267  0.37715847  1
  Li  Li16  1  0.45698744  0.37359328  0.38389415  1
  Li  Li17  1  0.99987370  0.97208922  0.25633237  1
  Y  Y18  1  0.01466931  0.64518438  0.12101830  1
  Y  Y19  1  0.99366315  0.13311831  0.19091100  1
  Y  Y20  1  0.98440087  0.13128432  0.04781564  1
  Y  Y21  1  0.98532554  0.14501448  0.32281993  1
  Y  Y22  1  0.01403485  0.63093900  0.39604750  1
  Y  Y23  1  0.00584923  0.63347472  0.25279186  1
  Cl  Cl24  1  0.21896115  0.29309738  0.07978731  1
  Cl  Cl25  1  0.23293831  0.46946962  0.14489781  1
  Cl  Cl26  1  0.22151372  0.13386696  0.14422116  1
  Cl  Cl27  1  0.25477751  0.15602978  0.01093241  1
  Cl  Cl28  1  0.25087248  0.81703425  0.14221897  1
  Cl  Cl29  1  0.23211679  0.61089865  0.07348363  1
  Cl  Cl30  1  0.24078873  0.97393126  0.07850772  1
  Cl  Cl31  1  0.76232257  0.33477532  0.03521794  1
  Cl  Cl32  1  0.75295883  0.63323434  0.16589178  1
  Cl  Cl33  1  0.74002474  0.97310236  0.16498106  1
  Cl  Cl34  1  0.75021874  0.80987426  0.10001032  1
  Cl  Cl35  1  0.76550135  0.95457471  0.02799470  1
  Cl  Cl36  1  0.75738615  0.47118722  0.10123946  1
  Cl  Cl37  1  0.75770565  0.12969797  0.09879463  1
  Cl  Cl38  1  0.76600152  0.30751236  0.16710744  1
  Cl  Cl39  1  0.23402274  0.80781595  0.27663860  1
  Cl  Cl40  1  0.24332151  0.97135349  0.34258295  1
  Cl  Cl41  1  0.24163198  0.62964767  0.34503910  1
  Cl  Cl42  1  0.24503262  0.96924885  0.21378560  1
  Cl  Cl43  1  0.25489922  0.63007652  0.20815430  1
  Cl  Cl44  1  0.24931331  0.31003623  0.34378281  1
  Cl  Cl45  1  0.24684279  0.13352557  0.27792524  1
  Cl  Cl46  1  0.25956383  0.47348223  0.27877362  1
  Cl  Cl47  1  0.25172772  0.30865363  0.20987899  1
  Cl  Cl48  1  0.74753184  0.80897481  0.23391354  1
  Cl  Cl49  1  0.76815064  0.11016119  0.37045933  1
  Cl  Cl50  1  0.75756565  0.47369039  0.36545181  1
  Cl  Cl51  1  0.74487118  0.13020673  0.23557217  1
  Cl  Cl52  1  0.74917345  0.31721690  0.30167056  1
  Cl  Cl53  1  0.75433426  0.46946341  0.22987251  1
  Cl  Cl54  1  0.76651068  0.97003173  0.29884075  1
  Cl  Cl55  1  0.77860286  0.63404991  0.29954709  1
  Cl  Cl56  1  0.78091392  0.79293643  0.36397027  1
  Cl  Cl57  1  0.23246006  0.45388835  0.41582065  1
  Cl  Cl58  1  0.23821810  0.83428816  0.40842246  1
  Cl  Cl59  1  0.74591019  0.65651431  0.43319016  1
