# generated using pymatgen
data_Li6PS5Cl
_symmetry_space_group_name_H-M   'P 1'
_cell_length_a   12.27546900
_cell_length_b   7.10693005
_cell_length_c   44.31702974
_cell_angle_alpha   90.00000000
_cell_angle_beta   90.00000000
_cell_angle_gamma   124.56779534
_symmetry_Int_Tables_number   1
_chemical_formula_structural   Li6PS5Cl
_chemical_formula_sum   'Li72 P12 S60 Cl12'
_cell_volume   3183.69068742
_cell_formula_units_Z   12
loop_
 _symmetry_equiv_pos_site_id
 _symmetry_equiv_pos_as_xyz
  1  'x, y, z'
loop_
 _atom_site_type_symbol
 _atom_site_label
 _atom_site_symmetry_multiplicity
 _atom_site_fract_x
 _atom_site_fract_y
 _atom_site_fract_z
 _atom_site_occupancy
  Li  Li0  1  0.83816321  0.72647025  0.08955157  1
  Li  Li1  1  0.83651883  0.68927406  0.02471269  1
  Li  Li2  1  0.36341687  0.69552329  0.16403354  1
  Li  Li3  1  0.33609980  0.67954184  0.09663119  1
  Li  Li4  1  0.65283392  0.91995801  0.07976884  1
  Li  Li5  1  0.73773592  0.93510928  0.00653974  1
  Li  Li6  1  0.21426394  0.87493723  0.17529851  1
  Li  Li7  1  0.17798239  0.87297700  0.09600475  1
  Li  Li8  1  0.60212480  0.29496634  0.06987920  1
  Li  Li9  1  0.14584687  0.27289196  0.13331902  1
  Li  Li10  1  0.44989690  0.54293219  0.04998340  1
  Li  Li11  1  0.95594597  0.36755703  0.13141613  1
  Li  Li12  1  0.72248953  0.55789845  0.25246424  1
  Li  Li13  1  0.90440337  0.88464647  0.19642035  1
  Li  Li14  1  0.40171198  0.88599621  0.30176670  1
  Li  Li15  1  0.22032891  0.54933452  0.24775286  1
  Li  Li16  1  0.61506940  0.89098311  0.23296898  1
  Li  Li17  1  0.71683286  0.88555054  0.16350209  1
  Li  Li18  1  0.21575450  0.88195587  0.33696178  1
  Li  Li19  1  0.11688000  0.88905349  0.26665569  1
  Li  Li20  1  0.63301808  0.33924951  0.17901765  1
  Li  Li21  1  0.13086082  0.33805497  0.32138912  1
  Li  Li22  1  0.44721868  0.32530859  0.21456523  1
  Li  Li23  1  0.94297700  0.32307185  0.28587183  1
  Li  Li24  1  0.83266387  0.68285360  0.40401280  1
  Li  Li25  1  0.86330478  0.70117682  0.33655794  1
  Li  Li26  1  0.33401911  0.68748828  0.47563370  1
  Li  Li27  1  0.33636923  0.72809130  0.41086209  1
  Li  Li28  1  0.67506078  0.87973033  0.40389525  1
  Li  Li29  1  0.71211119  0.87569887  0.32496952  1
  Li  Li30  1  0.23663825  0.93548896  0.49389411  1
  Li  Li31  1  0.15205954  0.92615215  0.42116253  1
  Li  Li32  1  0.64402998  0.27680689  0.36735034  1
  Li  Li33  1  0.09883789  0.29677865  0.43051397  1
  Li  Li34  1  0.45310514  0.36654742  0.36833525  1
  Li  Li35  1  0.94869671  0.54823665  0.45046609  1
  Li  Li36  1  0.43852812  0.59360637  0.58980024  1
  Li  Li37  1  0.43952005  0.62808557  0.52509404  1
  Li  Li38  1  0.91748611  0.63416249  0.66400200  1
  Li  Li39  1  0.93706469  0.63782379  0.59680552  1
  Li  Li40  1  0.62374494  0.39366789  0.57970373  1
  Li  Li41  1  0.53818460  0.38394184  0.50621240  1
  Li  Li42  1  0.06001131  0.44745712  0.67479591  1
  Li  Li43  1  0.09723986  0.45035988  0.59509441  1
  Li  Li44  1  0.67467386  0.02185077  0.56925886  1
  Li  Li45  1  0.13228573  0.05423354  0.63208887  1
  Li  Li46  1  0.82511354  0.77124530  0.54967187  1
  Li  Li47  1  0.32109889  0.95626921  0.63139825  1
  Li  Li48  1  0.55141824  0.77638212  0.75186154  1
  Li  Li49  1  0.37187324  0.44887150  0.69590478  1
  Li  Li50  1  0.87203249  0.44198842  0.80140249  1
  Li  Li51  1  0.05705814  0.78045566  0.74708546  1
  Li  Li52  1  0.65061992  0.43743982  0.73436612  1
  Li  Li53  1  0.56162598  0.44019988  0.66381558  1
  Li  Li54  1  0.05942591  0.44880985  0.83688414  1
  Li  Li55  1  0.15830236  0.43684934  0.76682193  1
  Li  Li56  1  0.64741209  0.99537673  0.67855230  1
  Li  Li57  1  0.14038015  0.98920180  0.82065229  1
  Li  Li58  1  0.83099675  0.00191689  0.71371788  1
  Li  Li59  1  0.32965826  0.00330572  0.78632145  1
  Li  Li60  1  0.43641043  0.64049933  0.90310904  1
  Li  Li61  1  0.41657364  0.63467674  0.83570993  1
  Li  Li62  1  0.93827960  0.62735150  0.97492647  1
  Li  Li63  1  0.93967923  0.60231446  0.91002043  1
  Li  Li64  1  0.59699855  0.45403223  0.90495997  1
  Li  Li65  1  0.56193400  0.45004590  0.82549895  1
  Li  Li66  1  0.03991520  0.38652480  0.99352225  1
  Li  Li67  1  0.12178251  0.39973981  0.92023410  1
  Li  Li68  1  0.63139892  0.05555233  0.86792962  1
  Li  Li69  1  0.17399809  0.02777770  0.93048474  1
  Li  Li70  1  0.82012574  0.96004466  0.86852334  1
  Li  Li71  1  0.32565468  0.77802195  0.95007676  1
  P  P72  1  0.43573993  0.40391290  0.12872102  1
  P  P73  1  0.94465899  0.46123381  0.05308680  1
  P  P74  1  0.42192494  0.40689573  0.28825513  1
  P  P75  1  0.92277855  0.40687375  0.21165522  1
  P  P76  1  0.44366649  0.46277569  0.44688416  1
  P  P77  1  0.93374471  0.40653371  0.37167565  1
  P  P78  1  0.84079293  0.91779847  0.62830728  1
  P  P79  1  0.33190213  0.85955367  0.55297784  1
  P  P80  1  0.85115462  0.92067387  0.78823571  1
  P  P81  1  0.35124397  0.92071678  0.71142178  1
  P  P82  1  0.83091113  0.86017508  0.94704728  1
  P  P83  1  0.33942680  0.92004476  0.87141902  1
  S  S84  1  0.81343206  0.32497155  0.08963861  1
  S  S85  1  0.82727344  0.34447397  0.01446129  1
  S  S86  1  0.31627373  0.29510424  0.16691677  1
  S  S87  1  0.30537956  0.29174000  0.09237682  1
  S  S88  1  0.66868040  0.66368793  0.05067658  1
  S  S89  1  0.18745484  0.64815955  0.13312646  1
  S  S90  1  0.55397283  0.29309215  0.12644251  1
  S  S91  1  0.07728873  0.38292442  0.05081046  1
  S  S92  1  0.53563392  0.75721983  0.12866298  1
  S  S93  1  0.02826877  0.80757293  0.05607802  1
  S  S94  1  0.79333160  0.29322376  0.24774683  1
  S  S95  1  0.81079001  0.29828021  0.17274145  1
  S  S96  1  0.30836435  0.29458459  0.32692209  1
  S  S97  1  0.29369720  0.29176704  0.25194256  1
  S  S98  1  0.66946120  0.65790340  0.20686734  1
  S  S99  1  0.16731576  0.65457520  0.29313044  1
  S  S100  1  0.54064480  0.29272068  0.28674201  1
  S  S101  1  0.04016003  0.29001165  0.21314512  1
  S  S102  1  0.53993750  0.76106760  0.28656449  1
  S  S103  1  0.04170607  0.76112505  0.21342567  1
  S  S104  1  0.80403516  0.29621618  0.40810648  1
  S  S105  1  0.81359260  0.29721255  0.33359762  1
  S  S106  1  0.32665239  0.34438992  0.48557579  1
  S  S107  1  0.31196785  0.32837156  0.41040879  1
  S  S108  1  0.68488554  0.65101147  0.36720656  1
  S  S109  1  0.16682652  0.66595629  0.44979836  1
  S  S110  1  0.57638772  0.38450116  0.44892520  1
  S  S111  1  0.05116546  0.29372050  0.37395907  1
  S  S112  1  0.52650291  0.80887201  0.44428510  1
  S  S113  1  0.03490353  0.75987511  0.37177648  1
  S  S114  1  0.46277820  0.99328036  0.58962422  1
  S  S115  1  0.44950829  0.97497877  0.51442753  1
  S  S116  1  0.96153876  0.02970820  0.66630576  1
  S  S117  1  0.96996230  0.02847056  0.59177973  1
  S  S118  1  0.60692831  0.65105057  0.55069831  1
  S  S119  1  0.09003732  0.67624677  0.63261254  1
  S  S120  1  0.72181164  0.02705712  0.62586938  1
  S  S121  1  0.19993829  0.93942492  0.55080124  1
  S  S122  1  0.74127399  0.56448670  0.62876958  1
  S  S123  1  0.24778344  0.51309769  0.55588508  1
  S  S124  1  0.47847837  0.03441959  0.74796041  1
  S  S125  1  0.46580217  0.02846752  0.67290088  1
  S  S126  1  0.96436461  0.03354826  0.82694689  1
  S  S127  1  0.98018780  0.03427301  0.75207069  1
  S  S128  1  0.60608172  0.67325273  0.70665654  1
  S  S129  1  0.10617538  0.67252387  0.79278474  1
  S  S130  1  0.73259654  0.03514480  0.78662440  1
  S  S131  1  0.23490764  0.03967996  0.71219171  1
  S  S132  1  0.73280091  0.56625725  0.78685416  1
  S  S133  1  0.23240452  0.56684197  0.71334017  1
  S  S134  1  0.46876353  0.03259168  0.90793800  1
  S  S135  1  0.46065523  0.03195509  0.83348496  1
  S  S136  1  0.94889416  0.97556487  0.98556532  1
  S  S137  1  0.96163827  0.99701716  0.91037435  1
  S  S138  1  0.58908840  0.67851026  0.86731717  1
  S  S139  1  0.10744245  0.65779312  0.94922535  1
  S  S140  1  0.69811257  0.93786193  0.94949889  1
  S  S141  1  0.21936020  0.02729305  0.87354592  1
  S  S142  1  0.74780213  0.51410726  0.94394064  1
  S  S143  1  0.24069372  0.56695641  0.87112668  1
  Cl  Cl144  1  0.46189254  0.89218233  0.05432049  1
  Cl  Cl145  1  0.91796771  0.96289853  0.13585999  1
  Cl  Cl146  1  0.42877775  0.95395930  0.20486228  1
  Cl  Cl147  1  0.92458017  0.95436302  0.29539419  1
  Cl  Cl148  1  0.41675090  0.96492833  0.36468135  1
  Cl  Cl149  1  0.96034353  0.89586614  0.44625466  1
  Cl  Cl150  1  0.81516194  0.42548223  0.55418142  1
  Cl  Cl151  1  0.35969816  0.36255203  0.63576722  1
  Cl  Cl152  1  0.85020733  0.36927281  0.70388747  1
  Cl  Cl153  1  0.34695518  0.37301878  0.79523301  1
  Cl  Cl154  1  0.85840461  0.36401220  0.86454162  1
  Cl  Cl155  1  0.31374085  0.42970728  0.94571390  1
