# generated using pymatgen
data_Li26P5S23Cl5
_symmetry_space_group_name_H-M   'P 1'
_cell_length_a   6.91447710
_cell_length_b   12.13930030
_cell_length_c   34.05729973
_cell_angle_alpha   90.05925023
_cell_angle_beta   89.99550365
_cell_angle_gamma   124.72498200
_symmetry_Int_Tables_number   1
_chemical_formula_structural   Li26P5S23Cl5
_chemical_formula_sum   'Li52 P10 S46 Cl10'
_cell_volume   2349.52259589
_cell_formula_units_Z   2
loop_
 _symmetry_equiv_pos_site_id
 _symmetry_equiv_pos_as_xyz
  1  'x, y, z'
loop_
 _atom_site_type_symbol
 _atom_site_label
 _atom_site_symmetry_multiplicity
 _atom_site_fract_x
 _atom_site_fract_y
 _atom_site_fract_z
 _atom_site_occupancy
  Li  Li0  1  0.63353054  0.85285060  0.06800287  1
  Li  Li1  1  0.07564393  0.22609271  0.07978264  1
  Li  Li2  1  0.35600005  0.00197480  0.04342703  1
  Li  Li3  1  0.61803775  0.31987006  0.10410596  1
  Li  Li4  1  0.96105753  0.90035450  0.99140171  1
  Li  Li5  1  0.08459990  0.03844687  0.12511857  1
  Li  Li6  1  0.93002055  0.63833006  0.10558852  1
  Li  Li7  1  0.59510876  0.31247125  0.18311688  1
  Li  Li8  1  0.60307355  0.93179175  0.28481742  1
  Li  Li9  1  0.01987229  0.29481454  0.31451156  1
  Li  Li10  1  0.23109589  0.93489522  0.21415884  1
  Li  Li11  1  0.33484299  0.48392453  0.14320220  1
  Li  Li12  1  0.02412731  0.79988865  0.28974604  1
  Li  Li13  1  0.62205993  0.34923767  0.31867309  1
  Li  Li14  1  0.59416229  0.81089954  0.21136389  1
  Li  Li15  1  0.16285025  0.07754662  0.32049016  1
  Li  Li16  1  0.97544309  0.61080066  0.20543843  1
  Li  Li17  1  0.04571797  0.21230354  0.19637392  1
  Li  Li18  1  0.19993647  0.58789663  0.27971732  1
  Li  Li19  1  0.53431402  0.31617944  0.41143442  1
  Li  Li20  1  0.83420976  0.86829726  0.40860665  1
  Li  Li21  1  0.39569078  0.50016755  0.35580461  1
  Li  Li22  1  0.96231480  0.87450604  0.50980192  1
  Li  Li23  1  0.61957901  0.01967603  0.47030575  1
  Li  Li24  1  0.15557022  0.69193572  0.38275403  1
  Li  Li25  1  0.04004967  0.20335140  0.41179007  1
  Li  Li26  1  0.05020376  0.58243856  0.59183680  1
  Li  Li27  1  0.85410986  0.13610515  0.58898661  1
  Li  Li28  1  0.52658821  0.43018431  0.53027668  1
  Li  Li29  1  0.34619598  0.95193884  0.64462393  1
  Li  Li30  1  0.16441806  0.57747010  0.49029587  1
  Li  Li31  1  0.58864500  0.25033518  0.58851623  1
  Li  Li32  1  0.72975259  0.76047681  0.61668834  1
  Li  Li33  1  0.38014310  0.15673611  0.68588496  1
  Li  Li34  1  0.31287212  0.51780180  0.78596366  1
  Li  Li35  1  0.91907814  0.13612347  0.81681286  1
  Li  Li36  1  0.68824996  0.51657809  0.71586289  1
  Li  Li37  1  0.87613960  0.10361665  0.68121448  1
  Li  Li38  1  0.92271477  0.63874615  0.78869829  1
  Li  Li39  1  0.31490963  0.96596001  0.85546524  1
  Li  Li40  1  0.38331755  0.65480828  0.70968250  1
  Li  Li41  1  0.58809008  0.24667012  0.80162149  1
  Li  Li42  1  0.97637412  0.86240833  0.72048567  1
  Li  Li43  1  0.95624255  0.37547298  0.67912655  1
  Li  Li44  1  0.70515772  0.83927170  0.79469773  1
  Li  Li45  1  0.57190727  0.22128949  0.91954117  1
  Li  Li46  1  0.87123724  0.59315288  0.93155144  1
  Li  Li47  1  0.92767172  0.12848047  0.89520224  1
  Li  Li48  1  0.11211373  0.54982376  0.00796590  1
  Li  Li49  1  0.29971946  0.44636100  0.95596392  1
  Li  Li50  1  0.59994685  0.81026215  0.89406327  1
  Li  Li51  1  0.95692898  0.40905478  0.87474786  1
  P  P52  1  0.53301025  0.00836928  0.14126669  1
  P  P53  1  0.56576794  0.53622425  0.03588988  1
  P  P54  1  0.49400196  0.01628053  0.36094566  1
  P  P55  1  0.50921465  0.50859463  0.24688325  1
  P  P56  1  0.57849025  0.54728151  0.45406100  1
  P  P57  1  0.41360699  0.43344198  0.63985311  1
  P  P58  1  0.43556233  0.90401353  0.54656562  1
  P  P59  1  0.46464238  0.43946101  0.85837302  1
  P  P60  1  0.44413611  0.94178592  0.75306669  1
  P  P61  1  0.44031351  0.91157366  0.96368555  1
  S  S62  1  0.59018680  0.64543523  0.08429168  1
  S  S63  1  0.65278524  0.12989439  0.09186585  1
  S  S64  1  0.67118740  0.64832383  0.98444611  1
  S  S65  1  0.22012110  0.38539399  0.02544933  1
  S  S66  1  0.17185885  0.87871800  0.14056805  1
  S  S67  1  0.77045063  0.46773456  0.04831193  1
  S  S68  1  0.66723500  0.89574096  0.14187484  1
  S  S69  1  0.28518711  0.26972252  0.14016861  1
  S  S70  1  0.62726194  0.12131965  0.19167931  1
  S  S71  1  0.60237605  0.62968558  0.29534339  1
  S  S72  1  0.58786581  0.12544196  0.30912506  1
  S  S73  1  0.62786332  0.62478799  0.19663119  1
  S  S74  1  0.14827352  0.38313036  0.24607873  1
  S  S75  1  0.12697110  0.88912586  0.35973814  1
  S  S76  1  0.66798241  0.40819642  0.24804685  1
  S  S77  1  0.60216085  0.89128370  0.35642391  1
  S  S78  1  0.27810811  0.27578451  0.35443049  1
  S  S79  1  0.26928896  0.77749054  0.24724469  1
  S  S80  1  0.62199400  0.13774345  0.40931716  1
  S  S81  1  0.61301358  0.64119112  0.50621192  1
  S  S82  1  0.49586765  0.63696548  0.41231373  1
  S  S83  1  0.31492155  0.34947670  0.46476123  1
  S  S84  1  0.86330188  0.54714186  0.43498342  1
  S  S85  1  0.17456115  0.81331340  0.58855781  1
  S  S86  1  0.29700824  0.31172984  0.59153763  1
  S  S87  1  0.28173686  0.80979984  0.49448993  1
  S  S88  1  0.72225497  0.90542588  0.56541926  1
  S  S89  1  0.77182581  0.55484381  0.64465139  1
  S  S90  1  0.56600850  0.10145942  0.53577339  1
  S  S91  1  0.30681281  0.56352621  0.64040554  1
  S  S92  1  0.67741721  0.17617875  0.64585830  1
  S  S93  1  0.28499955  0.32485040  0.69164083  1
  S  S94  1  0.32970566  0.82452197  0.80318679  1
  S  S95  1  0.33297183  0.32756237  0.80787554  1
  S  S96  1  0.29366657  0.82067498  0.70458974  1
  S  S97  1  0.80327738  0.04142940  0.75181926  1
  S  S98  1  0.82421360  0.55163480  0.85781947  1
  S  S99  1  0.33410677  0.06703716  0.75418984  1
  S  S100  1  0.36339767  0.56944971  0.85953909  1
  S  S101  1  0.69461678  0.17928958  0.85907533  1
  S  S102  1  0.66586441  0.67287458  0.75283268  1
  S  S103  1  0.34150757  0.31806488  0.90780959  1
  S  S104  1  0.32408458  0.80037507  0.01532431  1
  S  S105  1  0.24552158  0.80188125  0.91547823  1
  S  S106  1  0.78227919  0.98076630  0.95113572  1
  S  S107  1  0.39626987  0.06252514  0.97401590  1
  Cl  Cl108  1  0.96965656  0.49039109  0.14758200  1
  Cl  Cl109  1  0.03050878  0.01786252  0.05335987  1
  Cl  Cl110  1  0.02319850  0.49281985  0.34036669  1
  Cl  Cl111  1  0.97631863  0.98292234  0.25403414  1
  Cl  Cl112  1  0.95590953  0.01613781  0.45862147  1
  Cl  Cl113  1  0.98898121  0.95805958  0.65994417  1
  Cl  Cl114  1  0.87245255  0.43519397  0.54171043  1
  Cl  Cl115  1  0.93799469  0.95835846  0.85233529  1
  Cl  Cl116  1  0.95220412  0.46252167  0.74738271  1
  Cl  Cl117  1  0.94202030  0.42969221  0.94643046  1
