# generated using pymatgen
data_Li26P5S23Cl5
_symmetry_space_group_name_H-M   'P 1'
_cell_length_a   7.10155140
_cell_length_b   12.21461725
_cell_length_c   33.05299373
_cell_angle_alpha   89.84597719
_cell_angle_beta   89.71670568
_cell_angle_gamma   125.18798889
_symmetry_Int_Tables_number   1
_chemical_formula_structural   Li26P5S23Cl5
_chemical_formula_sum   'Li52 P10 S46 Cl10'
_cell_volume   2343.10582425
_cell_formula_units_Z   2
loop_
 _symmetry_equiv_pos_site_id
 _symmetry_equiv_pos_as_xyz
  1  'x, y, z'
loop_
 _atom_site_type_symbol
 _atom_site_label
 _atom_site_symmetry_multiplicity
 _atom_site_fract_x
 _atom_site_fract_y
 _atom_site_fract_z
 _atom_site_occupancy
  Li  Li0  1  0.61973301  0.34396016  0.18523215  1
  Li  Li1  1  0.72196848  0.92837250  0.06526887  1
  Li  Li2  1  0.11678705  0.27948822  0.08369382  1
  Li  Li3  1  0.27595391  0.47999583  0.16686060  1
  Li  Li4  1  0.36399248  0.03207378  0.04414812  1
  Li  Li5  1  0.62157457  0.35351454  0.10272718  1
  Li  Li6  1  0.91425927  0.86294044  0.99475684  1
  Li  Li7  1  0.11727609  0.07980371  0.12546804  1
  Li  Li8  1  0.07124341  0.21613945  0.20505774  1
  Li  Li9  1  0.01316609  0.68026282  0.09203799  1
  Li  Li10  1  0.41486688  0.25066905  0.41618522  1
  Li  Li11  1  0.65355480  0.98947829  0.27763381  1
  Li  Li12  1  0.05090324  0.33910964  0.31513173  1
  Li  Li13  1  0.27934534  0.97606834  0.21275679  1
  Li  Li14  1  0.35983001  0.52119705  0.37711335  1
  Li  Li15  1  0.02147449  0.83065552  0.28463544  1
  Li  Li16  1  0.65934004  0.45880973  0.32560698  1
  Li  Li17  1  0.56381975  0.82357797  0.20444484  1
  Li  Li18  1  0.26127939  0.14661732  0.31269418  1
  Li  Li19  1  0.98667199  0.63445287  0.21004874  1
  Li  Li20  1  0.02216623  0.24476862  0.40943485  1
  Li  Li21  1  0.32726178  0.71104551  0.30667070  1
  Li  Li22  1  0.89174204  0.92722103  0.39838867  1
  Li  Li23  1  0.87944125  0.88985878  0.50337642  1
  Li  Li24  1  0.63854219  0.01527879  0.46363550  1
  Li  Li25  1  0.94720395  0.59977912  0.41440810  1
  Li  Li26  1  0.32152093  0.09167509  0.67985672  1
  Li  Li27  1  0.26096257  0.50582403  0.56596535  1
  Li  Li28  1  0.87347886  0.16487786  0.58729242  1
  Li  Li29  1  0.66634839  0.96500479  0.66891221  1
  Li  Li30  1  0.69054069  0.47911180  0.54646770  1
  Li  Li31  1  0.47178854  0.16147979  0.58640493  1
  Li  Li32  1  0.11574360  0.58642863  0.49465654  1
  Li  Li33  1  0.87033839  0.37787212  0.62993040  1
  Li  Li34  1  0.88837986  0.23022251  0.70550058  1
  Li  Li35  1  0.98413141  0.77787612  0.60722015  1
  Li  Li36  1  0.52131189  0.17250444  0.91473366  1
  Li  Li37  1  0.28344088  0.45993418  0.78189778  1
  Li  Li38  1  0.88481440  0.08499090  0.81555830  1
  Li  Li39  1  0.67085066  0.47084606  0.71669121  1
  Li  Li40  1  0.88345007  0.10227223  0.89876877  1
  Li  Li41  1  0.91143703  0.60869937  0.79102464  1
  Li  Li42  1  0.28248153  0.96410608  0.83387511  1
  Li  Li43  1  0.41995953  0.64297699  0.70523607  1
  Li  Li44  1  0.60348142  0.23028363  0.79523542  1
  Li  Li45  1  0.95879981  0.82096362  0.71850084  1
  Li  Li46  1  0.92098078  0.36806501  0.87229400  1
  Li  Li47  1  0.61429962  0.73744048  0.81096791  1
  Li  Li48  1  0.82794641  0.52385198  0.93321649  1
  Li  Li49  1  0.14225029  0.59568324  0.00708678  1
  Li  Li50  1  0.26456301  0.42440859  0.95657762  1
  Li  Li51  1  0.63089915  0.78433832  0.91502552  1
  P  P52  1  0.57493488  0.05300618  0.13949777  1
  P  P53  1  0.61307784  0.57635155  0.02612497  1
  P  P54  1  0.50842861  0.04051066  0.35610826  1
  P  P55  1  0.52117612  0.54171045  0.24925613  1
  P  P56  1  0.53492494  0.55237026  0.46384092  1
  P  P57  1  0.40541506  0.40631194  0.64066215  1
  P  P58  1  0.31583997  0.85676660  0.53098455  1
  P  P59  1  0.43129656  0.39623720  0.85815341  1
  P  P60  1  0.42439653  0.90427506  0.75105146  1
  P  P61  1  0.41424348  0.87937297  0.97398952  1
  S  S62  1  0.77167176  0.74253566  0.06192916  1
  S  S63  1  0.69506480  0.17743851  0.08930781  1
  S  S64  1  0.67752803  0.63328614  0.96549402  1
  S  S65  1  0.26098822  0.45478350  0.03147124  1
  S  S66  1  0.22122901  0.92531475  0.13869879  1
  S  S67  1  0.75734306  0.47575879  0.03929365  1
  S  S68  1  0.69831124  0.93633297  0.13900114  1
  S  S69  1  0.31143098  0.30500667  0.14558696  1
  S  S70  1  0.67389289  0.16105134  0.19246470  1
  S  S71  1  0.61627894  0.65172551  0.30219966  1
  S  S72  1  0.63863811  0.16981121  0.30715244  1
  S  S73  1  0.65709669  0.66316741  0.19886593  1
  S  S74  1  0.16925233  0.42115160  0.24456866  1
  S  S75  1  0.15651499  0.93544226  0.35097194  1
  S  S76  1  0.66607766  0.43670928  0.25212090  1
  S  S77  1  0.60799162  0.91320719  0.35176550  1
  S  S78  1  0.29223113  0.31131358  0.35743951  1
  S  S79  1  0.29261654  0.81199292  0.24860873  1
  S  S80  1  0.61826708  0.14717540  0.40940595  1
  S  S81  1  0.59681504  0.64657583  0.51847658  1
  S  S82  1  0.70856726  0.68227182  0.41593785  1
  S  S83  1  0.18750875  0.44547710  0.45322439  1
  S  S84  1  0.65941044  0.43502351  0.46762056  1
  S  S85  1  0.15131457  0.68056558  0.56389487  1
  S  S86  1  0.30805340  0.30272631  0.58643400  1
  S  S87  1  0.25185043  0.81227503  0.47063499  1
  S  S88  1  0.66827587  0.97839935  0.53710444  1
  S  S89  1  0.75874971  0.52948018  0.64294582  1
  S  S90  1  0.17880098  0.95574191  0.55240173  1
  S  S91  1  0.28877749  0.52619058  0.64007741  1
  S  S92  1  0.65951214  0.14826556  0.64556608  1
  S  S93  1  0.28547991  0.28417018  0.69089699  1
  S  S94  1  0.31994175  0.78916637  0.80301947  1
  S  S95  1  0.30853479  0.27862241  0.80725685  1
  S  S96  1  0.28490028  0.78681519  0.70047074  1
  S  S97  1  0.77655466  0.02065352  0.74538689  1
  S  S98  1  0.78588490  0.51234742  0.85884790  1
  S  S99  1  0.29701625  0.01947554  0.75467129  1
  S  S100  1  0.33104041  0.52503820  0.85677937  1
  S  S101  1  0.66627854  0.14088343  0.85381395  1
  S  S102  1  0.65128702  0.63277521  0.75334684  1
  S  S103  1  0.30595554  0.27943650  0.90992347  1
  S  S104  1  0.35478288  0.82344302  0.03451042  1
  S  S105  1  0.25017905  0.71260470  0.93825370  1
  S  S106  1  0.76116941  0.97995615  0.96221807  1
  S  S107  1  0.30766063  0.00239254  0.96740548  1
  Cl  Cl108  1  0.99063035  0.52998983  0.14687558  1
  Cl  Cl109  1  0.11282823  0.09805159  0.05318787  1
  Cl  Cl110  1  0.04043440  0.53721933  0.35304492  1
  Cl  Cl111  1  0.02258611  0.03395758  0.24997240  1
  Cl  Cl112  1  0.02536386  0.07452765  0.45060473  1
  Cl  Cl113  1  0.93174671  0.90521504  0.65557573  1
  Cl  Cl114  1  0.84847696  0.34310356  0.55520647  1
  Cl  Cl115  1  0.89569762  0.91144211  0.85653008  1
  Cl  Cl116  1  0.91329023  0.40439986  0.75096222  1
  Cl  Cl117  1  0.88088692  0.35432580  0.94459027  1
