# generated using pymatgen
data_Li22P3S16Cl5
_symmetry_space_group_name_H-M   'P 1'
_cell_length_a   9.78730528
_cell_length_b   6.92532988
_cell_length_c   37.96773950
_cell_angle_alpha   90.00163837
_cell_angle_beta   90.00254697
_cell_angle_gamma   46.26501213
_symmetry_Int_Tables_number   1
_chemical_formula_structural   Li22P3S16Cl5
_chemical_formula_sum   'Li44 P6 S32 Cl10'
_cell_volume   1859.44489948
_cell_formula_units_Z   2
loop_
 _symmetry_equiv_pos_site_id
 _symmetry_equiv_pos_as_xyz
  1  'x, y, z'
loop_
 _atom_site_type_symbol
 _atom_site_label
 _atom_site_symmetry_multiplicity
 _atom_site_fract_x
 _atom_site_fract_y
 _atom_site_fract_z
 _atom_site_occupancy
  Li  Li0  1  0.83502388  0.81103066  0.10000137  1
  Li  Li1  1  0.62584075  0.81230728  0.04125352  1
  Li  Li2  1  0.18452301  0.52300669  0.05346535  1
  Li  Li3  1  0.10181160  0.16030298  0.01193238  1
  Li  Li4  1  0.06465739  0.19261767  0.09866452  1
  Li  Li5  1  0.44566791  0.42493622  0.24116613  1
  Li  Li6  1  0.53927096  0.43085895  0.12087927  1
  Li  Li7  1  0.16942943  0.64442558  0.16595302  1
  Li  Li8  1  0.32421335  0.94177031  0.20047291  1
  Li  Li9  1  0.76118357  0.35558614  0.17458037  1
  Li  Li10  1  0.62558459  0.04745424  0.19102905  1
  Li  Li11  1  0.96618153  0.57013737  0.37615922  1
  Li  Li12  1  0.84126232  0.63454438  0.25581839  1
  Li  Li13  1  0.69110385  0.55868748  0.31450811  1
  Li  Li14  1  0.78661965  0.96327069  0.32765150  1
  Li  Li15  1  0.23885330  0.36634594  0.29955032  1
  Li  Li16  1  0.11181822  0.05895749  0.33050232  1
  Li  Li17  1  0.31880100  0.61887911  0.39440748  1
  Li  Li18  1  0.23120886  0.44746451  0.46090277  1
  Li  Li19  1  0.45801968  0.80938767  0.44900674  1
  Li  Li20  1  0.74509983  0.08829815  0.42725750  1
  Li  Li21  1  0.60854285  0.10436131  0.49530165  1
  Li  Li22  1  0.68865271  0.98692018  0.60031087  1
  Li  Li23  1  0.89900723  0.98580605  0.54119792  1
  Li  Li24  1  0.34343104  0.26667849  0.55419549  1
  Li  Li25  1  0.43087809  0.63190231  0.51166990  1
  Li  Li26  1  0.45815124  0.60437635  0.59873811  1
  Li  Li27  1  0.08020020  0.37533298  0.74156242  1
  Li  Li28  1  0.99223326  0.35971060  0.62113812  1
  Li  Li29  1  0.35355808  0.15710586  0.66662884  1
  Li  Li30  1  0.20263469  0.85751974  0.70070035  1
  Li  Li31  1  0.75913243  0.45236691  0.67381980  1
  Li  Li32  1  0.89996910  0.75434775  0.69153861  1
  Li  Li33  1  0.55978074  0.23206965  0.87638395  1
  Li  Li34  1  0.68768742  0.16589071  0.75583572  1
  Li  Li35  1  0.83200670  0.25031010  0.81533111  1
  Li  Li36  1  0.74125307  0.83836409  0.82780344  1
  Li  Li37  1  0.29009108  0.43111120  0.79916609  1
  Li  Li38  1  0.41319897  0.74339659  0.83099947  1
  Li  Li39  1  0.20542752  0.18280929  0.89476518  1
  Li  Li40  1  0.29349134  0.35371238  0.96094874  1
  Li  Li41  1  0.06433438  0.99097002  0.94951411  1
  Li  Li42  1  0.77769614  0.71192535  0.92730960  1
  Li  Li43  1  0.91532098  0.69059014  0.99533863  1
  P  P44  1  0.44852122  0.00099493  0.11547567  1
  P  P45  1  0.96115691  0.00602262  0.24870312  1
  P  P46  1  0.45006888  0.00880823  0.38240298  1
  P  P47  1  0.07430529  0.79856113  0.61561101  1
  P  P48  1  0.56443057  0.79624959  0.74898754  1
  P  P49  1  0.07499075  0.79250216  0.88251096  1
  S  S50  1  0.48471584  0.20590920  0.08314452  1
  S  S51  1  0.42268369  0.79604063  0.08156790  1
  S  S52  1  0.95540435  0.50666222  0.05299308  1
  S  S53  1  0.21355202  0.25118896  0.14649072  1
  S  S54  1  0.98185721  0.23491546  0.21954820  1
  S  S55  1  0.95318858  0.77933349  0.21542692  1
  S  S56  1  0.69186685  0.74547447  0.14514011  1
  S  S57  1  0.46120960  0.50358425  0.18120766  1
  S  S58  1  0.71737770  0.24738866  0.27867529  1
  S  S59  1  0.45018172  0.24704660  0.35034637  1
  S  S60  1  0.43629749  0.77046321  0.35325251  1
  S  S61  1  0.19164271  0.75923274  0.28145027  1
  S  S62  1  0.94741150  0.50920861  0.31565129  1
  S  S63  1  0.21502757  0.22314295  0.41447357  1
  S  S64  1  0.68501904  0.77876409  0.41414179  1
  S  S65  1  0.45419754  0.47620442  0.45374205  1
  S  S66  1  0.04040520  0.59074066  0.58336991  1
  S  S67  1  0.10077273  0.00205980  0.58154395  1
  S  S68  1  0.56911690  0.28951580  0.55305478  1
  S  S69  1  0.30891750  0.55011090  0.64681740  1
  S  S70  1  0.54457739  0.56684987  0.71969865  1
  S  S71  1  0.57091366  0.02468641  0.71580789  1
  S  S72  1  0.83048903  0.05559161  0.64510470  1
  S  S73  1  0.06128628  0.29851052  0.68160037  1
  S  S74  1  0.80828370  0.55582745  0.77894983  1
  S  S75  1  0.07701647  0.55335281  0.85022387  1
  S  S76  1  0.08824488  0.03259658  0.85371373  1
  S  S77  1  0.33393587  0.04137587  0.78176511  1
  S  S78  1  0.57903320  0.29284791  0.81578878  1
  S  S79  1  0.30966028  0.57870141  0.91469253  1
  S  S80  1  0.83973301  0.02031948  0.91422087  1
  S  S81  1  0.07103282  0.32225416  0.95391968  1
  Cl  Cl82  1  0.58683170  0.96775159  0.98291070  1
  Cl  Cl83  1  0.92911097  0.02771116  0.12226479  1
  Cl  Cl84  1  0.48448766  0.02125626  0.24308799  1
  Cl  Cl85  1  0.96500054  0.93709065  0.37775091  1
  Cl  Cl86  1  0.40462024  0.00858084  0.50570387  1
  Cl  Cl87  1  0.93658100  0.82947798  0.48287718  1
  Cl  Cl88  1  0.58847788  0.77827031  0.62220585  1
  Cl  Cl89  1  0.04224418  0.77800362  0.74317033  1
  Cl  Cl90  1  0.56032815  0.86289680  0.87758954  1
  Cl  Cl91  1  0.12093683  0.78807339  0.00586290  1
