# generated using pymatgen
data_Li26P3S18Cl5
_symmetry_space_group_name_H-M   'P 1'
_cell_length_a   9.70157583
_cell_length_b   6.96620856
_cell_length_c   42.34501095
_cell_angle_alpha   90.20040216
_cell_angle_beta   90.02781987
_cell_angle_gamma   46.00843051
_symmetry_Int_Tables_number   1
_chemical_formula_structural   Li26P3S18Cl5
_chemical_formula_sum   'Li52 P6 S36 Cl10'
_cell_volume   2058.88720040
_cell_formula_units_Z   2
loop_
 _symmetry_equiv_pos_site_id
 _symmetry_equiv_pos_as_xyz
  1  'x, y, z'
loop_
 _atom_site_type_symbol
 _atom_site_label
 _atom_site_symmetry_multiplicity
 _atom_site_fract_x
 _atom_site_fract_y
 _atom_site_fract_z
 _atom_site_occupancy
  Li  Li0  1  0.45543878  0.73833705  0.01116880  1
  Li  Li1  1  0.95234140  0.81011506  0.02193265  1
  Li  Li2  1  0.64182036  0.90938996  0.06574038  1
  Li  Li3  1  0.23072428  0.59064685  0.06320115  1
  Li  Li4  1  0.11501919  0.26122734  0.03226678  1
  Li  Li5  1  0.08941356  0.27533547  0.10757386  1
  Li  Li6  1  0.93382248  0.81055019  0.11958057  1
  Li  Li7  1  0.38268696  0.67767529  0.13613216  1
  Li  Li8  1  0.17145402  0.08071013  0.18196313  1
  Li  Li9  1  0.64186521  0.72704617  0.20206985  1
  Li  Li10  1  0.74419792  0.19015657  0.17898775  1
  Li  Li11  1  0.28358339  0.51844993  0.20003627  1
  Li  Li12  1  0.45236334  0.69745797  0.24586733  1
  Li  Li13  1  0.85011366  0.73745952  0.25926564  1
  Li  Li14  1  0.67428112  0.68459769  0.30133809  1
  Li  Li15  1  0.81005632  0.03154615  0.32901663  1
  Li  Li16  1  0.24676879  0.44821200  0.29822061  1
  Li  Li17  1  0.12153086  0.14248796  0.31913714  1
  Li  Li18  1  0.92928728  0.51460362  0.36655759  1
  Li  Li19  1  0.32401711  0.75246699  0.37718996  1
  Li  Li20  1  0.16062342  0.68940953  0.42651447  1
  Li  Li21  1  0.46574874  0.92720431  0.43133661  1
  Li  Li22  1  0.73419399  0.21673887  0.41373957  1
  Li  Li23  1  0.57374594  0.34249370  0.47455947  1
  Li  Li24  1  0.21588350  0.89308458  0.47360706  1
  Li  Li25  1  0.85912479  0.73487200  0.47236093  1
  Li  Li26  1  0.07593849  0.75924276  0.51054297  1
  Li  Li27  1  0.57711063  0.69109410  0.52098306  1
  Li  Li28  1  0.88233889  0.59332803  0.56531409  1
  Li  Li29  1  0.29193895  0.92078437  0.56150022  1
  Li  Li30  1  0.41770556  0.23908607  0.53182041  1
  Li  Li31  1  0.42906255  0.23514301  0.60710033  1
  Li  Li32  1  0.57936578  0.70553761  0.61894013  1
  Li  Li33  1  0.13690198  0.83327209  0.63566108  1
  Li  Li34  1  0.34334921  0.43552993  0.68122343  1
  Li  Li35  1  0.87310240  0.78573900  0.70085704  1
  Li  Li36  1  0.76983178  0.32258177  0.67760206  1
  Li  Li37  1  0.22256847  0.00986676  0.70159324  1
  Li  Li38  1  0.06649559  0.80408984  0.74449075  1
  Li  Li39  1  0.66968446  0.76600634  0.75801693  1
  Li  Li40  1  0.86485587  0.78820285  0.79989722  1
  Li  Li41  1  0.72476485  0.45021012  0.82870137  1
  Li  Li42  1  0.30262612  0.99852008  0.80209478  1
  Li  Li43  1  0.40924471  0.33814238  0.81775090  1
  Li  Li44  1  0.59989981  0.98607545  0.86662108  1
  Li  Li45  1  0.21060028  0.73369504  0.87758239  1
  Li  Li46  1  0.36858688  0.81091983  0.92687209  1
  Li  Li47  1  0.06456954  0.57105445  0.93173440  1
  Li  Li48  1  0.79632036  0.28181038  0.91395894  1
  Li  Li49  1  0.95759225  0.15902120  0.97507168  1
  Li  Li50  1  0.31180643  0.61000960  0.97423596  1
  Li  Li51  1  0.67333627  0.76088563  0.97286272  1
  P  P52  1  0.46325350  0.11468248  0.12937368  1
  P  P53  1  0.95678631  0.09667123  0.25109631  1
  P  P54  1  0.44523780  0.13260279  0.37030020  1
  P  P55  1  0.05601857  0.39189711  0.62883850  1
  P  P56  1  0.56093220  0.40235437  0.75049164  1
  P  P57  1  0.08352631  0.36348474  0.87065303  1
  S  S58  1  0.49725393  0.31675742  0.10014971  1
  S  S59  1  0.45301995  0.88378883  0.10140754  1
  S  S60  1  0.15722458  0.88412862  0.02182509  1
  S  S61  1  0.97759728  0.60999162  0.06974870  1
  S  S62  1  0.21083812  0.36965382  0.15499992  1
  S  S63  1  0.96330970  0.34324213  0.22602688  1
  S  S64  1  0.95753581  0.86647198  0.22009097  1
  S  S65  1  0.69845939  0.89477805  0.15848154  1
  S  S66  1  0.45808743  0.62938844  0.19030891  1
  S  S67  1  0.71803435  0.31216464  0.27925696  1
  S  S68  1  0.44971281  0.36593016  0.34212309  1
  S  S69  1  0.44302763  0.88910497  0.34289378  1
  S  S70  1  0.19624116  0.83667606  0.27895821  1
  S  S71  1  0.95009579  0.59640348  0.31249118  1
  S  S72  1  0.20982702  0.34082263  0.39975906  1
  S  S73  1  0.91868788  0.00233430  0.46404961  1
  S  S74  1  0.68646184  0.90496341  0.39849011  1
  S  S75  1  0.42608628  0.63407696  0.43021851  1
  S  S76  1  0.02660691  0.18577235  0.59915565  1
  S  S77  1  0.06768276  0.62194276  0.60126972  1
  S  S78  1  0.37252940  0.61680272  0.52096218  1
  S  S79  1  0.54635043  0.89666485  0.56914967  1
  S  S80  1  0.30599060  0.13977338  0.65484876  1
  S  S81  1  0.55070528  0.16087902  0.72492099  1
  S  S82  1  0.55616504  0.63766102  0.72008376  1
  S  S83  1  0.81800451  0.61416190  0.65753042  1
  S  S84  1  0.05645443  0.88597079  0.68963581  1
  S  S85  1  0.80057845  0.18298194  0.77840659  1
  S  S86  1  0.07878862  0.12502804  0.84333200  1
  S  S87  1  0.08879170  0.59990382  0.84255873  1
  S  S88  1  0.32171416  0.65719403  0.77892371  1
  S  S89  1  0.58734408  0.88340576  0.81263899  1
  S  S90  1  0.31919614  0.15767919  0.89984217  1
  S  S91  1  0.61088003  0.49682433  0.96435310  1
  S  S92  1  0.84186050  0.59664360  0.89888597  1
  S  S93  1  0.10422861  0.86460803  0.93061002  1
  Cl  Cl94  1  0.48063300  0.05199117  0.01635134  1
  Cl  Cl95  1  0.01413525  0.05880233  0.13633453  1
  Cl  Cl96  1  0.50866896  0.99046561  0.25327437  1
  Cl  Cl97  1  0.96650479  0.11206121  0.36747890  1
  Cl  Cl98  1  0.54074463  0.97457724  0.48273877  1
  Cl  Cl99  1  0.04813029  0.44786375  0.51589431  1
  Cl  Cl100  1  0.50509070  0.45005070  0.63592188  1
  Cl  Cl101  1  0.00908832  0.51216927  0.74966563  1
  Cl  Cl102  1  0.56495863  0.38084222  0.86754765  1
  Cl  Cl103  1  0.99127360  0.52278515  0.98325753  1
