# generated using pymatgen
data_Li28P5S24Cl5
_symmetry_space_group_name_H-M   'P 1'
_cell_length_a   9.84167872
_cell_length_b   7.09554234
_cell_length_c   49.66251462
_cell_angle_alpha   90.11468817
_cell_angle_beta   90.31196400
_cell_angle_gamma   45.21065461
_symmetry_Int_Tables_number   1
_chemical_formula_structural   Li28P5S24Cl5
_chemical_formula_sum   'Li56 P10 S48 Cl10'
_cell_volume   2461.22590503
_cell_formula_units_Z   2
loop_
 _symmetry_equiv_pos_site_id
 _symmetry_equiv_pos_as_xyz
  1  'x, y, z'
loop_
 _atom_site_type_symbol
 _atom_site_label
 _atom_site_symmetry_multiplicity
 _atom_site_fract_x
 _atom_site_fract_y
 _atom_site_fract_z
 _atom_site_occupancy
  Li  Li0  1  0.53221931  0.91003458  0.04333400  1
  Li  Li1  1  0.12761334  0.63478844  0.05570809  1
  Li  Li2  1  0.80139307  0.10847849  0.08445466  1
  Li  Li3  1  0.24985554  0.80497570  0.11054856  1
  Li  Li4  1  0.37957166  0.26375972  0.09681113  1
  Li  Li5  1  0.39916638  0.55613484  0.01326826  1
  Li  Li6  1  0.11736109  0.69496383  0.14852638  1
  Li  Li7  1  0.54374979  0.65994210  0.15409219  1
  Li  Li8  1  0.31717038  0.03747688  0.19138095  1
  Li  Li9  1  0.77023079  0.72352561  0.20760890  1
  Li  Li10  1  0.90783007  0.15934976  0.19061545  1
  Li  Li11  1  0.95031192  0.53394082  0.09535096  1
  Li  Li12  1  0.61146718  0.66508646  0.24735134  1
  Li  Li13  1  0.01366030  0.66269790  0.25553878  1
  Li  Li14  1  0.79608597  0.03582090  0.29369229  1
  Li  Li15  1  0.26373583  0.69298121  0.30854385  1
  Li  Li16  1  0.38902068  0.15145230  0.28922628  1
  Li  Li17  1  0.45390549  0.46156027  0.21000854  1
  Li  Li18  1  0.10543476  0.51909496  0.34837725  1
  Li  Li19  1  0.48908793  0.73361224  0.35706039  1
  Li  Li20  1  0.30256688  0.09526964  0.39902395  1
  Li  Li21  1  0.75811455  0.76919622  0.41057608  1
  Li  Li22  1  0.89231950  0.20897967  0.38649100  1
  Li  Li23  1  0.93917964  0.44697354  0.31179140  1
  Li  Li24  1  0.60394756  0.65621381  0.44985661  1
  Li  Li25  1  0.88299578  0.98308957  0.45393268  1
  Li  Li26  1  0.32994888  0.26619945  0.47249186  1
  Li  Li27  1  0.45408703  0.48407653  0.41378668  1
  Li  Li28  1  0.96317069  0.64878459  0.54144878  1
  Li  Li29  1  0.37179922  0.91740787  0.55489527  1
  Li  Li30  1  0.67799963  0.45167326  0.58534185  1
  Li  Li31  1  0.23832109  0.76030131  0.60939008  1
  Li  Li32  1  0.11496261  0.29573851  0.59476247  1
  Li  Li33  1  0.11108326  0.98731629  0.51229702  1
  Li  Li34  1  0.37792699  0.85958236  0.64775193  1
  Li  Li35  1  0.95636352  0.88946321  0.65307348  1
  Li  Li36  1  0.18618985  0.51203449  0.69014869  1
  Li  Li37  1  0.73269435  0.82478660  0.70655223  1
  Li  Li38  1  0.59507642  0.38916547  0.68869321  1
  Li  Li39  1  0.54704412  0.01811791  0.59518282  1
  Li  Li40  1  0.90400076  0.86579334  0.74630397  1
  Li  Li41  1  0.49442949  0.87502889  0.75386400  1
  Li  Li42  1  0.71323045  0.52324206  0.79468851  1
  Li  Li43  1  0.22847049  0.86612390  0.80834442  1
  Li  Li44  1  0.11503611  0.38427065  0.78597444  1
  Li  Li45  1  0.04331880  0.09553352  0.70912287  1
  Li  Li46  1  0.41749210  0.01350891  0.84717172  1
  Li  Li47  1  0.81285612  0.99267945  0.85603656  1
  Li  Li48  1  0.18843300  0.77293664  0.88771828  1
  Li  Li49  1  0.96904219  0.51466360  0.90825455  1
  Li  Li50  1  0.58401429  0.09978533  0.89948798  1
  Li  Li51  1  0.49579884  0.19132350  0.80623328  1
  Li  Li52  1  0.94106745  0.96910143  0.94891895  1
  Li  Li53  1  0.59649747  0.61887430  0.95953378  1
  Li  Li54  1  0.16331919  0.29019602  0.97273165  1
  Li  Li55  1  0.74205751  0.34097685  0.90730758  1
  P  P56  1  0.09290706  0.17860536  0.04340786  1
  P  P57  1  0.61418198  0.09165757  0.14901182  1
  P  P58  1  0.10518951  0.07581130  0.25164401  1
  P  P59  1  0.60169185  0.12183380  0.35272615  1
  P  P60  1  0.09850404  0.13846394  0.45393906  1
  P  P61  1  0.40471590  0.37386856  0.54286197  1
  P  P62  1  0.88327505  0.46117567  0.64790663  1
  P  P63  1  0.40833843  0.46213006  0.74990502  1
  P  P64  1  0.91916477  0.40100039  0.85124570  1
  P  P65  1  0.42504629  0.37487244  0.95607206  1
  S  S66  1  0.90540237  0.58580413  0.04249484  1
  S  S67  1  0.29717402  0.99529876  0.01274372  1
  S  S68  1  0.93968269  0.08756926  0.03974936  1
  S  S69  1  0.25822030  0.04772541  0.07822572  1
  S  S70  1  0.07935230  0.70031272  0.10258101  1
  S  S71  1  0.37897006  0.30207743  0.17372949  1
  S  S72  1  0.58965912  0.34984880  0.12426746  1
  S  S73  1  0.62645640  0.84764948  0.12386098  1
  S  S74  1  0.84558499  0.88586150  0.17457360  1
  S  S75  1  0.61039611  0.59492658  0.20073826  1
  S  S76  1  0.86730174  0.29261408  0.27585269  1
  S  S77  1  0.09648385  0.31955014  0.22727562  1
  S  S78  1  0.11911886  0.82725886  0.22750318  1
  S  S79  1  0.34237768  0.85908764  0.27637840  1
  S  S80  1  0.09445621  0.58414679  0.30147524  1
  S  S81  1  0.36765714  0.34884183  0.37764447  1
  S  S82  1  0.58525918  0.37123087  0.32811022  1
  S  S83  1  0.60827606  0.87769528  0.32883807  1
  S  S84  1  0.84628958  0.90518123  0.37580851  1
  S  S85  1  0.59986308  0.63418414  0.40288812  1
  S  S86  1  0.86707015  0.30087419  0.47780740  1
  S  S87  1  0.08018944  0.41765882  0.43576802  1
  S  S88  1  0.11720822  0.90877120  0.42542475  1
  S  S89  1  0.33266120  0.91635861  0.47913095  1
  S  S90  1  0.59170878  0.96683510  0.54215622  1
  S  S91  1  0.20105810  0.55999646  0.51187152  1
  S  S92  1  0.55993422  0.46240833  0.53976936  1
  S  S93  1  0.24009907  0.50540186  0.57744017  1
  S  S94  1  0.41030830  0.86280965  0.60210276  1
  S  S95  1  0.11924352  0.25067903  0.67279165  1
  S  S96  1  0.90360362  0.20484937  0.62336534  1
  S  S97  1  0.87103971  0.70396771  0.62265821  1
  S  S98  1  0.65333769  0.66744626  0.67334735  1
  S  S99  1  0.89252429  0.95319397  0.69973678  1
  S  S100  1  0.64908797  0.24710147  0.77357341  1
  S  S101  1  0.41023795  0.22277351  0.72578097  1
  S  S102  1  0.38138491  0.72098091  0.72572901  1
  S  S103  1  0.18009370  0.66159281  0.77616267  1
  S  S104  1  0.40617857  0.96034712  0.79979322  1
  S  S105  1  0.15935974  0.15064722  0.87537631  1
  S  S106  1  0.90967376  0.16960896  0.82791196  1
  S  S107  1  0.90987423  0.63715678  0.82594572  1
  S  S108  1  0.68614957  0.64660304  0.87660855  1
  S  S109  1  0.90617481  0.90012574  0.90245885  1
  S  S110  1  0.65034815  0.23512709  0.98013809  1
  S  S111  1  0.43870370  0.09434824  0.93965511  1
  S  S112  1  0.41723522  0.58466356  0.92564522  1
  S  S113  1  0.18297725  0.61697459  0.97945458  1
  Cl  Cl114  1  0.47757872  0.28911022  0.05242379  1
  Cl  Cl115  1  0.16277488  0.00341215  0.15567601  1
  Cl  Cl116  1  0.64675512  0.99593140  0.25291118  1
  Cl  Cl117  1  0.12186437  0.14920657  0.35574153  1
  Cl  Cl118  1  0.59532475  0.11362639  0.44629633  1
  Cl  Cl119  1  0.02587266  0.26301184  0.55014821  1
  Cl  Cl120  1  0.33529706  0.54876012  0.65425955  1
  Cl  Cl121  1  0.86280904  0.54315453  0.75072468  1
  Cl  Cl122  1  0.45233795  0.32605847  0.85405038  1
  Cl  Cl123  1  0.91719472  0.35405700  0.94602606  1
