# generated using pymatgen
data_Li26P3S18Cl5
_symmetry_space_group_name_H-M   'P 1'
_cell_length_a   9.76429338
_cell_length_b   7.00246426
_cell_length_c   42.21274570
_cell_angle_alpha   89.27465072
_cell_angle_beta   89.48140093
_cell_angle_gamma   45.71889176
_symmetry_Int_Tables_number   1
_chemical_formula_structural   Li26P3S18Cl5
_chemical_formula_sum   'Li52 P6 S36 Cl10'
_cell_volume   2066.17357168
_cell_formula_units_Z   2
loop_
 _symmetry_equiv_pos_site_id
 _symmetry_equiv_pos_as_xyz
  1  'x, y, z'
loop_
 _atom_site_type_symbol
 _atom_site_label
 _atom_site_symmetry_multiplicity
 _atom_site_fract_x
 _atom_site_fract_y
 _atom_site_fract_z
 _atom_site_occupancy
  Li  Li0  1  0.50756697  0.73245230  0.02746807  1
  Li  Li1  1  0.99433475  0.89186150  0.02654891  1
  Li  Li2  1  0.71219767  0.91712177  0.06910265  1
  Li  Li3  1  0.25491250  0.68323927  0.07375833  1
  Li  Li4  1  0.18979745  0.33964637  0.02595290  1
  Li  Li5  1  0.15488356  0.21436011  0.08651576  1
  Li  Li6  1  0.01072785  0.76625279  0.12367725  1
  Li  Li7  1  0.65910471  0.51062198  0.13318090  1
  Li  Li8  1  0.27393359  0.78201101  0.16960163  1
  Li  Li9  1  0.67954807  0.77127289  0.20744751  1
  Li  Li10  1  0.90343155  0.26132995  0.18396622  1
  Li  Li11  1  0.56349895  0.25981339  0.19317951  1
  Li  Li12  1  0.55021016  0.52653879  0.24249964  1
  Li  Li13  1  0.96122949  0.73364938  0.25253246  1
  Li  Li14  1  0.73637095  0.76482593  0.29710271  1
  Li  Li15  1  0.86340920  0.09505681  0.31894355  1
  Li  Li16  1  0.30489424  0.55113687  0.29910975  1
  Li  Li17  1  0.17940456  0.20961875  0.31960009  1
  Li  Li18  1  0.05727021  0.68410816  0.36327986  1
  Li  Li19  1  0.37417382  0.81226466  0.37988428  1
  Li  Li20  1  0.30254432  0.59007797  0.43739245  1
  Li  Li21  1  0.57040886  0.90946339  0.43355175  1
  Li  Li22  1  0.75327094  0.27539147  0.39251809  1
  Li  Li23  1  0.74609478  0.26250040  0.46788023  1
  Li  Li24  1  0.35939125  0.81097758  0.47806000  1
  Li  Li25  1  0.93344634  0.73594587  0.48865641  1
  Li  Li26  1  0.68931568  0.76319936  0.52653922  1
  Li  Li27  1  0.19823918  0.61250302  0.52625416  1
  Li  Li28  1  0.48486909  0.57376843  0.56825511  1
  Li  Li29  1  0.94208715  0.81112466  0.57330389  1
  Li  Li30  1  0.00607082  0.16109281  0.52491671  1
  Li  Li31  1  0.04237790  0.28212655  0.58622986  1
  Li  Li32  1  0.17369061  0.73564197  0.62268544  1
  Li  Li33  1  0.53357364  0.98385083  0.63333740  1
  Li  Li34  1  0.93419578  0.45915848  0.67188749  1
  Li  Li35  1  0.45468949  0.79974165  0.69937362  1
  Li  Li36  1  0.36086993  0.34571908  0.68157278  1
  Li  Li37  1  0.79776883  0.02075296  0.69969660  1
  Li  Li38  1  0.67086406  0.76643765  0.74197358  1
  Li  Li39  1  0.24168862  0.79339387  0.75461510  1
  Li  Li40  1  0.44982913  0.77673477  0.79903291  1
  Li  Li41  1  0.32923875  0.42525650  0.81944498  1
  Li  Li42  1  0.88470944  0.98572629  0.79987863  1
  Li  Li43  1  0.00575158  0.31447823  0.82078558  1
  Li  Li44  1  0.14003271  0.82699970  0.86455316  1
  Li  Li45  1  0.82214180  0.69594816  0.88109111  1
  Li  Li46  1  0.90138305  0.90312448  0.93730312  1
  Li  Li47  1  0.62841494  0.59116239  0.93517445  1
  Li  Li48  1  0.44257173  0.23414676  0.89414323  1
  Li  Li49  1  0.45415544  0.23626178  0.96919950  1
  Li  Li50  1  0.83934776  0.68835394  0.97925663  1
  Li  Li51  1  0.26664662  0.76133745  0.98931342  1
  P  P52  1  0.52132665  0.14177640  0.12989442  1
  P  P53  1  0.05651367  0.13056691  0.24821307  1
  P  P54  1  0.53514014  0.12720801  0.37002171  1
  P  P55  1  0.67059036  0.36341301  0.62952754  1
  P  P56  1  0.14478193  0.39895312  0.74934754  1
  P  P57  1  0.65930002  0.38699736  0.87127033  1
  S  S58  1  0.18164157  0.00152567  0.03600757  1
  S  S59  1  0.04327879  0.63250115  0.07047603  1
  S  S60  1  0.29193353  0.40407243  0.15892247  1
  S  S61  1  0.56267369  0.33080881  0.09892244  1
  S  S62  1  0.50026241  0.91972931  0.10274598  1
  S  S63  1  0.76093398  0.88498826  0.15828064  1
  S  S64  1  0.57274367  0.58181393  0.18831020  1
  S  S65  1  0.81330491  0.36626526  0.27657993  1
  S  S66  1  0.04723861  0.37305869  0.21892730  1
  S  S67  1  0.07310123  0.88090493  0.21940390  1
  S  S68  1  0.29321342  0.89337120  0.27759134  1
  S  S69  1  0.02448172  0.65057342  0.30843291  1
  S  S70  1  0.30275689  0.32727941  0.40006021  1
  S  S71  1  0.53287307  0.38336645  0.34438759  1
  S  S72  1  0.51670819  0.91355933  0.34074504  1
  S  S73  1  0.77813304  0.88870508  0.39722905  1
  S  S74  1  0.53329888  0.61221674  0.43003137  1
  S  S75  1  0.08136856  0.88675786  0.47838294  1
  S  S76  1  0.01395749  0.49799303  0.53576161  1
  S  S77  1  0.15203216  0.86504604  0.56954751  1
  S  S78  1  0.91017711  0.12597072  0.65733660  1
  S  S79  1  0.64331899  0.15793123  0.60012138  1
  S  S80  1  0.68082882  0.59588193  0.60119369  1
  S  S81  1  0.42766910  0.60046426  0.65740688  1
  S  S82  1  0.63920166  0.89097094  0.68762652  1
  S  S83  1  0.39410072  0.15712150  0.77522378  1
  S  S84  1  0.12599689  0.18086174  0.72132697  1
  S  S85  1  0.12693640  0.65687581  0.72085585  1
  S  S86  1  0.91326929  0.63240673  0.77973253  1
  S  S87  1  0.16856011  0.87401907  0.80998352  1
  S  S88  1  0.89361616  0.18247346  0.90082594  1
  S  S89  1  0.66140702  0.13574074  0.84553245  1
  S  S90  1  0.67413922  0.61022638  0.84216630  1
  S  S91  1  0.41810516  0.61879976  0.89895468  1
  S  S92  1  0.66552643  0.88983556  0.93126132  1
  S  S93  1  0.11802738  0.61310577  0.97916326  1
  Cl  Cl94  1  0.59241683  0.96378717  0.01772705  1
  Cl  Cl95  1  0.02758449  0.10957564  0.13097486  1
  Cl  Cl96  1  0.60106113  0.09385742  0.24757810  1
  Cl  Cl97  1  0.04424965  0.06255487  0.36403218  1
  Cl  Cl98  1  0.59595577  0.05012786  0.48266498  1
  Cl  Cl99  1  0.60751573  0.52843058  0.51661771  1
  Cl  Cl100  1  0.17118707  0.38263167  0.63247173  1
  Cl  Cl101  1  0.58728107  0.51001603  0.74913568  1
  Cl  Cl102  1  0.15267476  0.44956084  0.86543303  1
  Cl  Cl103  1  0.60502396  0.44373935  0.98440375  1
