# generated using pymatgen
data_Li28P5S24Cl5
_symmetry_space_group_name_H-M   'P 1'
_cell_length_a   9.84118425
_cell_length_b   6.99241178
_cell_length_c   49.75426236
_cell_angle_alpha   90.47622483
_cell_angle_beta   90.58019165
_cell_angle_gamma   46.12694917
_symmetry_Int_Tables_number   1
_chemical_formula_structural   Li28P5S24Cl5
_chemical_formula_sum   'Li56 P10 S48 Cl10'
_cell_volume   2467.98751878
_cell_formula_units_Z   2
loop_
 _symmetry_equiv_pos_site_id
 _symmetry_equiv_pos_as_xyz
  1  'x, y, z'
loop_
 _atom_site_type_symbol
 _atom_site_label
 _atom_site_symmetry_multiplicity
 _atom_site_fract_x
 _atom_site_fract_y
 _atom_site_fract_z
 _atom_site_occupancy
  Li  Li0  1  0.46931220  0.99349744  0.04629941  1
  Li  Li1  1  0.06577495  0.66326619  0.04966289  1
  Li  Li2  1  0.82623208  0.74407136  0.08918005  1
  Li  Li3  1  0.41656438  0.46224156  0.08662230  1
  Li  Li4  1  0.74407500  0.26595388  0.02732678  1
  Li  Li5  1  0.13137873  0.70453197  0.14242951  1
  Li  Li6  1  0.52345773  0.70927257  0.15137576  1
  Li  Li7  1  0.32756847  0.73370564  0.19168534  1
  Li  Li8  1  0.95393350  0.07462917  0.10154870  1
  Li  Li9  1  0.90142086  0.48709301  0.18708215  1
  Li  Li10  1  0.25268381  0.19048239  0.11185814  1
  Li  Li11  1  0.63063796  0.65599800  0.24395695  1
  Li  Li12  1  0.98818272  0.74437291  0.25517420  1
  Li  Li13  1  0.82585696  0.67319023  0.29419891  1
  Li  Li14  1  0.44606398  0.07449672  0.20944542  1
  Li  Li15  1  0.37128599  0.18473732  0.28212712  1
  Li  Li16  1  0.77456521  0.18367610  0.20446850  1
  Li  Li17  1  0.94023400  0.93897530  0.33373891  1
  Li  Li18  1  0.50152996  0.69029988  0.35263844  1
  Li  Li19  1  0.24888337  0.78041975  0.38863614  1
  Li  Li20  1  0.27781627  0.69859432  0.30621532  1
  Li  Li21  1  0.80861780  0.55390057  0.40476348  1
  Li  Li22  1  0.19589289  0.29213338  0.33488210  1
  Li  Li23  1  0.53938817  0.64000222  0.44508513  1
  Li  Li24  1  0.86251846  0.91165884  0.45747196  1
  Li  Li25  1  0.37066080  0.11384741  0.41306931  1
  Li  Li26  1  0.34765903  0.55829508  0.48683974  1
  Li  Li27  1  0.67839422  0.25149650  0.40548385  1
  Li  Li28  1  0.08277584  0.63008542  0.54045665  1
  Li  Li29  1  0.38426426  0.98051320  0.55100683  1
  Li  Li30  1  0.81155090  0.53207846  0.59141460  1
  Li  Li31  1  0.21411791  0.35253672  0.59260111  1
  Li  Li32  1  0.84935429  0.29344999  0.52732865  1
  Li  Li33  1  0.48334419  0.01042005  0.64346286  1
  Li  Li34  1  0.86556656  0.03803729  0.65269169  1
  Li  Li35  1  0.21533380  0.85322839  0.69134881  1
  Li  Li36  1  0.33348686  0.78994267  0.61174449  1
  Li  Li37  1  0.65214479  0.07546190  0.69131568  1
  Li  Li38  1  0.61446930  0.11033602  0.60095294  1
  Li  Li39  1  0.93846807  0.87659386  0.74565408  1
  Li  Li40  1  0.53537207  0.87524436  0.75398981  1
  Li  Li41  1  0.75684123  0.81921429  0.79319902  1
  Li  Li42  1  0.08727871  0.50948727  0.70698442  1
  Li  Li43  1  0.17670357  0.08361030  0.79166387  1
  Li  Li44  1  0.79565338  0.38646398  0.71305298  1
  Li  Li45  1  0.47272072  0.88437953  0.84705869  1
  Li  Li46  1  0.08276742  0.84602482  0.85252658  1
  Li  Li47  1  0.32857627  0.73909691  0.89029647  1
  Li  Li48  1  0.61584534  0.50743739  0.80959467  1
  Li  Li49  1  0.75859852  0.01003887  0.90516342  1
  Li  Li50  1  0.32936580  0.38515519  0.81079602  1
  Li  Li51  1  0.04153369  0.90921323  0.94518679  1
  Li  Li52  1  0.71986554  0.63925307  0.95742365  1
  Li  Li53  1  0.18756936  0.43765198  0.91627786  1
  Li  Li54  1  0.23834446  0.98439177  0.98714306  1
  Li  Li55  1  0.91702011  0.28098273  0.90454780  1
  P  P56  1  0.10820103  0.12461091  0.04586091  1
  P  P57  1  0.62209558  0.11170906  0.14715070  1
  P  P58  1  0.10493841  0.10890127  0.24897008  1
  P  P59  1  0.57069507  0.11992952  0.35156167  1
  P  P60  1  0.03118170  0.18440619  0.45637399  1
  P  P61  1  0.50006652  0.38178338  0.54405170  1
  P  P62  1  0.97664395  0.41509638  0.64851555  1
  P  P63  1  0.43981732  0.46716092  0.74965976  1
  P  P64  1  0.97356758  0.45183406  0.85208002  1
  P  P65  1  0.55217029  0.36501349  0.95724924  1
  S  S66  1  0.85193491  0.39791245  0.06507697  1
  S  S67  1  0.17075614  0.29512911  0.02210176  1
  S  S68  1  0.09075142  0.90977470  0.02041107  1
  S  S69  1  0.32554399  0.88836973  0.07345053  1
  S  S70  1  0.11666138  0.61626142  0.09640178  1
  S  S71  1  0.38930696  0.35029866  0.17176015  1
  S  S72  1  0.63649389  0.33653739  0.12330183  1
  S  S73  1  0.59582214  0.90062205  0.12240121  1
  S  S74  1  0.86154754  0.85952934  0.17038917  1
  S  S75  1  0.60868559  0.62882021  0.19703106  1
  S  S76  1  0.87768064  0.30944588  0.27356858  1
  S  S77  1  0.11365594  0.34637092  0.22608476  1
  S  S78  1  0.09145053  0.88675557  0.22339258  1
  S  S79  1  0.34976456  0.85774609  0.27124902  1
  S  S80  1  0.09413932  0.59913348  0.30036858  1
  S  S81  1  0.32466276  0.36793453  0.37366818  1
  S  S82  1  0.60016637  0.32397445  0.32715940  1
  S  S83  1  0.55537156  0.90428105  0.32532953  1
  S  S84  1  0.80754547  0.87456864  0.37575466  1
  S  S85  1  0.52071706  0.69136989  0.39803508  1
  S  S86  1  0.01281731  0.00058821  0.48720794  1
  S  S87  1  0.81036761  0.59080779  0.45730767  1
  S  S88  1  0.99986553  0.04974152  0.42164373  1
  S  S89  1  0.27391620  0.09821196  0.45955388  1
  S  S90  1  0.76660927  0.10071176  0.56061017  1
  S  S91  1  0.41241582  0.24392067  0.52007175  1
  S  S92  1  0.50231306  0.62136342  0.52074877  1
  S  S93  1  0.29742222  0.59383016  0.57426334  1
  S  S94  1  0.49018071  0.91264518  0.59713089  1
  S  S95  1  0.21539480  0.17867031  0.67230693  1
  S  S96  1  0.98644898  0.16751665  0.62391795  1
  S  S97  1  0.96739857  0.65955066  0.62385426  1
  S  S98  1  0.74348426  0.64536806  0.67291666  1
  S  S99  1  0.93978273  0.95460715  0.69953359  1
  S  S100  1  0.67809646  0.22424985  0.77364513  1
  S  S101  1  0.41684791  0.24830428  0.72588087  1
  S  S102  1  0.45760975  0.68296057  0.72475129  1
  S  S103  1  0.20793285  0.71649780  0.77398805  1
  S  S104  1  0.46881368  0.94832223  0.80051530  1
  S  S105  1  0.20940246  0.19512246  0.87665653  1
  S  S106  1  0.94535168  0.24193893  0.82757682  1
  S  S107  1  0.99616472  0.65800543  0.82653836  1
  S  S108  1  0.74434922  0.69627030  0.87738051  1
  S  S109  1  0.05366206  0.84462689  0.89837839  1
  S  S110  1  0.57336049  0.55242578  0.98759992  1
  S  S111  1  0.77195743  0.95866327  0.95829021  1
  S  S112  1  0.58293231  0.49431468  0.92232911  1
  S  S113  1  0.30802397  0.45581118  0.96082877  1
  Cl  Cl114  1  0.64845355  0.08965852  0.05347309  1
  Cl  Cl115  1  0.15741824  0.03775394  0.14684570  1
  Cl  Cl116  1  0.63221766  0.00665304  0.25093919  1
  Cl  Cl117  1  0.13801120  0.01666021  0.34570475  1
  Cl  Cl118  1  0.54048008  0.29168095  0.44853604  1
  Cl  Cl119  1  0.02625081  0.36590215  0.55395010  1
  Cl  Cl120  1  0.52408528  0.32314122  0.64607595  1
  Cl  Cl121  1  0.90085563  0.54869744  0.74828699  1
  Cl  Cl122  1  0.43380269  0.53809924  0.84536851  1
  Cl  Cl123  1  0.04399671  0.25625606  0.94883330  1
