# generated using pymatgen
data_Li6PS5Cl
_symmetry_space_group_name_H-M   'P 1'
_cell_length_a   10.60410300
_cell_length_b   9.80224400
_cell_length_c   39.51046140
_cell_angle_alpha   90.00000000
_cell_angle_beta   90.00000000
_cell_angle_gamma   90.00000000
_symmetry_Int_Tables_number   1
_chemical_formula_structural   Li6PS5Cl
_chemical_formula_sum   'Li96 P16 S80 Cl16'
_cell_volume   4106.87559802
_cell_formula_units_Z   16
loop_
 _symmetry_equiv_pos_site_id
 _symmetry_equiv_pos_as_xyz
  1  'x, y, z'
loop_
 _atom_site_type_symbol
 _atom_site_label
 _atom_site_symmetry_multiplicity
 _atom_site_fract_x
 _atom_site_fract_y
 _atom_site_fract_z
 _atom_site_occupancy
  Li  Li0  1  0.74099748  0.94440178  0.05496815  1
  Li  Li1  1  0.72499644  0.74517030  0.11819354  1
  Li  Li2  1  0.74952003  0.54888783  0.06952594  1
  Li  Li3  1  0.66386243  0.23658621  0.00751367  1
  Li  Li4  1  0.23652739  0.28043104  0.01051653  1
  Li  Li5  1  0.22521445  0.25468299  0.11677008  1
  Li  Li6  1  0.24347248  0.05117405  0.07011955  1
  Li  Li7  1  0.21486382  0.48637492  0.06002727  1
  Li  Li8  1  0.97486982  0.53435416  0.00791805  1
  Li  Li9  1  0.01275355  0.84864343  0.11199927  1
  Li  Li10  1  0.48015540  0.98195545  0.98882845  1
  Li  Li11  1  0.46388211  0.45892573  0.10164419  1
  Li  Li12  1  0.68436981  0.27516053  0.12187829  1
  Li  Li13  1  0.72780558  0.26209212  0.24513194  1
  Li  Li14  1  0.74783170  0.06691423  0.19398485  1
  Li  Li15  1  0.77746233  0.46257411  0.17578998  1
  Li  Li16  1  0.27745700  0.81683900  0.13917840  1
  Li  Li17  1  0.24901763  0.75757373  0.23975801  1
  Li  Li18  1  0.22561087  0.55239916  0.19266534  1
  Li  Li19  1  0.18925204  0.03755860  0.18508401  1
  Li  Li20  1  0.96813763  0.11694918  0.13969537  1
  Li  Li21  1  0.01768133  0.36322917  0.23803484  1
  Li  Li22  1  0.51598124  0.57096674  0.16775213  1
  Li  Li23  1  0.48149778  0.97211939  0.22164418  1
  Li  Li24  1  0.70180240  0.79232410  0.24725753  1
  Li  Li25  1  0.73535340  0.77930808  0.36748180  1
  Li  Li26  1  0.75298119  0.57883710  0.31883383  1
  Li  Li27  1  0.77842967  0.98454359  0.30187749  1
  Li  Li28  1  0.27747647  0.32530017  0.26418983  1
  Li  Li29  1  0.25183556  0.27052472  0.36521253  1
  Li  Li30  1  0.23213819  0.06234733  0.31706506  1
  Li  Li31  1  0.20321261  0.54582908  0.30934626  1
  Li  Li32  1  0.98236798  0.64238316  0.26357385  1
  Li  Li33  1  0.00807022  0.89363991  0.36154728  1
  Li  Li34  1  0.51674759  0.08184427  0.29090921  1
  Li  Li35  1  0.49237317  0.46615198  0.34662250  1
  Li  Li36  1  0.73181340  0.31680997  0.38128636  1
  Li  Li37  1  0.75956548  0.30201956  0.48965586  1
  Li  Li38  1  0.72912530  0.09966995  0.44151176  1
  Li  Li39  1  0.77307408  0.52278318  0.42835765  1
  Li  Li40  1  0.25876865  0.82655822  0.38463885  1
  Li  Li41  1  0.22685698  0.59599395  0.44143671  1
  Li  Li42  1  0.17494701  0.33932978  0.49532551  1
  Li  Li43  1  0.25645714  0.03288093  0.43111389  1
  Li  Li44  1  0.98658903  0.15492563  0.39170875  1
  Li  Li45  1  0.99132519  0.63045040  0.51285872  1
  Li  Li46  1  0.49149163  0.63019217  0.40236206  1
  Li  Li47  1  0.49513827  0.12988828  0.51243600  1
  Li  Li48  1  0.69056692  0.10865763  0.55960378  1
  Li  Li49  1  0.65625775  0.33064396  0.61591594  1
  Li  Li50  1  0.67539674  0.53432610  0.56690909  1
  Li  Li51  1  0.67564251  0.83975915  0.49175817  1
  Li  Li52  1  0.25808588  0.80365707  0.49044674  1
  Li  Li53  1  0.19553458  0.81404649  0.62455866  1
  Li  Li54  1  0.15183448  0.01003082  0.57142146  1
  Li  Li55  1  0.18222301  0.61317345  0.55963500  1
  Li  Li56  1  0.42100990  0.52135720  0.50737386  1
  Li  Li57  1  0.42379505  0.11221281  0.60243029  1
  Li  Li58  1  0.92391411  0.01826521  0.51002757  1
  Li  Li59  1  0.87692627  0.73682613  0.61283913  1
  Li  Li60  1  0.55005214  0.71574857  0.63148860  1
  Li  Li61  1  0.65074970  0.82124496  0.74091386  1
  Li  Li62  1  0.67717729  0.01574134  0.69017845  1
  Li  Li63  1  0.69489659  0.57879650  0.68334707  1
  Li  Li64  1  0.19271361  0.28490629  0.63322315  1
  Li  Li65  1  0.17587194  0.30282620  0.74223456  1
  Li  Li66  1  0.15845581  0.50909288  0.69427357  1
  Li  Li67  1  0.04255682  0.07139114  0.66450730  1
  Li  Li68  1  0.37127142  0.00878381  0.67314226  1
  Li  Li69  1  0.41993029  0.59880110  0.72763170  1
  Li  Li70  1  0.92059441  0.45387739  0.63887998  1
  Li  Li71  1  0.86746969  0.22575576  0.73716332  1
  Li  Li72  1  0.54963345  0.20677713  0.75500622  1
  Li  Li73  1  0.64909240  0.30302202  0.86349430  1
  Li  Li74  1  0.66770213  0.50229258  0.81452279  1
  Li  Li75  1  0.69631156  0.05367953  0.80731423  1
  Li  Li76  1  0.18769252  0.77471556  0.75861278  1
  Li  Li77  1  0.18009966  0.79121123  0.86973068  1
  Li  Li78  1  0.13814374  0.99118253  0.81919484  1
  Li  Li79  1  0.03217773  0.55861708  0.78504110  1
  Li  Li80  1  0.35486771  0.49340274  0.79832605  1
  Li  Li81  1  0.39855592  0.08911482  0.83696927  1
  Li  Li82  1  0.91819343  0.94107493  0.76122809  1
  Li  Li83  1  0.89199806  0.68743993  0.86043872  1
  Li  Li84  1  0.62866225  0.73465061  0.88672629  1
  Li  Li85  1  0.67102852  0.77219882  0.99009272  1
  Li  Li86  1  0.68297043  0.99088761  0.93825237  1
  Li  Li87  1  0.69318976  0.49941588  0.92997784  1
  Li  Li88  1  0.17333527  0.25682877  0.88000112  1
  Li  Li89  1  0.15251269  0.45480661  0.94307989  1
  Li  Li90  1  0.18723542  0.75191339  0.00205668  1
  Li  Li91  1  0.13805463  0.06035322  0.92769817  1
  Li  Li92  1  0.41586087  0.95706586  0.90039230  1
  Li  Li93  1  0.40858651  0.55059673  0.99133884  1
  Li  Li94  1  0.92041725  0.40553027  0.88474917  1
  Li  Li95  1  0.91572898  0.05247908  0.99137574  1
  P  P96  1  0.45106446  0.76922860  0.06283215  1
  P  P97  1  0.94596107  0.25927251  0.06287137  1
  P  P98  1  0.45863076  0.27324207  0.18747885  1
  P  P99  1  0.96081941  0.77666474  0.18761324  1
  P  P100  1  0.46922098  0.78596381  0.31163276  1
  P  P101  1  0.96688184  0.29252140  0.31293792  1
  P  P102  1  0.46071742  0.31240042  0.43666582  1
  P  P103  1  0.96122078  0.81629388  0.43704806  1
  P  P104  1  0.95963592  0.31456095  0.56474900  1
  P  P105  1  0.46039750  0.81646896  0.56287131  1
  P  P106  1  0.95320917  0.79691436  0.68914107  1
  P  P107  1  0.45408705  0.30636899  0.68768877  1
  P  P108  1  0.94701897  0.28397494  0.81125310  1
  P  P109  1  0.44556260  0.79029383  0.81390644  1
  P  P110  1  0.94274668  0.75922283  0.93490329  1
  P  P111  1  0.43980982  0.27140320  0.93586089  1
  S  S112  1  0.55621863  0.63600683  0.03345205  1
  S  S113  1  0.55687449  0.89248813  0.09232893  1
  S  S114  1  0.06174026  0.13815815  0.03333119  1
  S  S115  1  0.03935945  0.38718023  0.09460862  1
  S  S116  1  0.34068254  0.88864216  0.03078592  1
  S  S117  1  0.32859873  0.65779651  0.09291918  1
  S  S118  1  0.83111876  0.37363400  0.03096362  1
  S  S119  1  0.82895063  0.13291497  0.09062274  1
  S  S120  1  0.69999313  0.00846289  0.99744996  1
  S  S121  1  0.55429535  0.13313136  0.15934971  1
  S  S122  1  0.56916596  0.40471985  0.21486017  1
  S  S123  1  0.07090522  0.66444297  0.15538073  1
  S  S124  1  0.05665057  0.89378415  0.22175595  1
  S  S125  1  0.34588224  0.39691974  0.15668787  1
  S  S126  1  0.33850115  0.16695114  0.21954271  1
  S  S127  1  0.84650466  0.89813247  0.15707915  1
  S  S128  1  0.84217359  0.64758342  0.21462170  1
  S  S129  1  0.16979335  0.02407094  0.12647312  1
  S  S130  1  0.66711446  0.51187949  0.12468832  1
  S  S131  1  0.56696545  0.64901952  0.28319946  1
  S  S132  1  0.57429713  0.92143362  0.33931538  1
  S  S133  1  0.07415990  0.17708531  0.28056952  1
  S  S134  1  0.06538930  0.41114452  0.34614180  1
  S  S135  1  0.35279395  0.90446595  0.28100941  1
  S  S136  1  0.35425665  0.67256917  0.34417897  1
  S  S137  1  0.85470302  0.41462988  0.28174116  1
  S  S138  1  0.84782066  0.16756012  0.34066478  1
  S  S139  1  0.17766506  0.53395636  0.25075276  1
  S  S140  1  0.67605038  0.02904878  0.24971268  1
  S  S141  1  0.55404476  0.17954997  0.40643310  1
  S  S142  1  0.57334762  0.44101651  0.46511879  1
  S  S143  1  0.05927620  0.69276455  0.40483076  1
  S  S144  1  0.07203868  0.93983413  0.46697489  1
  S  S145  1  0.34504362  0.43172906  0.40613188  1
  S  S146  1  0.34489232  0.20460556  0.46969297  1
  S  S147  1  0.84643734  0.93601547  0.40651274  1
  S  S148  1  0.84622519  0.70002789  0.46809841  1
  S  S149  1  0.17919463  0.04551506  0.37469790  1
  S  S150  1  0.67778928  0.55019500  0.37471021  1
  S  S151  1  0.20567199  0.57197175  0.50083885  1
  S  S152  1  0.85424186  0.44252281  0.53400182  1
  S  S153  1  0.85399161  0.19972390  0.59715089  1
  S  S154  1  0.34810022  0.94867714  0.53577979  1
  S  S155  1  0.36055729  0.68617827  0.59386190  1
  S  S156  1  0.06482928  0.18787902  0.53368139  1
  S  S157  1  0.08003564  0.43218392  0.59346034  1
  S  S158  1  0.56192777  0.69376412  0.52984014  1
  S  S159  1  0.58182268  0.92285394  0.59330984  1
  S  S160  1  0.70984122  0.06968729  0.50068528  1
  S  S161  1  0.85418106  0.92289087  0.65697565  1
  S  S162  1  0.84578800  0.68613110  0.72206686  1
  S  S163  1  0.34673800  0.43740401  0.65988014  1
  S  S164  1  0.35639825  0.17656441  0.71928342  1
  S  S165  1  0.05185663  0.66696746  0.65684496  1
  S  S166  1  0.07862225  0.91620197  0.71565162  1
  S  S167  1  0.55342689  0.17594526  0.65559534  1
  S  S168  1  0.57832245  0.41371893  0.71762099  1
  S  S169  1  0.22388493  0.04934263  0.62781010  1
  S  S170  1  0.72179311  0.55922122  0.62489476  1
  S  S171  1  0.84421519  0.40908580  0.77970908  1
  S  S172  1  0.84418855  0.16991454  0.84444877  1
  S  S173  1  0.34113779  0.92677195  0.78599020  1
  S  S174  1  0.35075244  0.66020668  0.84475169  1
  S  S175  1  0.04701500  0.15495667  0.77897709  1
  S  S176  1  0.07246103  0.40611983  0.83697261  1
  S  S177  1  0.54817506  0.66766014  0.78089252  1
  S  S178  1  0.56585426  0.90729218  0.84376399  1
  S  S179  1  0.21867600  0.53888235  0.75098496  1
  S  S180  1  0.71857787  0.04662640  0.74857149  1
  S  S181  1  0.83802171  0.87558315  0.90249583  1
  S  S182  1  0.83639374  0.63265048  0.96556426  1
  S  S183  1  0.33920366  0.40206628  0.90704369  1
  S  S184  1  0.32943050  0.13963556  0.96411667  1
  S  S185  1  0.05668700  0.63735465  0.90513179  1
  S  S186  1  0.05222086  0.88403385  0.96517782  1
  S  S187  1  0.55782822  0.15474881  0.90565071  1
  S  S188  1  0.55214040  0.38392785  0.96873517  1
  S  S189  1  0.22603196  0.02406619  0.87322169  1
  S  S190  1  0.72643826  0.52494445  0.87202877  1
  S  S191  1  0.19235885  0.51653432  0.00056011  1
  Cl  Cl192  1  0.87914187  0.75271098  0.06830338  1
  Cl  Cl193  1  0.35982182  0.28315688  0.06558351  1
  Cl  Cl194  1  0.89757241  0.26069831  0.19018630  1
  Cl  Cl195  1  0.39581891  0.76701081  0.19069051  1
  Cl  Cl196  1  0.89814049  0.78027971  0.31493979  1
  Cl  Cl197  1  0.39741010  0.27685020  0.31511401  1
  Cl  Cl198  1  0.87383270  0.30013036  0.43329976  1
  Cl  Cl199  1  0.37887654  0.80134324  0.43625958  1
  Cl  Cl200  1  0.52365901  0.28556416  0.56425431  1
  Cl  Cl201  1  0.01724013  0.79956769  0.56415806  1
  Cl  Cl202  1  0.51079195  0.79941509  0.68938423  1
  Cl  Cl203  1  0.01120257  0.30267922  0.68739452  1
  Cl  Cl204  1  0.50337658  0.29099946  0.81240916  1
  Cl  Cl205  1  0.00444255  0.78811646  0.80924177  1
  Cl  Cl206  1  0.51337008  0.79691274  0.93928810  1
  Cl  Cl207  1  0.01542536  0.26813301  0.92787175  1
