# generated using pymatgen
data_Li6PS5Cl
_symmetry_space_group_name_H-M   'P 1'
_cell_length_a   10.60410300
_cell_length_b   9.80224400
_cell_length_c   39.55535860
_cell_angle_alpha   90.00000000
_cell_angle_beta   90.00000000
_cell_angle_gamma   90.00000000
_symmetry_Int_Tables_number   1
_chemical_formula_structural   Li6PS5Cl
_chemical_formula_sum   'Li96 P16 S80 Cl16'
_cell_volume   4111.54239189
_cell_formula_units_Z   16
loop_
 _symmetry_equiv_pos_site_id
 _symmetry_equiv_pos_as_xyz
  1  'x, y, z'
loop_
 _atom_site_type_symbol
 _atom_site_label
 _atom_site_symmetry_multiplicity
 _atom_site_fract_x
 _atom_site_fract_y
 _atom_site_fract_z
 _atom_site_occupancy
  Li  Li0  1  0.74767830  0.77963977  0.05519065  1
  Li  Li1  1  0.75419544  0.38459249  0.07054808  1
  Li  Li2  1  0.69260657  0.07615832  0.00197170  1
  Li  Li3  1  0.23143344  0.10646730  0.01079607  1
  Li  Li4  1  0.24367821  0.87709722  0.07013101  1
  Li  Li5  1  0.21705995  0.31400441  0.06100479  1
  Li  Li6  1  0.97725216  0.37433507  0.00761766  1
  Li  Li7  1  0.48583336  0.85701518  0.00210815  1
  Li  Li8  1  0.71059700  0.11977867  0.12592304  1
  Li  Li9  1  0.73084119  0.58439202  0.11833620  1
  Li  Li10  1  0.74610014  0.90193147  0.19334248  1
  Li  Li11  1  0.76679606  0.31263372  0.17833046  1
  Li  Li12  1  0.27537391  0.64278045  0.13777338  1
  Li  Li13  1  0.23584685  0.08116822  0.11713465  1
  Li  Li14  1  0.23796431  0.39528380  0.19350959  1
  Li  Li15  1  0.21360084  0.85800730  0.18507338  1
  Li  Li16  1  0.97772063  0.95232439  0.14073843  1
  Li  Li17  1  0.01348691  0.68436927  0.11280094  1
  Li  Li18  1  0.51406041  0.41060943  0.16733306  1
  Li  Li19  1  0.47381036  0.28309725  0.10266088  1
  Li  Li20  1  0.73814401  0.64596344  0.25551152  1
  Li  Li21  1  0.73876507  0.10322250  0.24229433  1
  Li  Li22  1  0.73922755  0.41612980  0.31753109  1
  Li  Li23  1  0.74746035  0.84755940  0.30515289  1
  Li  Li24  1  0.24732844  0.15055563  0.25907880  1
  Li  Li25  1  0.24601233  0.59815821  0.24213096  1
  Li  Li26  1  0.23784428  0.91505588  0.31801722  1
  Li  Li27  1  0.23742417  0.35346459  0.30698268  1
  Li  Li28  1  0.98713569  0.47594739  0.27127379  1
  Li  Li29  1  0.99135282  0.26121038  0.22937056  1
  Li  Li30  1  0.49091311  0.96177318  0.27671253  1
  Li  Li31  1  0.48732792  0.78378617  0.22531008  1
  Li  Li32  1  0.73456540  0.16526964  0.38151301  1
  Li  Li33  1  0.73945660  0.61998075  0.36574502  1
  Li  Li34  1  0.72022409  0.93990670  0.43930395  1
  Li  Li35  1  0.75823435  0.36976288  0.42895480  1
  Li  Li36  1  0.24355321  0.66778102  0.38211645  1
  Li  Li37  1  0.23755048  0.12048485  0.36728053  1
  Li  Li38  1  0.17352814  0.18111723  0.49412501  1
  Li  Li39  1  0.25521863  0.86596303  0.42972380  1
  Li  Li40  1  0.98305216  0.99282288  0.39681128  1
  Li  Li41  1  0.98512031  0.79457230  0.35162730  1
  Li  Li42  1  0.48627493  0.49849392  0.39653662  1
  Li  Li43  1  0.48352446  0.29538029  0.35241390  1
  Li  Li44  1  0.73810765  0.14747134  0.48900834  1
  Li  Li45  1  0.23692440  0.46401364  0.44359459  1
  Li  Li46  1  0.98287363  0.43849068  0.50826327  1
  Li  Li47  1  0.47899329  0.91333440  0.49794397  1
  Li  Li48  1  0.66001587  0.96726302  0.55706585  1
  Li  Li49  1  0.64499746  0.36536815  0.57045834  1
  Li  Li50  1  0.68798289  0.67742786  0.49727441  1
  Li  Li51  1  0.18731207  0.64869020  0.50687199  1
  Li  Li52  1  0.16020443  0.87659963  0.56994550  1
  Li  Li53  1  0.18649297  0.43717980  0.56137643  1
  Li  Li54  1  0.41912104  0.37536158  0.50681493  1
  Li  Li55  1  0.91513042  0.88385475  0.50554806  1
  Li  Li56  1  0.66931164  0.62387888  0.63177451  1
  Li  Li57  1  0.66498784  0.16607681  0.61836772  1
  Li  Li58  1  0.66169502  0.85140894  0.69305283  1
  Li  Li59  1  0.65332655  0.42285062  0.68105782  1
  Li  Li60  1  0.13432195  0.11066470  0.63690742  1
  Li  Li61  1  0.16262938  0.66947638  0.61722574  1
  Li  Li62  1  0.15836827  0.35099733  0.69349123  1
  Li  Li63  1  0.17870101  0.89860430  0.68401588  1
  Li  Li64  1  0.42212597  0.79915655  0.64169625  1
  Li  Li65  1  0.38873117  0.06310026  0.61250297  1
  Li  Li66  1  0.91076566  0.30976955  0.65237513  1
  Li  Li67  1  0.91731251  0.49035616  0.60204387  1
  Li  Li68  1  0.65563926  0.10048396  0.75674503  1
  Li  Li69  1  0.65709820  0.64856353  0.74082241  1
  Li  Li70  1  0.68344723  0.35589253  0.81490856  1
  Li  Li71  1  0.65843351  0.89758639  0.80611078  1
  Li  Li72  1  0.15843749  0.60195089  0.75852433  1
  Li  Li73  1  0.15861530  0.14798459  0.74335998  1
  Li  Li74  1  0.15399699  0.82569095  0.81906805  1
  Li  Li75  1  0.15819884  0.39960489  0.80638028  1
  Li  Li76  1  0.41275744  0.28104387  0.77357801  1
  Li  Li77  1  0.41082078  0.47704051  0.72715412  1
  Li  Li78  1  0.91012771  0.77008920  0.77235057  1
  Li  Li79  1  0.91365788  0.97268728  0.72760288  1
  Li  Li80  1  0.66496314  0.58282100  0.88213105  1
  Li  Li81  1  0.63399826  0.14268520  0.86181888  1
  Li  Li82  1  0.67966467  0.81500993  0.93829639  1
  Li  Li83  1  0.65680443  0.37858487  0.92934492  1
  Li  Li84  1  0.16359204  0.08275449  0.88151988  1
  Li  Li85  1  0.16941389  0.62508507  0.86844071  1
  Li  Li86  1  0.20451474  0.57473466  0.99783067  1
  Li  Li87  1  0.14542432  0.88397299  0.92954342  1
  Li  Li88  1  0.41832069  0.76061530  0.89842542  1
  Li  Li89  1  0.41126300  0.94006155  0.84781084  1
  Li  Li90  1  0.88790353  0.18756040  0.88721659  1
  Li  Li91  1  0.92342899  0.45089248  0.85809047  1
  Li  Li92  1  0.66771488  0.60697841  0.98898795  1
  Li  Li93  1  0.15174064  0.28194975  0.94392887  1
  Li  Li94  1  0.41460135  0.35093399  0.99832705  1
  Li  Li95  1  0.92192046  0.88059947  0.99079110  1
  P  P96  1  0.45666114  0.59775265  0.06313403  1
  P  P97  1  0.95182332  0.09021577  0.06426660  1
  P  P98  1  0.46727579  0.11108785  0.18748688  1
  P  P99  1  0.96864150  0.61390422  0.18882660  1
  P  P100  1  0.47027401  0.63451866  0.31128053  1
  P  P101  1  0.96921658  0.13454840  0.31223522  1
  P  P102  1  0.45403324  0.16245682  0.43509920  1
  P  P103  1  0.95890202  0.65710305  0.43616589  1
  P  P104  1  0.94145257  0.15546408  0.56442870  1
  P  P105  1  0.44979797  0.66095921  0.56463912  1
  P  P106  1  0.93184931  0.63554820  0.68770833  1
  P  P107  1  0.43073994  0.13376223  0.68878186  1
  P  P108  1  0.93123171  0.11558625  0.81081036  1
  P  P109  1  0.43132002  0.61431202  0.81187022  1
  P  P110  1  0.94709121  0.59137861  0.93535234  1
  P  P111  1  0.43991951  0.09657359  0.93530687  1
  S  S112  1  0.56482623  0.46665539  0.03389502  1
  S  S113  1  0.06287183  0.96564771  0.03435480  1
  S  S114  1  0.34257596  0.71335028  0.03124955  1
  S  S115  1  0.84024366  0.21042030  0.03287751  1
  S  S116  1  0.70440405  0.84296452  0.99754022  1
  S  S117  1  0.56295242  0.97699949  0.15794087  1
  S  S118  1  0.56026000  0.72685071  0.09166227  1
  S  S119  1  0.07401081  0.49742404  0.15641834  1
  S  S120  1  0.04798143  0.21384395  0.09647706  1
  S  S121  1  0.34788687  0.22989363  0.15753558  1
  S  S122  1  0.33833821  0.48278269  0.09350056  1
  S  S123  1  0.85126275  0.73255457  0.15847209  1
  S  S124  1  0.83355001  0.96592687  0.09202121  1
  S  S125  1  0.17617353  0.85356386  0.12686433  1
  S  S126  1  0.67095039  0.35347447  0.12581244  1
  S  S127  1  0.56842974  0.50573450  0.28069215  1
  S  S128  1  0.57133345  0.24688668  0.21538998  1
  S  S129  1  0.06879250  0.00868147  0.28114553  1
  S  S130  1  0.06424871  0.73657241  0.22154562  1
  S  S131  1  0.35211634  0.75415238  0.28099909  1
  S  S132  1  0.35418192  0.99712114  0.22023752  1
  S  S133  1  0.85233547  0.25424797  0.28152038  1
  S  S134  1  0.85343402  0.48624713  0.21772298  1
  S  S135  1  0.17667591  0.37318789  0.25012300  1
  S  S136  1  0.67671740  0.87546815  0.24956530  1
  S  S137  1  0.54868303  0.03293889  0.40420086  1
  S  S138  1  0.56958207  0.76477304  0.34139189  1
  S  S139  1  0.05917600  0.52987112  0.40641455  1
  S  S140  1  0.06618669  0.26208366  0.34339544  1
  S  S141  1  0.34000758  0.28631828  0.40560764  1
  S  S142  1  0.35316910  0.51589025  0.34200945  1
  S  S143  1  0.84421187  0.77661996  0.40537292  1
  S  S144  1  0.85108905  0.01355449  0.34224908  1
  S  S145  1  0.17262606  0.89349201  0.37446644  1
  S  S146  1  0.67412722  0.39398726  0.37404127  1
  S  S147  1  0.56518317  0.28768818  0.46479144  1
  S  S148  1  0.06561461  0.78692740  0.46600715  1
  S  S149  1  0.33570209  0.04914633  0.46634143  1
  S  S150  1  0.84289948  0.54275621  0.46777261  1
  S  S151  1  0.20150856  0.41107235  0.50181380  1
  S  S152  1  0.83410671  0.28524329  0.53476209  1
  S  S153  1  0.34015365  0.78971862  0.53517309  1
  S  S154  1  0.05663451  0.04055546  0.53278288  1
  S  S155  1  0.55734530  0.53921699  0.53276119  1
  S  S156  1  0.69788054  0.91248261  0.49878889  1
  S  S157  1  0.83625271  0.76597386  0.65705903  1
  S  S158  1  0.84092943  0.02647834  0.59375682  1
  S  S159  1  0.32755290  0.25275376  0.65631488  1
  S  S160  1  0.35123754  0.53830805  0.59664532  1
  S  S161  1  0.05146747  0.51799064  0.65726676  1
  S  S162  1  0.05534812  0.27528157  0.59526786  1
  S  S163  1  0.54916630  0.01635407  0.65834727  1
  S  S164  1  0.56939596  0.78098858  0.59286848  1
  S  S165  1  0.22483853  0.89685019  0.62628198  1
  S  S166  1  0.72746774  0.39499305  0.62556396  1
  S  S167  1  0.83568739  0.23954199  0.77845217  1
  S  S168  1  0.83163198  0.50521584  0.71744616  1
  S  S169  1  0.33104157  0.74471429  0.78215503  1
  S  S170  1  0.33448649  0.00833736  0.72054981  1
  S  S171  1  0.04621858  0.98910632  0.78157837  1
  S  S172  1  0.04713934  0.75321780  0.71935573  1
  S  S173  1  0.54719447  0.49733309  0.78007612  1
  S  S174  1  0.54497280  0.25947176  0.71834787  1
  S  S175  1  0.22354494  0.37594121  0.74978402  1
  S  S176  1  0.72391162  0.87365847  0.74980444  1
  S  S177  1  0.85047309  0.71581147  0.90339956  1
  S  S178  1  0.82696401  0.99777857  0.84319584  1
  S  S179  1  0.33642051  0.22499170  0.90666138  1
  S  S180  1  0.33529944  0.48254692  0.84205561  1
  S  S181  1  0.06600449  0.46928701  0.90721363  1
  S  S182  1  0.04937060  0.23317937  0.84121640  1
  S  S183  1  0.55348268  0.97786510  0.90392112  1
  S  S184  1  0.55085039  0.73178048  0.84224867  1
  S  S185  1  0.22804937  0.85368823  0.87441571  1
  S  S186  1  0.72567703  0.35484451  0.87287403  1
  S  S187  1  0.83646402  0.46568949  0.96514343  1
  S  S188  1  0.33452314  0.96691398  0.96546273  1
  S  S189  1  0.05762517  0.71071628  0.96711191  1
  S  S190  1  0.55711796  0.21091703  0.96655973  1
  S  S191  1  0.19514053  0.34124103  0.00150505  1
  Cl  Cl192  1  0.88333018  0.58830403  0.06953758  1
  Cl  Cl193  1  0.36506819  0.11040360  0.06504844  1
  Cl  Cl194  1  0.88945526  0.10730855  0.18849579  1
  Cl  Cl195  1  0.39157399  0.60342977  0.19040865  1
  Cl  Cl196  1  0.88258981  0.63340648  0.31203347  1
  Cl  Cl197  1  0.38191894  0.13347051  0.31288989  1
  Cl  Cl198  1  0.86633238  0.14404193  0.43458090  1
  Cl  Cl199  1  0.37921375  0.65434483  0.43241144  1
  Cl  Cl200  1  0.51738739  0.15762452  0.56884904  1
  Cl  Cl201  1  0.03239988  0.63905388  0.56296662  1
  Cl  Cl202  1  0.51888932  0.63669192  0.68680439  1
  Cl  Cl203  1  0.01358410  0.13996602  0.68909598  1
  Cl  Cl204  1  0.51261624  0.10867994  0.81014428  1
  Cl  Cl205  1  0.01786327  0.61268364  0.81271221  1
  Cl  Cl206  1  0.53541985  0.60653532  0.93468771  1
  Cl  Cl207  1  0.01463115  0.08883196  0.93069750  1
