# generated using pymatgen
data_Li6PS5Cl
_symmetry_space_group_name_H-M   'P 1'
_cell_length_a   10.60410300
_cell_length_b   9.80224400
_cell_length_c   39.34468860
_cell_angle_alpha   90.00000000
_cell_angle_beta   90.00000000
_cell_angle_gamma   90.00000000
_symmetry_Int_Tables_number   1
_chemical_formula_structural   Li6PS5Cl
_chemical_formula_sum   'Li96 P16 S80 Cl16'
_cell_volume   4089.64450910
_cell_formula_units_Z   16
loop_
 _symmetry_equiv_pos_site_id
 _symmetry_equiv_pos_as_xyz
  1  'x, y, z'
loop_
 _atom_site_type_symbol
 _atom_site_label
 _atom_site_symmetry_multiplicity
 _atom_site_fract_x
 _atom_site_fract_y
 _atom_site_fract_z
 _atom_site_occupancy
  Li  Li0  1  0.73307168  0.74084026  0.04172005  1
  Li  Li1  1  0.76477047  0.43879391  0.06694761  1
  Li  Li2  1  0.92099809  0.91946689  0.00567474  1
  Li  Li3  1  0.35856857  0.23586197  0.00781764  1
  Li  Li4  1  0.27937873  0.96200544  0.06851490  1
  Li  Li5  1  0.21872597  0.41823925  0.05804301  1
  Li  Li6  1  0.98735603  0.49108808  0.01115613  1
  Li  Li7  1  0.64488794  0.01514600  0.05257964  1
  Li  Li8  1  0.76753242  0.20533605  0.13381851  1
  Li  Li9  1  0.77179881  0.65019911  0.11474525  1
  Li  Li10  1  0.71242929  0.92632197  0.18944374  1
  Li  Li11  1  0.75452033  0.41076804  0.18159074  1
  Li  Li12  1  0.25319981  0.70119744  0.13050351  1
  Li  Li13  1  0.25013311  0.16042673  0.12050338  1
  Li  Li14  1  0.28700405  0.49633275  0.19775471  1
  Li  Li15  1  0.26799987  0.89763176  0.18036930  1
  Li  Li16  1  0.00742265  0.01570906  0.15197269  1
  Li  Li17  1  0.00238420  0.84845618  0.09680827  1
  Li  Li18  1  0.50905480  0.54011073  0.14406568  1
  Li  Li19  1  0.50656634  0.32002129  0.10404574  1
  Li  Li20  1  0.77282784  0.72350400  0.26114766  1
  Li  Li21  1  0.78706069  0.15187167  0.23495348  1
  Li  Li22  1  0.69293783  0.43224159  0.31340597  1
  Li  Li23  1  0.72595361  0.93925695  0.30740294  1
  Li  Li24  1  0.23073080  0.21426017  0.25217628  1
  Li  Li25  1  0.20916034  0.68591952  0.25377515  1
  Li  Li26  1  0.28572729  0.01710559  0.32350053  1
  Li  Li27  1  0.27178111  0.40544216  0.30538549  1
  Li  Li28  1  0.00453844  0.49434732  0.28483023  1
  Li  Li29  1  0.02778347  0.40128579  0.20939314  1
  Li  Li30  1  0.52323207  0.10477963  0.26024195  1
  Li  Li31  1  0.50667511  0.80148604  0.23841272  1
  Li  Li32  1  0.75068406  0.22539292  0.38418547  1
  Li  Li33  1  0.78424514  0.65847479  0.35938998  1
  Li  Li34  1  0.71849622  0.98488595  0.43811134  1
  Li  Li35  1  0.74138711  0.43327763  0.43034850  1
  Li  Li36  1  0.23529747  0.73176255  0.38134395  1
  Li  Li37  1  0.19353449  0.20189247  0.37883780  1
  Li  Li38  1  0.20020208  0.22446563  0.50041603  1
  Li  Li39  1  0.25463756  0.92669224  0.43054774  1
  Li  Li40  1  0.97835384  0.01424130  0.39948403  1
  Li  Li41  1  0.02648895  0.90386107  0.33176134  1
  Li  Li42  1  0.52018025  0.61840902  0.38729838  1
  Li  Li43  1  0.49374213  0.31953645  0.36414070  1
  Li  Li44  1  0.73162587  0.19119526  0.48941924  1
  Li  Li45  1  0.25763239  0.53316674  0.44654311  1
  Li  Li46  1  0.99071330  0.43214736  0.49578377  1
  Li  Li47  1  0.47425668  0.89538805  0.48552037  1
  Li  Li48  1  0.64193161  0.02354218  0.55417902  1
  Li  Li49  1  0.64335866  0.41777221  0.57087935  1
  Li  Li50  1  0.71069688  0.72227617  0.50392552  1
  Li  Li51  1  0.15866850  0.69455718  0.51195934  1
  Li  Li52  1  0.15635055  0.93094603  0.57014800  1
  Li  Li53  1  0.17362316  0.48909533  0.56205534  1
  Li  Li54  1  0.42462652  0.41174994  0.51326923  1
  Li  Li55  1  0.90861587  0.94475565  0.50302887  1
  Li  Li56  1  0.67415082  0.68682047  0.62876311  1
  Li  Li57  1  0.66525230  0.22172405  0.61935598  1
  Li  Li58  1  0.52357164  0.92178252  0.71377880  1
  Li  Li59  1  0.62501527  0.48836421  0.68006646  1
  Li  Li60  1  0.13191082  0.16670294  0.63681410  1
  Li  Li61  1  0.13835307  0.72764174  0.61722351  1
  Li  Li62  1  0.17839856  0.41209600  0.69355631  1
  Li  Li63  1  0.16476131  0.96356434  0.68563214  1
  Li  Li64  1  0.39373628  0.79843335  0.63903940  1
  Li  Li65  1  0.40099807  0.08179150  0.61296140  1
  Li  Li66  1  0.88350873  0.38651018  0.66519856  1
  Li  Li67  1  0.91664004  0.52654179  0.60296276  1
  Li  Li68  1  0.65927585  0.17427610  0.75844650  1
  Li  Li69  1  0.67042503  0.70513209  0.74147332  1
  Li  Li70  1  0.52966087  0.40589339  0.83618247  1
  Li  Li71  1  0.64272483  0.96591714  0.80635451  1
  Li  Li72  1  0.13749796  0.65532101  0.75997396  1
  Li  Li73  1  0.03025063  0.27244415  0.74641927  1
  Li  Li74  1  0.17506008  0.89418671  0.81707395  1
  Li  Li75  1  0.16068031  0.45854501  0.81069979  1
  Li  Li76  1  0.35122591  0.24959850  0.76324941  1
  Li  Li77  1  0.40237932  0.53572946  0.73883412  1
  Li  Li78  1  0.90442530  0.87730977  0.77420223  1
  Li  Li79  1  0.84901232  0.98217966  0.70314546  1
  Li  Li80  1  0.66410799  0.66041663  0.88169352  1
  Li  Li81  1  0.67304121  0.18999693  0.86656983  1
  Li  Li82  1  0.48732260  0.90485675  0.98750473  1
  Li  Li83  1  0.63748390  0.44082302  0.92938949  1
  Li  Li84  1  0.13866572  0.14524867  0.88566088  1
  Li  Li85  1  0.02818325  0.76140052  0.87003527  1
  Li  Li86  1  0.22939806  0.64718746  0.99445287  1
  Li  Li87  1  0.14120796  0.94450442  0.93313086  1
  Li  Li88  1  0.35362539  0.73875410  0.88611382  1
  Li  Li89  1  0.40201728  0.02555313  0.86168294  1
  Li  Li90  1  0.91076657  0.36389598  0.89985639  1
  Li  Li91  1  0.85587144  0.47012923  0.82850717  1
  Li  Li92  1  0.65745272  0.68318529  0.97653679  1
  Li  Li93  1  0.06868180  0.22381174  0.98652480  1
  Li  Li94  1  0.34218151  0.43402457  0.94947234  1
  Li  Li95  1  0.76340891  0.99092952  0.94354273  1
  P  P96  1  0.48102664  0.66734297  0.06026672  1
  P  P97  1  0.97714779  0.17093152  0.06275485  1
  P  P98  1  0.48277243  0.18986635  0.18615236  1
  P  P99  1  0.98323995  0.69371832  0.18726610  1
  P  P100  1  0.47081704  0.70351365  0.31245554  1
  P  P101  1  0.97118724  0.20209384  0.31201343  1
  P  P102  1  0.45489173  0.21803680  0.43711310  1
  P  P103  1  0.96115690  0.70692402  0.43675802  1
  P  P104  1  0.93580626  0.20653904  0.56347706  1
  P  P105  1  0.44032733  0.71710754  0.56450680  1
  P  P106  1  0.93275425  0.68707248  0.68696859  1
  P  P107  1  0.43390405  0.19305381  0.68797733  1
  P  P108  1  0.93734358  0.17042615  0.81322294  1
  P  P109  1  0.43788818  0.67965409  0.81119579  1
  P  P110  1  0.94530201  0.65762797  0.93736823  1
  P  P111  1  0.44113286  0.16034515  0.93430805  1
  S  S112  1  0.59076140  0.54482485  0.03032141  1
  S  S113  1  0.58972391  0.79444392  0.08966059  1
  S  S114  1  0.08958743  0.04252744  0.03393018  1
  S  S115  1  0.07720169  0.29296057  0.09501950  1
  S  S116  1  0.36142139  0.78464327  0.03072208  1
  S  S117  1  0.37046385  0.54686451  0.09233088  1
  S  S118  1  0.87079398  0.28000033  0.02870859  1
  S  S119  1  0.85445068  0.04910063  0.09105346  1
  S  S120  1  0.70336470  0.90693744  0.99918634  1
  S  S121  1  0.57938209  0.06824827  0.15315949  1
  S  S122  1  0.59015600  0.30293344  0.21897513  1
  S  S123  1  0.09028737  0.55837238  0.15990635  1
  S  S124  1  0.08105869  0.83002303  0.21614130  1
  S  S125  1  0.36975638  0.32022391  0.15723556  1
  S  S126  1  0.36364694  0.07125659  0.21599201  1
  S  S127  1  0.87043847  0.80841316  0.15422229  1
  S  S128  1  0.86452817  0.57686086  0.21750473  1
  S  S129  1  0.19316938  0.92946753  0.12400380  1
  S  S130  1  0.69491056  0.42963259  0.12414726  1
  S  S131  1  0.56836350  0.58926069  0.27746808  1
  S  S132  1  0.58273922  0.81273548  0.34504641  1
  S  S133  1  0.08138933  0.06995991  0.28459376  1
  S  S134  1  0.06895691  0.34302518  0.33973653  1
  S  S135  1  0.35519063  0.83345509  0.28469649  1
  S  S136  1  0.35786949  0.58034840  0.34258369  1
  S  S137  1  0.85177532  0.30880326  0.27989618  1
  S  S138  1  0.85986343  0.07963609  0.34350676  1
  S  S139  1  0.18938223  0.44850565  0.25050126  1
  S  S140  1  0.68942914  0.94190213  0.24856990  1
  S  S141  1  0.55111048  0.09991573  0.40306388  1
  S  S142  1  0.56692881  0.34090274  0.46714647  1
  S  S143  1  0.07138968  0.58297322  0.40847311  1
  S  S144  1  0.06472454  0.84110596  0.46633138  1
  S  S145  1  0.33721052  0.34480918  0.40959455  1
  S  S146  1  0.34814773  0.09389708  0.46850555  1
  S  S147  1  0.84060335  0.81688686  0.40572636  1
  S  S148  1  0.85025888  0.58853965  0.46891546  1
  S  S149  1  0.17839611  0.96484337  0.37497253  1
  S  S150  1  0.68213890  0.44970848  0.37265399  1
  S  S151  1  0.20811001  0.45934989  0.50316924  1
  S  S152  1  0.83100510  0.33751569  0.53335304  1
  S  S153  1  0.82974350  0.07730504  0.59133190  1
  S  S154  1  0.33120559  0.83839113  0.53334165  1
  S  S155  1  0.34161100  0.59694014  0.59755302  1
  S  S156  1  0.05170945  0.09129982  0.53175328  1
  S  S157  1  0.05074423  0.32314778  0.59444934  1
  S  S158  1  0.55411624  0.59499348  0.53421259  1
  S  S159  1  0.55287894  0.84375168  0.59353192  1
  S  S160  1  0.68941001  0.95444296  0.49712485  1
  S  S161  1  0.84007082  0.81739592  0.65572672  1
  S  S162  1  0.82616570  0.55217783  0.71479532  1
  S  S163  1  0.32766323  0.30503297  0.65492578  1
  S  S164  1  0.33441250  0.06664261  0.72015089  1
  S  S165  1  0.05349773  0.56573025  0.65794132  1
  S  S166  1  0.03543820  0.80971139  0.72000510  1
  S  S167  1  0.55784659  0.07237068  0.66117351  1
  S  S168  1  0.53333620  0.32285281  0.72021888  1
  S  S169  1  0.21770041  0.94719944  0.62774093  1
  S  S170  1  0.71999667  0.45338111  0.62640789  1
  S  S171  1  0.83915307  0.30168921  0.78188202  1
  S  S172  1  0.83020147  0.03752564  0.84069792  1
  S  S173  1  0.33038320  0.79093626  0.77819672  1
  S  S174  1  0.33884181  0.55183023  0.84304770  1
  S  S175  1  0.06193336  0.06444882  0.78289609  1
  S  S176  1  0.03621500  0.29982230  0.84573854  1
  S  S177  1  0.56359662  0.56127776  0.78440086  1
  S  S178  1  0.53451175  0.80876364  0.84418486  1
  S  S179  1  0.20305518  0.42873216  0.75211107  1
  S  S180  1  0.70541570  0.93975250  0.74923393  1
  S  S181  1  0.83936630  0.79065129  0.90853316  1
  S  S182  1  0.83156595  0.52498132  0.96443230  1
  S  S183  1  0.33936391  0.27153668  0.90005865  1
  S  S184  1  0.32298692  0.04474622  0.96519625  1
  S  S185  1  0.06556565  0.55389251  0.90683596  1
  S  S186  1  0.05112767  0.77240282  0.97186200  1
  S  S187  1  0.56684575  0.03760008  0.90838549  1
  S  S188  1  0.53212784  0.28725428  0.96764207  1
  S  S189  1  0.20323509  0.91680342  0.87557427  1
  S  S190  1  0.70892248  0.42527538  0.87343704  1
  S  S191  1  0.20240554  0.41508130  0.99927336  1
  Cl  Cl192  1  0.91983606  0.65224880  0.06400327  1
  Cl  Cl193  1  0.43279524  0.15573940  0.06354407  1
  Cl  Cl194  1  0.91241233  0.20371864  0.18452110  1
  Cl  Cl195  1  0.41497695  0.69622689  0.18499832  1
  Cl  Cl196  1  0.91522922  0.70465394  0.30962657  1
  Cl  Cl197  1  0.41729879  0.21241031  0.31013313  1
  Cl  Cl198  1  0.87093697  0.19062566  0.43588389  1
  Cl  Cl199  1  0.39491114  0.72831020  0.43289131  1
  Cl  Cl200  1  0.50830198  0.21735392  0.56887364  1
  Cl  Cl201  1  0.02443911  0.69497644  0.56471252  1
  Cl  Cl202  1  0.49357056  0.69159694  0.69060363  1
  Cl  Cl203  1  0.99075630  0.18760913  0.68821282  1
  Cl  Cl204  1  0.49925205  0.17367598  0.81276327  1
  Cl  Cl205  1  0.99577726  0.67975711  0.81104760  1
  Cl  Cl206  1  0.48317411  0.64279917  0.93568768  1
  Cl  Cl207  1  0.97728732  0.14229701  0.93460243  1
