# generated using pymatgen
data_Li6PS5Cl
_symmetry_space_group_name_H-M   'P 1'
_cell_length_a   10.60410300
_cell_length_b   9.80224400
_cell_length_c   39.37413262
_cell_angle_alpha   90.00000000
_cell_angle_beta   90.00000000
_cell_angle_gamma   90.00000000
_symmetry_Int_Tables_number   1
_chemical_formula_structural   Li6PS5Cl
_chemical_formula_sum   'Li96 P16 S80 Cl16'
_cell_volume   4092.70503814
_cell_formula_units_Z   16
loop_
 _symmetry_equiv_pos_site_id
 _symmetry_equiv_pos_as_xyz
  1  'x, y, z'
loop_
 _atom_site_type_symbol
 _atom_site_label
 _atom_site_symmetry_multiplicity
 _atom_site_fract_x
 _atom_site_fract_y
 _atom_site_fract_z
 _atom_site_occupancy
  Li  Li0  1  0.75623942  0.89344410  0.05465812  1
  Li  Li1  1  0.75586738  0.49237984  0.06991890  1
  Li  Li2  1  0.68937007  0.19046878  0.00383613  1
  Li  Li3  1  0.23100510  0.22223504  0.01019854  1
  Li  Li4  1  0.24451232  0.98897029  0.06924255  1
  Li  Li5  1  0.22262176  0.42767962  0.06152237  1
  Li  Li6  1  0.97716271  0.51262021  0.01319246  1
  Li  Li7  1  0.01659293  0.79467238  0.11224478  1
  Li  Li8  1  0.48644258  0.96878195  0.00279262  1
  Li  Li9  1  0.48591177  0.37056008  0.10124702  1
  Li  Li10  1  0.73451421  0.23737603  0.13156512  1
  Li  Li11  1  0.74056442  0.69343342  0.11757049  1
  Li  Li12  1  0.74628072  0.01219331  0.19331369  1
  Li  Li13  1  0.74784148  0.43950770  0.18117518  1
  Li  Li14  1  0.27044636  0.75370074  0.13745771  1
  Li  Li15  1  0.23808031  0.19277458  0.11725923  1
  Li  Li16  1  0.24580758  0.50864215  0.19358942  1
  Li  Li17  1  0.22037690  0.96855390  0.18408913  1
  Li  Li18  1  0.97939342  0.06185926  0.14012639  1
  Li  Li19  1  0.99017914  0.38210903  0.22715498  1
  Li  Li20  1  0.49166966  0.55181635  0.15185832  1
  Li  Li21  1  0.49008418  0.89228925  0.22642590  1
  Li  Li22  1  0.74724708  0.76228383  0.25695553  1
  Li  Li23  1  0.74207144  0.21431407  0.24136033  1
  Li  Li24  1  0.72116993  0.50895574  0.31586100  1
  Li  Li25  1  0.74404897  0.96608928  0.30654375  1
  Li  Li26  1  0.24524216  0.26026589  0.25892396  1
  Li  Li27  1  0.24535622  0.71235838  0.24325245  1
  Li  Li28  1  0.24905577  0.03591583  0.31915774  1
  Li  Li29  1  0.24376668  0.46361735  0.30674184  1
  Li  Li30  1  0.98894716  0.58058965  0.27325672  1
  Li  Li31  1  0.99321776  0.92333322  0.34758237  1
  Li  Li32  1  0.49113345  0.08936821  0.27293459  1
  Li  Li33  1  0.48063072  0.41096981  0.35937369  1
  Li  Li34  1  0.73965715  0.28312556  0.38256435  1
  Li  Li35  1  0.76986712  0.72242665  0.36242367  1
  Li  Li36  1  0.72253987  0.04759103  0.43799753  1
  Li  Li37  1  0.74522889  0.48437243  0.43047239  1
  Li  Li38  1  0.24208433  0.78305000  0.38227255  1
  Li  Li39  1  0.23404283  0.23843527  0.36886241  1
  Li  Li40  1  0.19194137  0.28363262  0.49685896  1
  Li  Li41  1  0.25484913  0.98258571  0.43035059  1
  Li  Li42  1  0.98450837  0.10164777  0.39877170  1
  Li  Li43  1  0.98753928  0.50455419  0.49699485  1
  Li  Li44  1  0.51611893  0.67827194  0.38812686  1
  Li  Li45  1  0.47725769  0.95944925  0.48620090  1
  Li  Li46  1  0.73003511  0.25384364  0.48954881  1
  Li  Li47  1  0.25664903  0.58197046  0.44585554  1
  Li  Li48  1  0.64393656  0.08152248  0.55414142  1
  Li  Li49  1  0.64394156  0.48220503  0.57001458  1
  Li  Li50  1  0.70862909  0.78365701  0.50313242  1
  Li  Li51  1  0.17139421  0.75257431  0.51058133  1
  Li  Li52  1  0.15740613  0.98649728  0.56941382  1
  Li  Li53  1  0.17813143  0.54737979  0.56200742  1
  Li  Li54  1  0.42314841  0.45964639  0.51369797  1
  Li  Li55  1  0.38403832  0.17842932  0.61189694  1
  Li  Li56  1  0.91278304  0.00399473  0.50298313  1
  Li  Li57  1  0.91634948  0.60197479  0.60092539  1
  Li  Li58  1  0.66821401  0.73845575  0.63110280  1
  Li  Li59  1  0.65995743  0.28265614  0.61786289  1
  Li  Li60  1  0.65614127  0.96406496  0.69329053  1
  Li  Li61  1  0.65101535  0.53604893  0.68082499  1
  Li  Li62  1  0.13004620  0.22248564  0.63792304  1
  Li  Li63  1  0.16042633  0.78333969  0.61738788  1
  Li  Li64  1  0.15570916  0.46641353  0.69350351  1
  Li  Li65  1  0.17913348  0.00876648  0.68419933  1
  Li  Li66  1  0.41977341  0.91098659  0.64064912  1
  Li  Li67  1  0.40854132  0.59223211  0.72742908  1
  Li  Li68  1  0.90814332  0.42374461  0.65233389  1
  Li  Li69  1  0.91046411  0.08282865  0.72708477  1
  Li  Li70  1  0.65373535  0.21315248  0.75671745  1
  Li  Li71  1  0.65521071  0.76057574  0.74132074  1
  Li  Li72  1  0.67705453  0.46481630  0.81588437  1
  Li  Li73  1  0.65409118  0.00901724  0.80644826  1
  Li  Li74  1  0.15754344  0.71474304  0.75867315  1
  Li  Li75  1  0.15246209  0.26278655  0.74316890  1
  Li  Li76  1  0.15243130  0.94043103  0.81900533  1
  Li  Li77  1  0.15369248  0.51282918  0.80665656  1
  Li  Li78  1  0.40876636  0.39266141  0.77309047  1
  Li  Li79  1  0.40834822  0.05251019  0.84812386  1
  Li  Li80  1  0.90977887  0.88471328  0.77296754  1
  Li  Li81  1  0.91875681  0.56413830  0.85898052  1
  Li  Li82  1  0.66014288  0.69319697  0.88281019  1
  Li  Li83  1  0.62971049  0.25395967  0.86274156  1
  Li  Li84  1  0.67738771  0.92771733  0.93844265  1
  Li  Li85  1  0.65548452  0.48894200  0.93067406  1
  Li  Li86  1  0.16007478  0.19400966  0.88232557  1
  Li  Li87  1  0.16591594  0.73761730  0.86849502  1
  Li  Li88  1  0.20850061  0.69147388  0.99629321  1
  Li  Li89  1  0.14204765  0.99363868  0.92997828  1
  Li  Li90  1  0.41471033  0.87456591  0.89924541  1
  Li  Li91  1  0.41306073  0.47216810  0.99649969  1
  Li  Li92  1  0.88366355  0.29596964  0.88775473  1
  Li  Li93  1  0.92130574  0.01047914  0.98718716  1
  Li  Li94  1  0.66966344  0.72139986  0.98973266  1
  Li  Li95  1  0.14241227  0.39405706  0.94536936  1
  P  P96  1  0.46443857  0.70642209  0.06392330  1
  P  P97  1  0.95444505  0.20331247  0.06363440  1
  P  P98  1  0.47138588  0.22526979  0.18766428  1
  P  P99  1  0.97278278  0.72769268  0.18863313  1
  P  P100  1  0.47244921  0.74705406  0.31127393  1
  P  P101  1  0.97120359  0.24857528  0.31239516  1
  P  P102  1  0.45526288  0.27195858  0.43620885  1
  P  P103  1  0.96498404  0.76748273  0.43603208  1
  P  P104  1  0.93581685  0.26772148  0.56396248  1
  P  P105  1  0.44553840  0.77193949  0.56388289  1
  P  P106  1  0.92899766  0.74940349  0.68765693  1
  P  P107  1  0.42744485  0.24769786  0.68869080  1
  P  P108  1  0.92722956  0.22808596  0.81137734  1
  P  P109  1  0.42844730  0.72556302  0.81236665  1
  P  P110  1  0.94446038  0.70324086  0.93602576  1
  P  P111  1  0.43534803  0.20712542  0.93611114  1
  S  S112  1  0.56830079  0.57544495  0.03366672  1
  S  S113  1  0.56973905  0.83521269  0.09210053  1
  S  S114  1  0.06374174  0.07714043  0.03360623  1
  S  S115  1  0.05130252  0.32592041  0.09620874  1
  S  S116  1  0.34659807  0.82043904  0.03263252  1
  S  S117  1  0.35117921  0.58885534  0.09574556  1
  S  S118  1  0.84603559  0.32422067  0.03159893  1
  S  S119  1  0.83400899  0.08186906  0.09169545  1
  S  S120  1  0.70517335  0.95824785  0.99754911  1
  S  S121  1  0.56796553  0.09396384  0.15738450  1
  S  S122  1  0.57035792  0.35658811  0.21762906  1
  S  S123  1  0.07674208  0.60828942  0.15632653  1
  S  S124  1  0.06838131  0.85297354  0.22073972  1
  S  S125  1  0.35228763  0.34270645  0.15699521  1
  S  S126  1  0.35527439  0.10861610  0.21948910  1
  S  S127  1  0.85458306  0.84448295  0.15778617  1
  S  S128  1  0.85756133  0.60265651  0.21829164  1
  S  S129  1  0.17738668  0.96471410  0.12591659  1
  S  S130  1  0.67543942  0.46544482  0.12527045  1
  S  S131  1  0.56848347  0.62260970  0.27907298  1
  S  S132  1  0.57598442  0.86642768  0.34370678  1
  S  S133  1  0.07097951  0.11765436  0.28253826  1
  S  S134  1  0.06678129  0.38042253  0.34278353  1
  S  S135  1  0.35716976  0.87218401  0.28166258  1
  S  S136  1  0.35472948  0.62986041  0.34213559  1
  S  S137  1  0.85450899  0.36481569  0.28056070  1
  S  S138  1  0.85200701  0.13103446  0.34302549  1
  S  S139  1  0.17797411  0.48492312  0.24991070  1
  S  S140  1  0.67891974  0.98883732  0.25005758  1
  S  S141  1  0.55188540  0.14999929  0.40340175  1
  S  S142  1  0.56425486  0.39849641  0.46623320  1
  S  S143  1  0.07148659  0.63950889  0.40797350  1
  S  S144  1  0.06852121  0.89821031  0.46646840  1
  S  S145  1  0.33494802  0.39386104  0.40827547  1
  S  S146  1  0.34765449  0.15066909  0.46837698  1
  S  S147  1  0.85205774  0.88528103  0.40416529  1
  S  S148  1  0.84711022  0.65305468  0.46720740  1
  S  S149  1  0.17564119  0.00980895  0.37484316  1
  S  S150  1  0.67787287  0.51052209  0.37391885  1
  S  S151  1  0.20678426  0.51584242  0.50288739  1
  S  S152  1  0.83220577  0.39896478  0.53368476  1
  S  S153  1  0.82952142  0.13952083  0.59201208  1
  S  S154  1  0.33680173  0.89842459  0.53376197  1
  S  S155  1  0.34855718  0.65009426  0.59661156  1
  S  S156  1  0.05322101  0.15318565  0.53265687  1
  S  S157  1  0.04936130  0.38503715  0.59579468  1
  S  S158  1  0.55318250  0.65049885  0.53177077  1
  S  S159  1  0.56575564  0.89380561  0.59185215  1
  S  S160  1  0.69375915  0.01614142  0.49707858  1
  S  S161  1  0.83359446  0.88134241  0.65724289  1
  S  S162  1  0.82895792  0.61857971  0.71745123  1
  S  S163  1  0.32363288  0.36665849  0.65624660  1
  S  S164  1  0.33155747  0.12324784  0.72093808  1
  S  S165  1  0.04837732  0.63181926  0.65704699  1
  S  S166  1  0.04531618  0.86585400  0.71953359  1
  S  S167  1  0.54551300  0.13053629  0.65791328  1
  S  S168  1  0.54237614  0.37314660  0.71831354  1
  S  S169  1  0.22250624  0.01081459  0.62613395  1
  S  S170  1  0.72559969  0.50978247  0.62518391  1
  S  S171  1  0.83165454  0.35305975  0.77918724  1
  S  S172  1  0.82331313  0.10862483  0.84367604  1
  S  S173  1  0.32945310  0.85670368  0.78233980  1
  S  S174  1  0.33188205  0.59417582  0.84260882  1
  S  S175  1  0.04275170  0.10303480  0.78178814  1
  S  S176  1  0.04525237  0.34515572  0.84216091  1
  S  S177  1  0.54461899  0.60880196  0.78058812  1
  S  S178  1  0.54734893  0.84342369  0.84300140  1
  S  S179  1  0.22050113  0.48947951  0.74993694  1
  S  S180  1  0.72163850  0.98574249  0.75014889  1
  S  S181  1  0.84743725  0.82612742  0.90355615  1
  S  S182  1  0.83581795  0.57683468  0.96617933  1
  S  S183  1  0.33016065  0.33615929  0.90799136  1
  S  S184  1  0.33138171  0.07564340  0.96620454  1
  S  S185  1  0.06424648  0.58172073  0.90788551  1
  S  S186  1  0.05296647  0.82439299  0.96802391  1
  S  S187  1  0.54896685  0.08962283  0.90431261  1
  S  S188  1  0.55304050  0.32104721  0.96741646  1
  S  S189  1  0.22467036  0.96610333  0.87480192  1
  S  S190  1  0.72198804  0.46533643  0.87396025  1
  S  S191  1  0.19407420  0.45912570  0.00244463  1
  Cl  Cl192  1  0.89194473  0.69521077  0.06734882  1
  Cl  Cl193  1  0.36703877  0.21754885  0.06422039  1
  Cl  Cl194  1  0.88383335  0.22443600  0.18673176  1
  Cl  Cl195  1  0.39093259  0.71942962  0.18947288  1
  Cl  Cl196  1  0.89055213  0.75341726  0.31045917  1
  Cl  Cl197  1  0.38431657  0.25001077  0.31311504  1
  Cl  Cl198  1  0.86749921  0.25697346  0.43561135  1
  Cl  Cl199  1  0.39281823  0.78081073  0.43279284  1
  Cl  Cl200  1  0.50775701  0.28046982  0.56724467  1
  Cl  Cl201  1  0.03341867  0.75699717  0.56429545  1
  Cl  Cl202  1  0.51592532  0.75069239  0.68695997  1
  Cl  Cl203  1  0.00892531  0.25411764  0.68962299  1
  Cl  Cl204  1  0.50969844  0.22140245  0.81068142  1
  Cl  Cl205  1  0.01615304  0.72534281  0.81324990  1
  Cl  Cl206  1  0.53201377  0.71837614  0.93591721  1
  Cl  Cl207  1  0.00771615  0.19607709  0.93250120  1
