# generated using pymatgen
data_Li6PS5Cl
_symmetry_space_group_name_H-M   'P 1'
_cell_length_a   10.60410300
_cell_length_b   9.80224400
_cell_length_c   39.35668822
_cell_angle_alpha   90.00000000
_cell_angle_beta   90.00000000
_cell_angle_gamma   90.00000000
_symmetry_Int_Tables_number   1
_chemical_formula_structural   Li6PS5Cl
_chemical_formula_sum   'Li96 P16 S80 Cl16'
_cell_volume   4090.89179748
_cell_formula_units_Z   16
loop_
 _symmetry_equiv_pos_site_id
 _symmetry_equiv_pos_as_xyz
  1  'x, y, z'
loop_
 _atom_site_type_symbol
 _atom_site_label
 _atom_site_symmetry_multiplicity
 _atom_site_fract_x
 _atom_site_fract_y
 _atom_site_fract_z
 _atom_site_occupancy
  Li  Li0  1  0.75785072  0.71955394  0.05402538  1
  Li  Li1  1  0.69170962  0.01918429  0.00304475  1
  Li  Li2  1  0.23121973  0.04833586  0.01089570  1
  Li  Li3  1  0.22136151  0.25485580  0.06205083  1
  Li  Li4  1  0.97693637  0.34307299  0.01402014  1
  Li  Li5  1  0.48760245  0.79776094  0.00342905  1
  Li  Li6  1  0.73182937  0.06224374  0.13066569  1
  Li  Li7  1  0.73937074  0.51961459  0.11778080  1
  Li  Li8  1  0.75551456  0.31943306  0.06973442  1
  Li  Li9  1  0.74859751  0.26324436  0.18075981  1
  Li  Li10  1  0.26809573  0.57887952  0.13727578  1
  Li  Li11  1  0.24098400  0.01785739  0.11678579  1
  Li  Li12  1  0.24376633  0.81317370  0.06932226  1
  Li  Li13  1  0.22076617  0.79127178  0.18411817  1
  Li  Li14  1  0.98070404  0.89253377  0.14062112  1
  Li  Li15  1  0.01564925  0.62492622  0.11179974  1
  Li  Li16  1  0.49158268  0.37574143  0.15207974  1
  Li  Li17  1  0.48375651  0.19888478  0.10075866  1
  Li  Li18  1  0.74575004  0.58669031  0.25668714  1
  Li  Li19  1  0.74252043  0.03895796  0.24124290  1
  Li  Li20  1  0.74499508  0.83617874  0.19322169  1
  Li  Li21  1  0.74439190  0.78815294  0.30642576  1
  Li  Li22  1  0.24294233  0.08445717  0.25843239  1
  Li  Li23  1  0.24582200  0.53764261  0.24318266  1
  Li  Li24  1  0.24539814  0.33507376  0.19334955  1
  Li  Li25  1  0.24370479  0.28642972  0.30672997  1
  Li  Li26  1  0.99032271  0.40778675  0.27265425  1
  Li  Li27  1  0.99131178  0.20859393  0.22707550  1
  Li  Li28  1  0.49089526  0.91555213  0.27283063  1
  Li  Li29  1  0.49048324  0.71501121  0.22700775  1
  Li  Li30  1  0.73824603  0.10488139  0.38231956  1
  Li  Li31  1  0.76783939  0.54561657  0.36272122  1
  Li  Li32  1  0.72063632  0.33401843  0.31575561  1
  Li  Li33  1  0.74579785  0.30704217  0.43026187  1
  Li  Li34  1  0.23988716  0.60509753  0.38227155  1
  Li  Li35  1  0.23374390  0.06140384  0.36905304  1
  Li  Li36  1  0.24715682  0.86112603  0.31873994  1
  Li  Li37  1  0.25428443  0.80660822  0.43000383  1
  Li  Li38  1  0.98381193  0.92816581  0.39758008  1
  Li  Li39  1  0.99164440  0.74515605  0.34771725  1
  Li  Li40  1  0.51557261  0.49998383  0.38817372  1
  Li  Li41  1  0.47971453  0.23370345  0.35929800  1
  Li  Li42  1  0.73006079  0.07739561  0.48950865  1
  Li  Li43  1  0.72248638  0.87147428  0.43801067  1
  Li  Li44  1  0.25613309  0.40529354  0.44582098  1
  Li  Li45  1  0.19160703  0.10890231  0.49688530  1
  Li  Li46  1  0.98699528  0.33055925  0.49718541  1
  Li  Li47  1  0.47599351  0.78655927  0.48674890  1
  Li  Li48  1  0.64364547  0.90535353  0.55423832  1
  Li  Li49  1  0.70865434  0.60824150  0.50350701  1
  Li  Li50  1  0.16984456  0.57756714  0.51052848  1
  Li  Li51  1  0.17742331  0.37165300  0.56200940  1
  Li  Li52  1  0.42387911  0.28721719  0.51337961  1
  Li  Li53  1  0.91290094  0.83049042  0.50282982  1
  Li  Li54  1  0.66645608  0.56229735  0.63105179  1
  Li  Li55  1  0.65955244  0.10568628  0.61754862  1
  Li  Li56  1  0.64550562  0.30729507  0.56998598  1
  Li  Li57  1  0.65162109  0.36160374  0.68092443  1
  Li  Li58  1  0.13202021  0.04620414  0.63724206  1
  Li  Li59  1  0.16151900  0.60543984  0.61767134  1
  Li  Li60  1  0.15544545  0.81001275  0.56963705  1
  Li  Li61  1  0.17704204  0.83685702  0.68432166  1
  Li  Li62  1  0.42004270  0.73647237  0.64126202  1
  Li  Li63  1  0.38439990  0.00014299  0.61184351  1
  Li  Li64  1  0.90839860  0.24661015  0.65207086  1
  Li  Li65  1  0.91664783  0.42850708  0.60234102  1
  Li  Li66  1  0.65408859  0.03774507  0.75681150  1
  Li  Li67  1  0.65759213  0.58601559  0.74129429  1
  Li  Li68  1  0.65648081  0.78792915  0.69331937  1
  Li  Li69  1  0.65458552  0.83543558  0.80657754  1
  Li  Li70  1  0.15776161  0.54009459  0.75857418  1
  Li  Li71  1  0.15572354  0.08710501  0.74363142  1
  Li  Li72  1  0.15604115  0.28828956  0.69366578  1
  Li  Li73  1  0.15628910  0.33717834  0.80672088  1
  Li  Li74  1  0.41186305  0.21868197  0.77354260  1
  Li  Li75  1  0.41035561  0.41636961  0.72710802  1
  Li  Li76  1  0.91006534  0.70843768  0.77290575  1
  Li  Li77  1  0.90992311  0.90923612  0.72741152  1
  Li  Li78  1  0.66087607  0.51977932  0.88260053  1
  Li  Li79  1  0.62990445  0.08034663  0.86201653  1
  Li  Li80  1  0.68222344  0.29425663  0.81562626  1
  Li  Li81  1  0.65533910  0.31638029  0.93037514  1
  Li  Li82  1  0.15758499  0.01676365  0.88240392  1
  Li  Li83  1  0.16819736  0.56180304  0.86934502  1
  Li  Li84  1  0.15125129  0.76305419  0.81941596  1
  Li  Li85  1  0.14557601  0.81864879  0.93069420  1
  Li  Li86  1  0.41647892  0.70007463  0.89926455  1
  Li  Li87  1  0.40793817  0.87615193  0.84797668  1
  Li  Li88  1  0.88394946  0.12483418  0.88816491  1
  Li  Li89  1  0.92071174  0.39080269  0.85948485  1
  Li  Li90  1  0.66868710  0.54874338  0.98921543  1
  Li  Li91  1  0.67756198  0.75543664  0.93800975  1
  Li  Li92  1  0.14160230  0.21804822  0.94622862  1
  Li  Li93  1  0.20856380  0.51756972  0.99625752  1
  Li  Li94  1  0.41232012  0.29672122  0.99686446  1
  Li  Li95  1  0.92292941  0.84286645  0.98598795  1
  P  P96  1  0.46451780  0.53295694  0.06374173  1
  P  P97  1  0.95524523  0.02898865  0.06368338  1
  P  P98  1  0.47103906  0.05028218  0.18749257  1
  P  P99  1  0.97215197  0.55325309  0.18850471  1
  P  P100  1  0.47154451  0.57066515  0.31128913  1
  P  P101  1  0.97051392  0.07305918  0.31215223  1
  P  P102  1  0.45447682  0.09601244  0.43621191  1
  P  P103  1  0.96364949  0.59177194  0.43604496  1
  P  P104  1  0.93560262  0.09238266  0.56397426  1
  P  P105  1  0.44469187  0.59651065  0.56406228  1
  P  P106  1  0.92943333  0.57356893  0.68781760  1
  P  P107  1  0.42853401  0.07160836  0.68873503  1
  P  P108  1  0.92808488  0.05354863  0.81149144  1
  P  P109  1  0.42942940  0.55132453  0.81251179  1
  P  P110  1  0.94466258  0.52920885  0.93641610  1
  P  P111  1  0.43474261  0.03360333  0.93601759  1
  S  S112  1  0.56834905  0.40190433  0.03345477  1
  S  S113  1  0.06423323  0.90282296  0.03356196  1
  S  S114  1  0.34688427  0.64688079  0.03238436  1
  S  S115  1  0.84778567  0.15085501  0.03163762  1
  S  S116  1  0.70649026  0.78609005  0.99712123  1
  S  S117  1  0.56705680  0.91904531  0.15705998  1
  S  S118  1  0.57029818  0.66197429  0.09167835  1
  S  S119  1  0.07596265  0.43436462  0.15604754  1
  S  S120  1  0.05193203  0.15050304  0.09659924  1
  S  S121  1  0.35153340  0.16808195  0.15692143  1
  S  S122  1  0.35138016  0.41554148  0.09568569  1
  S  S123  1  0.85447475  0.67072706  0.15768922  1
  S  S124  1  0.83512223  0.90684862  0.09164862  1
  S  S125  1  0.17739997  0.79113300  0.12600548  1
  S  S126  1  0.67475538  0.29119974  0.12501515  1
  S  S127  1  0.56731017  0.44651014  0.27892475  1
  S  S128  1  0.57054386  0.18141087  0.21741330  1
  S  S129  1  0.06995005  0.94259646  0.28206351  1
  S  S130  1  0.06767139  0.67770607  0.22086782  1
  S  S131  1  0.35672698  0.69658728  0.28170852  1
  S  S132  1  0.35517427  0.93335724  0.21936597  1
  S  S133  1  0.85465117  0.19062022  0.28044448  1
  S  S134  1  0.85708620  0.42761242  0.21807217  1
  S  S135  1  0.17906115  0.31025689  0.24978130  1
  S  S136  1  0.67860259  0.81352012  0.25003263  1
  S  S137  1  0.55057090  0.97311862  0.40351869  1
  S  S138  1  0.57556108  0.68932119  0.34377629  1
  S  S139  1  0.06950935  0.46295830  0.40802756  1
  S  S140  1  0.06657918  0.20330160  0.34285795  1
  S  S141  1  0.33462775  0.21817896  0.40818056  1
  S  S142  1  0.35380483  0.45319379  0.34206251  1
  S  S143  1  0.85108700  0.70960947  0.40406331  1
  S  S144  1  0.85112637  0.95469465  0.34260387  1
  S  S145  1  0.17450930  0.83288692  0.37450002  1
  S  S146  1  0.67708999  0.33300913  0.37383168  1
  S  S147  1  0.56400736  0.22224854  0.46617662  1
  S  S148  1  0.06742113  0.72259260  0.46642068  1
  S  S149  1  0.34577387  0.97524373  0.46821320  1
  S  S150  1  0.84555658  0.47739861  0.46719570  1
  S  S151  1  0.20649637  0.34116551  0.50291555  1
  S  S152  1  0.83173715  0.22297689  0.53358458  1
  S  S153  1  0.33559402  0.72273339  0.53396994  1
  S  S154  1  0.05355945  0.97819262  0.53274234  1
  S  S155  1  0.55346354  0.47597319  0.53200614  1
  S  S156  1  0.69345624  0.84074918  0.49718241  1
  S  S157  1  0.83357710  0.70400826  0.65713033  1
  S  S158  1  0.82993772  0.96346553  0.59201990  1
  S  S159  1  0.32465993  0.19035240  0.65624793  1
  S  S160  1  0.34864604  0.47331822  0.59666825  1
  S  S161  1  0.04895625  0.45510823  0.65743653  1
  S  S162  1  0.04860825  0.20995967  0.59589114  1
  S  S163  1  0.54654568  0.95447169  0.65793066  1
  S  S164  1  0.56435959  0.71897913  0.59208086  1
  S  S165  1  0.22256469  0.83387756  0.62626952  1
  S  S166  1  0.72536530  0.33364770  0.62535730  1
  S  S167  1  0.83278040  0.17777492  0.77900163  1
  S  S168  1  0.82962174  0.44308445  0.71780167  1
  S  S169  1  0.32964707  0.68225353  0.78264155  1
  S  S170  1  0.33297585  0.94666896  0.72095587  1
  S  S171  1  0.04347259  0.92778638  0.78204870  1
  S  S172  1  0.04535736  0.69110588  0.71954093  1
  S  S173  1  0.54599759  0.43504729  0.78062849  1
  S  S174  1  0.54354743  0.19733449  0.71830774  1
  S  S175  1  0.22276434  0.31437674  0.74999797  1
  S  S176  1  0.72197468  0.81087512  0.75024931  1
  S  S177  1  0.84850112  0.65154447  0.90360190  1
  S  S178  1  0.82357656  0.93529891  0.84391061  1
  S  S179  1  0.32708785  0.16103773  0.90816013  1
  S  S180  1  0.33387668  0.41942554  0.84288402  1
  S  S181  1  0.06508664  0.40686662  0.90858182  1
  S  S182  1  0.04597424  0.17077943  0.84230471  1
  S  S183  1  0.54830913  0.91685027  0.90403667  1
  S  S184  1  0.54845333  0.66944386  0.84309445  1
  S  S185  1  0.22508466  0.79023874  0.87517942  1
  S  S186  1  0.72263941  0.29184266  0.87379072  1
  S  S187  1  0.83547374  0.40289596  0.96643183  1
  S  S188  1  0.33244249  0.90204677  0.96655127  1
  S  S189  1  0.05201863  0.65059552  0.96860583  1
  S  S190  1  0.55259516  0.14851104  0.96710073  1
  S  S191  1  0.19322709  0.28517231  0.00297081  1
  Cl  Cl192  1  0.89288207  0.52059178  0.06705973  1
  Cl  Cl193  1  0.36798546  0.04352118  0.06406750  1
  Cl  Cl194  1  0.88395010  0.04957681  0.18677408  1
  Cl  Cl195  1  0.38979116  0.54629183  0.18918510  1
  Cl  Cl196  1  0.88908244  0.57649775  0.31050380  1
  Cl  Cl197  1  0.38345105  0.07393717  0.31311959  1
  Cl  Cl198  1  0.86692810  0.08032463  0.43533062  1
  Cl  Cl199  1  0.39112328  0.60389268  0.43266660  1
  Cl  Cl200  1  0.50818427  0.10476963  0.56734385  1
  Cl  Cl201  1  0.03295077  0.58067006  0.56467065  1
  Cl  Cl202  1  0.51674043  0.57531782  0.68689779  1
  Cl  Cl203  1  0.01147506  0.07696054  0.68951395  1
  Cl  Cl204  1  0.50874996  0.04504969  0.81035023  1
  Cl  Cl205  1  0.01657991  0.54948381  0.81332546  1
  Cl  Cl206  1  0.53297005  0.54470167  0.93569018  1
  Cl  Cl207  1  0.00625175  0.01939026  0.93297654  1
