# generated using pymatgen
data_Li6PS5Cl
_symmetry_space_group_name_H-M   'P 1'
_cell_length_a   14.22256100
_cell_length_b   17.32608538
_cell_length_c   43.38896653
_cell_angle_alpha   90.00000000
_cell_angle_beta   90.00000000
_cell_angle_gamma   35.67159034
_symmetry_Int_Tables_number   1
_chemical_formula_structural   Li6PS5Cl
_chemical_formula_sum   'Li144 P24 S120 Cl24'
_cell_volume   6234.89663145
_cell_formula_units_Z   24
loop_
 _symmetry_equiv_pos_site_id
 _symmetry_equiv_pos_as_xyz
  1  'x, y, z'
loop_
 _atom_site_type_symbol
 _atom_site_label
 _atom_site_symmetry_multiplicity
 _atom_site_fract_x
 _atom_site_fract_y
 _atom_site_fract_z
 _atom_site_occupancy
  Li  Li0  1  0.49530293  0.48892062  0.00340013  1
  Li  Li1  1  0.68721543  0.34220849  0.07281692  1
  Li  Li2  1  0.99521546  0.48897585  0.00341613  1
  Li  Li3  1  0.18719649  0.34221084  0.07281232  1
  Li  Li4  1  0.29883155  0.49105313  0.00467793  1
  Li  Li5  1  0.64629471  0.19200593  0.04668878  1
  Li  Li6  1  0.79863885  0.49132799  0.00460379  1
  Li  Li7  1  0.14609717  0.19213038  0.04667315  1
  Li  Li8  1  0.25878054  0.63066876  0.06922571  1
  Li  Li9  1  0.75877622  0.63061500  0.06924831  1
  Li  Li10  1  0.37540073  0.37850069  0.07779499  1
  Li  Li11  1  0.87539005  0.37840197  0.07779266  1
  Li  Li12  1  0.22445181  0.99543509  0.08646276  1
  Li  Li13  1  0.41229237  0.87788117  0.16186292  1
  Li  Li14  1  0.72448143  0.99545943  0.08646463  1
  Li  Li15  1  0.91218873  0.87793702  0.16188222  1
  Li  Li16  1  0.11209932  0.89616841  0.10636185  1
  Li  Li17  1  0.48663092  0.69936985  0.12913655  1
  Li  Li18  1  0.61207762  0.89619577  0.10635783  1
  Li  Li19  1  0.98659234  0.69942740  0.12912608  1
  Li  Li20  1  0.98700514  0.15879935  0.14299152  1
  Li  Li21  1  0.48709971  0.15868867  0.14287605  1
  Li  Li22  1  0.09268199  0.97142663  0.17960505  1
  Li  Li23  1  0.59236493  0.97171726  0.17957482  1
  Li  Li24  1  0.88346218  0.58518955  0.17369734  1
  Li  Li25  1  0.19089249  0.34385832  0.22665343  1
  Li  Li26  1  0.38330994  0.58528565  0.17373701  1
  Li  Li27  1  0.69117946  0.34358433  0.22633345  1
  Li  Li28  1  0.81890763  0.47732599  0.16537279  1
  Li  Li29  1  0.12797088  0.20658341  0.20345872  1
  Li  Li30  1  0.31859788  0.47747804  0.16538812  1
  Li  Li31  1  0.62776761  0.20663313  0.20342928  1
  Li  Li32  1  0.84550528  0.59905628  0.24259129  1
  Li  Li33  1  0.34745084  0.59790504  0.24276875  1
  Li  Li34  1  0.83777934  0.42931000  0.24407000  1
  Li  Li35  1  0.33758061  0.42913502  0.24404886  1
  Li  Li36  1  0.59748944  0.09788594  0.25722062  1
  Li  Li37  1  0.94127757  0.84349989  0.27366147  1
  Li  Li38  1  0.09590861  0.09874144  0.25738195  1
  Li  Li39  1  0.44087064  0.84398114  0.27349717  1
  Li  Li40  1  0.58767983  0.92937896  0.25594289  1
  Li  Li41  1  0.87790212  0.70650915  0.29660393  1
  Li  Li42  1  0.08788588  0.92922400  0.25596007  1
  Li  Li43  1  0.37785643  0.70658643  0.29666100  1
  Li  Li44  1  0.63349857  0.08522490  0.32628479  1
  Li  Li45  1  0.13351149  0.08521612  0.32630475  1
  Li  Li46  1  0.56967307  0.97669099  0.33471727  1
  Li  Li47  1  0.06924075  0.97707886  0.33468430  1
  Li  Li48  1  0.23715113  0.65848934  0.35714199  1
  Li  Li49  1  0.66209544  0.37791028  0.33807286  1
  Li  Li50  1  0.73718393  0.65851630  0.35724861  1
  Li  Li51  1  0.16194350  0.37795744  0.33810787  1
  Li  Li52  1  0.34352215  0.47128294  0.32016394  1
  Li  Li53  1  0.73726994  0.19908350  0.37091629  1
  Li  Li54  1  0.84293461  0.47161194  0.32030978  1
  Li  Li55  1  0.23691386  0.19910621  0.37099180  1
  Li  Li56  1  0.47484714  0.49455533  0.41351185  1
  Li  Li57  1  0.97508820  0.49451958  0.41356519  1
  Li  Li58  1  0.36499543  0.39159041  0.39262138  1
  Li  Li59  1  0.86352732  0.39315758  0.39300326  1
  Li  Li60  1  0.00916466  0.13025597  0.43085310  1
  Li  Li61  1  0.43743699  0.84193805  0.42723385  1
  Li  Li62  1  0.50910660  0.13035335  0.43081114  1
  Li  Li63  1  0.93739492  0.84211491  0.42716696  1
  Li  Li64  1  0.12575971  0.87813162  0.42219945  1
  Li  Li65  1  0.39694002  0.69124998  0.45328493  1
  Li  Li66  1  0.62584448  0.87805670  0.42221336  1
  Li  Li67  1  0.89817703  0.69068948  0.45319497  1
  Li  Li68  1  0.24551678  0.98863249  0.49654989  1
  Li  Li69  1  0.74550085  0.98865428  0.49654471  1
  Li  Li70  1  0.04912681  0.99074880  0.49534125  1
  Li  Li71  1  0.54925329  0.99065377  0.49534370  1
  Li  Li72  1  0.00640007  0.28404155  0.50380809  1
  Li  Li73  1  0.81269788  0.43318257  0.57285738  1
  Li  Li74  1  0.50631005  0.28414981  0.50377109  1
  Li  Li75  1  0.31271384  0.43316538  0.57285130  1
  Li  Li76  1  0.20095658  0.28412025  0.50460204  1
  Li  Li77  1  0.85399339  0.58312404  0.54667649  1
  Li  Li78  1  0.70108963  0.28380922  0.50452081  1
  Li  Li79  1  0.35395585  0.58317195  0.54669873  1
  Li  Li80  1  0.24174073  0.14414378  0.56933770  1
  Li  Li81  1  0.74175061  0.14415483  0.56932427  1
  Li  Li82  1  0.12469807  0.39637935  0.57787981  1
  Li  Li83  1  0.62477137  0.39642909  0.57785370  1
  Li  Li84  1  0.27541842  0.77993251  0.58646857  1
  Li  Li85  1  0.08770043  0.89710668  0.66173868  1
  Li  Li86  1  0.77543145  0.77991352  0.58646185  1
  Li  Li87  1  0.58768592  0.89711182  0.66174434  1
  Li  Li88  1  0.38771121  0.87939235  0.60642828  1
  Li  Li89  1  0.01343275  0.07594883  0.62914380  1
  Li  Li90  1  0.88764419  0.87945078  0.60648064  1
  Li  Li91  1  0.51313783  0.07604063  0.62916545  1
  Li  Li92  1  0.51303044  0.61632602  0.64284701  1
  Li  Li93  1  0.01299512  0.61636856  0.64283840  1
  Li  Li94  1  0.40727470  0.80353537  0.67966057  1
  Li  Li95  1  0.90696857  0.80356812  0.67968850  1
  Li  Li96  1  0.61642426  0.19018705  0.67371437  1
  Li  Li97  1  0.30885324  0.43151217  0.72661983  1
  Li  Li98  1  0.11639001  0.19020157  0.67371919  1
  Li  Li99  1  0.80893467  0.43150927  0.72665352  1
  Li  Li100  1  0.68108983  0.29785488  0.66540716  1
  Li  Li101  1  0.37207370  0.56875376  0.70345547  1
  Li  Li102  1  0.18113071  0.29785680  0.66543946  1
  Li  Li103  1  0.87219416  0.56866578  0.70346310  1
  Li  Li104  1  0.65360194  0.17650262  0.74270963  1
  Li  Li105  1  0.15383580  0.17587645  0.74273835  1
  Li  Li106  1  0.66201785  0.34631377  0.74403275  1
  Li  Li107  1  0.16256206  0.34545812  0.74412569  1
  Li  Li108  1  0.90459240  0.67597960  0.75747212  1
  Li  Li109  1  0.55893387  0.93141544  0.77341251  1
  Li  Li110  1  0.40463236  0.67600650  0.75747720  1
  Li  Li111  1  0.05891329  0.93147072  0.77340207  1
  Li  Li112  1  0.91245033  0.84566934  0.75595360  1
  Li  Li113  1  0.62226569  0.06871336  0.79663388  1
  Li  Li114  1  0.41208801  0.84622836  0.75598655  1
  Li  Li115  1  0.12185478  0.06883866  0.79665585  1
  Li  Li116  1  0.86631391  0.69024311  0.82628972  1
  Li  Li117  1  0.36629509  0.69029243  0.82629938  1
  Li  Li118  1  0.93069558  0.79827714  0.83466670  1
  Li  Li119  1  0.43083901  0.79820916  0.83464056  1
  Li  Li120  1  0.26257848  0.11694127  0.85775992  1
  Li  Li121  1  0.83759833  0.39718176  0.83824110  1
  Li  Li122  1  0.76268822  0.11641205  0.85725292  1
  Li  Li123  1  0.33664538  0.39741326  0.83820759  1
  Li  Li124  1  0.15770606  0.30226424  0.82012877  1
  Li  Li125  1  0.76292184  0.57612924  0.87085727  1
  Li  Li126  1  0.65705675  0.30288719  0.82014949  1
  Li  Li127  1  0.26299074  0.57603110  0.87085998  1
  Li  Li128  1  0.02512292  0.28057604  0.91359821  1
  Li  Li129  1  0.52529873  0.28012247  0.91353501  1
  Li  Li130  1  0.13469394  0.38351922  0.89253848  1
  Li  Li131  1  0.63567797  0.38143471  0.89261443  1
  Li  Li132  1  0.49089867  0.64483062  0.93080564  1
  Li  Li133  1  0.06262233  0.93321900  0.92716658  1
  Li  Li134  1  0.99138055  0.64448064  0.93106662  1
  Li  Li135  1  0.56276632  0.93313698  0.92718813  1
  Li  Li136  1  0.37428193  0.89701752  0.92220163  1
  Li  Li137  1  0.10259083  0.08412207  0.95321047  1
  Li  Li138  1  0.87427757  0.89703129  0.92221760  1
  Li  Li139  1  0.60230728  0.08423993  0.95317602  1
  Li  Li140  1  0.25468441  0.78610769  0.99655266  1
  Li  Li141  1  0.75466262  0.78612181  0.99656108  1
  Li  Li142  1  0.45106825  0.78417015  0.99540490  1
  Li  Li143  1  0.95109137  0.78419443  0.99539436  1
  P  P144  1  0.96041330  0.67728778  0.05430342  1
  P  P145  1  0.46041618  0.67727060  0.05429840  1
  P  P146  1  0.72224361  0.17797765  0.12845702  1
  P  P147  1  0.22213839  0.17803727  0.12844190  1
  P  P148  1  0.46522824  0.67676314  0.21235965  1
  P  P149  1  0.96490795  0.67695708  0.21232999  1
  P  P150  1  0.21527988  0.17673957  0.28769662  1
  P  P151  1  0.71543539  0.17665918  0.28764313  1
  P  P152  1  0.97322960  0.67716270  0.37151526  1
  P  P153  1  0.47288870  0.67740257  0.37159788  1
  P  P154  1  0.71062668  0.17690903  0.44566092  1
  P  P155  1  0.21061479  0.17689875  0.44572865  1
  P  P156  1  0.53972871  0.09751226  0.55435463  1
  P  P157  1  0.03972992  0.09748531  0.55433890  1
  P  P158  1  0.77772044  0.59703942  0.62849488  1
  P  P159  1  0.27763488  0.59709984  0.62849384  1
  P  P160  1  0.03464559  0.09818440  0.71234347  1
  P  P161  1  0.53479833  0.09818701  0.71235788  1
  P  P162  1  0.28450286  0.59834278  0.78772738  1
  P  P163  1  0.78463285  0.59823840  0.78770878  1
  P  P164  1  0.52670057  0.09783632  0.87155816  1
  P  P165  1  0.02672286  0.09787463  0.87156608  1
  P  P166  1  0.78929917  0.59806867  0.94562752  1
  P  P167  1  0.28941053  0.59794916  0.94562445  1
  S  S168  1  0.22688688  0.79340160  0.05499870  1
  S  S169  1  0.59007184  0.54379961  0.08960339  1
  S  S170  1  0.72690562  0.79337767  0.05500802  1
  S  S171  1  0.09013968  0.54377478  0.08960435  1
  S  S172  1  0.47838752  0.41160998  0.04489234  1
  S  S173  1  0.97827965  0.41164459  0.04489041  1
  S  S174  1  0.96405687  0.79341251  0.05459260  1
  S  S175  1  0.46407726  0.79339178  0.05459277  1
  S  S176  1  0.05478522  0.58211655  0.01215871  1
  S  S177  1  0.55481359  0.58211829  0.01215230  1
  S  S178  1  0.98887016  0.29160621  0.12995477  1
  S  S179  1  0.34713327  0.05713168  0.16692049  1
  S  S180  1  0.48897078  0.29155090  0.12998337  1
  S  S181  1  0.84723755  0.05710207  0.16694097  1
  S  S182  1  0.22147671  0.92733907  0.13393775  1
  S  S183  1  0.72145290  0.92736010  0.13392820  1
  S  S184  1  0.71579284  0.29916675  0.12809773  1
  S  S185  1  0.21571017  0.29920517  0.12808691  1
  S  S186  1  0.83590738  0.05755254  0.08983948  1
  S  S187  1  0.33580575  0.05759816  0.08982136  1
  S  S188  1  0.73383733  0.78298698  0.21101079  1
  S  S189  1  0.07021002  0.55439899  0.25038114  1
  S  S190  1  0.23423825  0.78265459  0.21107321  1
  S  S191  1  0.57067504  0.55420370  0.25042460  1
  S  S192  1  0.95858101  0.43059055  0.20881748  1
  S  S193  1  0.45836345  0.43065887  0.20882448  1
  S  S194  1  0.46913411  0.79029996  0.21564419  1
  S  S195  1  0.96886596  0.79044613  0.21566541  1
  S  S196  1  0.57881711  0.55902481  0.17363539  1
  S  S197  1  0.07854352  0.55928953  0.17359058  1
  S  S198  1  0.48451787  0.28246407  0.28893673  1
  S  S199  1  0.82910991  0.05898497  0.32637878  1
  S  S200  1  0.98424966  0.28272339  0.28899848  1
  S  S201  1  0.32894850  0.05910750  0.32643957  1
  S  S202  1  0.70851521  0.93063793  0.29122413  1
  S  S203  1  0.20861269  0.93057220  0.29122484  1
  S  S204  1  0.21920803  0.29026698  0.28438587  1
  S  S205  1  0.71919683  0.29029048  0.28431381  1
  S  S206  1  0.32051463  0.05421961  0.24964100  1
  S  S207  1  0.82092414  0.05401886  0.24959704  1
  S  S208  1  0.23958390  0.79089915  0.37003689  1
  S  S209  1  0.58694979  0.55661463  0.41014068  1
  S  S210  1  0.73990912  0.79067170  0.37004908  1
  S  S211  1  0.08782754  0.55607662  0.40999812  1
  S  S212  1  0.47194874  0.42666327  0.36594104  1
  S  S213  1  0.97175261  0.42679543  0.36604640  1
  S  S214  1  0.96596577  0.79890730  0.37189413  1
  S  S215  1  0.46587135  0.79895583  0.37197962  1
  S  S216  1  0.09798883  0.55663105  0.33297059  1
  S  S217  1  0.59790840  0.55667896  0.33307613  1
  S  S218  1  0.97724354  0.29295091  0.44497876  1
  S  S219  1  0.30533983  0.08151319  0.48786031  1
  S  S220  1  0.47726620  0.29299042  0.44487075  1
  S  S221  1  0.80521926  0.08161106  0.48780446  1
  S  S222  1  0.22887596  0.91103117  0.45511027  1
  S  S223  1  0.72905126  0.91097612  0.45508108  1
  S  S224  1  0.71444768  0.29293370  0.44539463  1
  S  S225  1  0.21442676  0.29292510  0.44546372  1
  S  S226  1  0.84062558  0.04338650  0.41035418  1
  S  S227  1  0.34057937  0.04334355  0.41041857  1
  S  S228  1  0.27313798  0.98159777  0.55502804  1
  S  S229  1  0.90998634  0.23120142  0.58960060  1
  S  S230  1  0.77314859  0.98159117  0.55502778  1
  S  S231  1  0.40997646  0.23123089  0.58960862  1
  S  S232  1  0.02177513  0.36333106  0.54496693  1
  S  S233  1  0.52184093  0.36337406  0.54492434  1
  S  S234  1  0.53636202  0.98118953  0.55466739  1
  S  S235  1  0.03637330  0.98117012  0.55463902  1
  S  S236  1  0.44529220  0.19236027  0.51217217  1
  S  S237  1  0.94523749  0.19238220  0.51216603  1
  S  S238  1  0.51086070  0.48365711  0.63002053  1
  S  S239  1  0.15245589  0.71801099  0.66696977  1
  S  S240  1  0.01093817  0.48361003  0.63003184  1
  S  S241  1  0.65264387  0.71793542  0.66698070  1
  S  S242  1  0.27848977  0.84784439  0.63397220  1
  S  S243  1  0.77831202  0.84792647  0.63395639  1
  S  S244  1  0.78443632  0.47566996  0.62814797  1
  S  S245  1  0.28435525  0.47572716  0.62812220  1
  S  S246  1  0.66404512  0.71738222  0.58985956  1
  S  S247  1  0.16395125  0.71746832  0.58986735  1
  S  S248  1  0.76583803  0.99217109  0.71104966  1
  S  S249  1  0.42944658  0.22073787  0.75042567  1
  S  S250  1  0.26570021  0.99217220  0.71100836  1
  S  S251  1  0.92937084  0.22067369  0.75042342  1
  S  S252  1  0.54140505  0.34455534  0.70886584  1
  S  S253  1  0.04168338  0.34421405  0.70890763  1
  S  S254  1  0.03059681  0.98477457  0.71559908  1
  S  S255  1  0.53073862  0.98476025  0.71560624  1
  S  S256  1  0.92109620  0.21597031  0.67362962  1
  S  S257  1  0.42121935  0.21595126  0.67363573  1
  S  S258  1  0.01577404  0.49205563  0.78906347  1
  S  S259  1  0.67103046  0.71603514  0.82642577  1
  S  S260  1  0.51562754  0.49223368  0.78908380  1
  S  S261  1  0.17104328  0.71593562  0.82648144  1
  S  S262  1  0.79139136  0.84457977  0.79121004  1
  S  S263  1  0.29134454  0.84464075  0.79120007  1
  S  S264  1  0.28044045  0.48491781  0.78439987  1
  S  S265  1  0.78050567  0.48484947  0.78441987  1
  S  S266  1  0.17930587  0.72091918  0.74968941  1
  S  S267  1  0.67941194  0.72078169  0.74965472  1
  S  S268  1  0.26015053  0.98416575  0.87004453  1
  S  S269  1  0.91224279  0.21893138  0.91005372  1
  S  S270  1  0.76014437  0.98409746  0.87007238  1
  S  S271  1  0.41200797  0.21910129  0.91000815  1
  S  S272  1  0.02792950  0.34830825  0.86595577  1
  S  S273  1  0.52757608  0.34797522  0.86585678  1
  S  S274  1  0.53406160  0.97603374  0.87197530  1
  S  S275  1  0.03376790  0.97626604  0.87195332  1
  S  S276  1  0.40195901  0.21818958  0.83299522  1
  S  S277  1  0.90167005  0.21853099  0.83304093  1
  S  S278  1  0.52284051  0.48181427  0.94474040  1
  S  S279  1  0.19509568  0.69300108  0.98778215  1
  S  S280  1  0.02281753  0.48180937  0.94480837  1
  S  S281  1  0.69492942  0.69314356  0.98779027  1
  S  S282  1  0.27104028  0.86408404  0.95513317  1
  S  S283  1  0.77105359  0.86410796  0.95515962  1
  S  S284  1  0.78541966  0.48209752  0.94535023  1
  S  S285  1  0.28583229  0.48175029  0.94539009  1
  S  S286  1  0.65932318  0.73174092  0.91034975  1
  S  S287  1  0.15929019  0.73165661  0.91034395  1
  Cl  Cl288  1  0.48351855  0.19010719  0.05359578  1
  Cl  Cl289  1  0.98357537  0.19001541  0.05360041  1
  Cl  Cl290  1  0.18824012  0.67488903  0.13459052  1
  Cl  Cl291  1  0.68847347  0.67460988  0.13460672  1
  Cl  Cl292  1  0.97512708  0.17204634  0.20744327  1
  Cl  Cl293  1  0.47493946  0.17225390  0.20746744  1
  Cl  Cl294  1  0.72499365  0.67214494  0.29253718  1
  Cl  Cl295  1  0.22554263  0.67173391  0.29257124  1
  Cl  Cl296  1  0.43836967  0.17554026  0.36554188  1
  Cl  Cl297  1  0.93846554  0.17528955  0.36552375  1
  Cl  Cl298  1  0.23389678  0.68970571  0.44640576  1
  Cl  Cl299  1  0.73448088  0.68949831  0.44640755  1
  Cl  Cl300  1  0.01665604  0.58486824  0.55369376  1
  Cl  Cl301  1  0.51658416  0.58497975  0.55370976  1
  Cl  Cl302  1  0.31161073  0.10002239  0.63451941  1
  Cl  Cl303  1  0.81161952  0.10000900  0.63452217  1
  Cl  Cl304  1  0.52489766  0.60252891  0.70751255  1
  Cl  Cl305  1  0.02483848  0.60276737  0.70748653  1
  Cl  Cl306  1  0.77479994  0.10262468  0.79257537  1
  Cl  Cl307  1  0.27482571  0.10250054  0.79253759  1
  Cl  Cl308  1  0.06139947  0.59940434  0.86549912  1
  Cl  Cl309  1  0.56142223  0.59990759  0.86548253  1
  Cl  Cl310  1  0.26571669  0.08562333  0.94635355  1
  Cl  Cl311  1  0.76560625  0.08566060  0.94636908  1
