# generated using pymatgen
data_Li46P8S39Cl8
_symmetry_space_group_name_H-M   'P 1'
_cell_length_a   10.60410300
_cell_length_b   21.51103300
_cell_length_c   36.53372608
_cell_angle_alpha   90.00000000
_cell_angle_beta   90.00000000
_cell_angle_gamma   90.00000000
_symmetry_Int_Tables_number   1
_chemical_formula_structural   Li46P8S39Cl8
_chemical_formula_sum   'Li184 P32 S156 Cl32'
_cell_volume   8333.53324309
_cell_formula_units_Z   4
loop_
 _symmetry_equiv_pos_site_id
 _symmetry_equiv_pos_as_xyz
  1  'x, y, z'
loop_
 _atom_site_type_symbol
 _atom_site_label
 _atom_site_symmetry_multiplicity
 _atom_site_fract_x
 _atom_site_fract_y
 _atom_site_fract_z
 _atom_site_occupancy
  Li  Li0  1  0.78713545  0.18998982  0.10115308  1
  Li  Li1  1  0.78679708  0.49004276  0.06816330  1
  Li  Li2  1  0.83804186  0.68351807  0.94512308  1
  Li  Li3  1  0.78245558  0.39373167  0.14006167  1
  Li  Li4  1  0.72264643  0.69183588  0.10714934  1
  Li  Li5  1  0.70094035  0.31367931  0.04920601  1
  Li  Li6  1  0.89959408  0.60742679  0.04249100  1
  Li  Li7  1  0.71478348  0.02884448  0.12394659  1
  Li  Li8  1  0.71312850  0.54837217  0.13924676  1
  Li  Li9  1  0.83048115  0.81249337  0.04935132  1
  Li  Li10  1  0.37489285  0.21177692  0.97229461  1
  Li  Li11  1  0.29990609  0.69041421  0.10475861  1
  Li  Li12  1  0.28274919  0.98814260  0.07090846  1
  Li  Li13  1  0.22348559  0.18974233  0.10867462  1
  Li  Li14  1  0.27913055  0.89431280  0.14329985  1
  Li  Li15  1  0.40747646  0.10269874  0.04797842  1
  Li  Li16  1  0.22219741  0.52859395  0.12333393  1
  Li  Li17  1  0.19814560  0.81922337  0.05941984  1
  Li  Li18  1  0.30789719  0.31733297  0.04888423  1
  Li  Li19  1  0.20852733  0.04848688  0.14180194  1
  Li  Li20  1  0.00386296  0.10156157  0.09365169  1
  Li  Li21  1  0.93853366  0.33353226  0.08814639  1
  Li  Li22  1  0.03691708  0.83455012  0.15489179  1
  Li  Li23  1  0.00847554  0.47105566  0.16327836  1
  Li  Li24  1  0.04688067  0.73977749  0.09670926  1
  Li  Li25  1  0.54204348  0.33775219  0.15580054  1
  Li  Li26  1  0.50568581  0.59984768  0.09279385  1
  Li  Li27  1  0.44388847  0.83335221  0.09283189  1
  Li  Li28  1  0.52305952  0.26090676  0.09458827  1
  Li  Li29  1  0.50650112  0.97204741  0.16601063  1
  Li  Li30  1  0.76912287  0.29610841  0.29049816  1
  Li  Li31  1  0.78299872  0.59897143  0.23118069  1
  Li  Li32  1  0.77067902  0.89589085  0.16525367  1
  Li  Li33  1  0.73711520  0.49343933  0.34118332  1
  Li  Li34  1  0.77485157  0.79798093  0.27212566  1
  Li  Li35  1  0.82812026  0.08817369  0.19457525  1
  Li  Li36  1  0.80700487  0.45861053  0.26321701  1
  Li  Li37  1  0.79033998  0.76149474  0.20061597  1
  Li  Li38  1  0.77440281  0.15722195  0.31420610  1
  Li  Li39  1  0.79088776  0.24055488  0.17239215  1
  Li  Li40  1  0.79724699  0.64314521  0.29946790  1
  Li  Li41  1  0.77184800  0.93901037  0.23755165  1
  Li  Li42  1  0.27540481  0.39426737  0.16499586  1
  Li  Li43  1  0.27022368  0.79689832  0.29127428  1
  Li  Li44  1  0.27854181  0.10009898  0.23103657  1
  Li  Li45  1  0.26035508  0.29747540  0.27561780  1
  Li  Li46  1  0.32204406  0.58704300  0.19492781  1
  Li  Li47  1  0.22560659  0.99293106  0.34382795  1
  Li  Li48  1  0.30656404  0.26206287  0.20244959  1
  Li  Li49  1  0.27515008  0.65719720  0.31409996  1
  Li  Li50  1  0.30446133  0.96064421  0.26431770  1
  Li  Li51  1  0.27289285  0.43910710  0.23726808  1
  Li  Li52  1  0.28769309  0.73903538  0.17634216  1
  Li  Li53  1  0.29285244  0.14310847  0.29969703  1
  Li  Li54  1  0.02067109  0.20520112  0.27798951  1
  Li  Li55  1  0.06818538  0.55577853  0.22223340  1
  Li  Li56  1  0.08436200  0.87870528  0.36187195  1
  Li  Li57  1  0.05456497  0.20732642  0.20308835  1
  Li  Li58  1  0.02951665  0.57952510  0.34211557  1
  Li  Li59  1  0.03257633  0.88818171  0.28207067  1
  Li  Li60  1  0.58586268  0.37926015  0.36189928  1
  Li  Li61  1  0.52637408  0.70781218  0.28095501  1
  Li  Li62  1  0.57074852  0.06036746  0.22251296  1
  Li  Li63  1  0.53197620  0.38821196  0.28214381  1
  Li  Li64  1  0.54131995  0.69285947  0.20943447  1
  Li  Li65  1  0.52803911  0.07876649  0.34207991  1
  Li  Li66  1  0.77748225  0.70409677  0.41732605  1
  Li  Li67  1  0.78728146  0.99668213  0.35172702  1
  Li  Li68  1  0.77551486  0.59050984  0.52372951  1
  Li  Li69  1  0.68970251  0.89352310  0.47564107  1
  Li  Li70  1  0.81590698  0.20930947  0.38571909  1
  Li  Li71  1  0.92330093  0.54832112  0.45307086  1
  Li  Li72  1  0.75910101  0.84923222  0.38569568  1
  Li  Li73  1  0.91318269  0.35966284  0.34531226  1
  Li  Li74  1  0.81140072  0.73959054  0.48932203  1
  Li  Li75  1  0.75666600  0.05951828  0.42957290  1
  Li  Li76  1  0.28712376  0.49662950  0.35157258  1
  Li  Li77  1  0.27878758  0.20642851  0.41675112  1
  Li  Li78  1  0.19856427  0.39536479  0.47694900  1
  Li  Li79  1  0.31530234  0.70802048  0.38580368  1
  Li  Li80  1  0.28331716  0.09112376  0.52556112  1
  Li  Li81  1  0.26812616  0.35357569  0.38708750  1
  Li  Li82  1  0.42067895  0.04879168  0.45373855  1
  Li  Li83  1  0.25851943  0.55825953  0.42943900  1
  Li  Li84  1  0.41263790  0.86052358  0.34598039  1
  Li  Li85  1  0.31234779  0.23970786  0.48914188  1
  Li  Li86  1  0.06088350  0.66412015  0.40530411  1
  Li  Li87  1  0.01761250  0.30404844  0.44664770  1
  Li  Li88  1  0.96676188  0.08260135  0.37299869  1
  Li  Li89  1  0.56053005  0.16432209  0.40510821  1
  Li  Li90  1  0.46848627  0.58072404  0.37261516  1
  Li  Li91  1  0.51562723  0.80176181  0.44521830  1
  Li  Li92  1  0.09982087  0.50958448  0.60485959  1
  Li  Li93  1  0.10908272  0.20819241  0.56812891  1
  Li  Li94  1  0.07535192  0.01597910  0.44277901  1
  Li  Li95  1  0.11851574  0.30470634  0.64309189  1
  Li  Li96  1  0.17327728  0.00700268  0.60841976  1
  Li  Li97  1  0.20121318  0.38013447  0.55963559  1
  Li  Li98  1  0.00872652  0.08701325  0.53932082  1
  Li  Li99  1  0.17750767  0.67122034  0.62428383  1
  Li  Li100  1  0.17658754  0.15305890  0.63865367  1
  Li  Li101  1  0.07153735  0.88979305  0.55053491  1
  Li  Li102  1  0.57075493  0.51466142  0.44416679  1
  Li  Li103  1  0.59853339  0.00994106  0.60691604  1
  Li  Li104  1  0.61277869  0.70966077  0.56863224  1
  Li  Li105  1  0.67714802  0.50806048  0.60717368  1
  Li  Li106  1  0.61948020  0.80470639  0.64295343  1
  Li  Li107  1  0.50073309  0.59159290  0.54238585  1
  Li  Li108  1  0.67372922  0.16864364  0.62705460  1
  Li  Li109  1  0.70549304  0.88336951  0.55972112  1
  Li  Li110  1  0.56716883  0.38638681  0.55024198  1
  Li  Li111  1  0.68721167  0.65115834  0.63944643  1
  Li  Li112  1  0.89405016  0.60003602  0.59293114  1
  Li  Li113  1  0.95546751  0.36638786  0.59287934  1
  Li  Li114  1  0.86033450  0.86498918  0.65526735  1
  Li  Li115  1  0.88876118  0.22840580  0.66608387  1
  Li  Li116  1  0.85133142  0.96193007  0.59873861  1
  Li  Li117  1  0.36089562  0.36645545  0.65481021  1
  Li  Li118  1  0.39117544  0.09892302  0.59534736  1
  Li  Li119  1  0.46054879  0.86659768  0.59230143  1
  Li  Li120  1  0.35080945  0.46057084  0.59704071  1
  Li  Li121  1  0.39098842  0.72999319  0.66442794  1
  Li  Li122  1  0.13051359  0.40242956  0.79197618  1
  Li  Li123  1  0.12492229  0.10157764  0.73273951  1
  Li  Li124  1  0.12127317  0.80469484  0.66611329  1
  Li  Li125  1  0.15004741  0.20526185  0.84040419  1
  Li  Li126  1  0.14011767  0.90365937  0.77857381  1
  Li  Li127  1  0.07839028  0.61287839  0.69581776  1
  Li  Li128  1  0.10028283  0.24278247  0.76448288  1
  Li  Li129  1  0.08830515  0.93686018  0.70544611  1
  Li  Li130  1  0.12446087  0.54259187  0.81429494  1
  Li  Li131  1  0.11143620  0.46091577  0.67675047  1
  Li  Li132  1  0.11044206  0.05838970  0.80180714  1
  Li  Li133  1  0.12454557  0.76070254  0.73777267  1
  Li  Li134  1  0.62638023  0.30389870  0.66718589  1
  Li  Li135  1  0.63026153  0.90375338  0.79220660  1
  Li  Li136  1  0.61641422  0.60104892  0.73121190  1
  Li  Li137  1  0.62142596  0.40243982  0.77100348  1
  Li  Li138  1  0.56894045  0.11239378  0.69866552  1
  Li  Li139  1  0.66074257  0.70597561  0.84216162  1
  Li  Li140  1  0.61073942  0.43849092  0.70032671  1
  Li  Li141  1  0.62325484  0.04186549  0.81753768  1
  Li  Li142  1  0.59389021  0.74124691  0.76415150  1
  Li  Li143  1  0.62827938  0.26023875  0.74033606  1
  Li  Li144  1  0.61316410  0.96009429  0.67787731  1
  Li  Li145  1  0.60638110  0.55744907  0.79964576  1
  Li  Li146  1  0.87182413  0.48894614  0.78147851  1
  Li  Li147  1  0.83009729  0.14281922  0.72538593  1
  Li  Li148  1  0.81203335  0.82078768  0.86331679  1
  Li  Li149  1  0.86280132  0.51038257  0.71098050  1
  Li  Li150  1  0.86668342  0.11928289  0.84195277  1
  Li  Li151  1  0.86805868  0.81081662  0.78280657  1
  Li  Li152  1  0.32317455  0.31935097  0.86582843  1
  Li  Li153  1  0.37844217  0.99526768  0.78020796  1
  Li  Li154  1  0.33295383  0.64470848  0.72276238  1
  Li  Li155  1  0.37104234  0.31019501  0.78332744  1
  Li  Li156  1  0.34130756  0.99069565  0.70469419  1
  Li  Li157  1  0.37023308  0.62118939  0.84213615  1
  Li  Li158  1  0.12992847  0.99215000  0.91688341  1
  Li  Li159  1  0.11417555  0.70298170  0.85211816  1
  Li  Li160  1  0.12506147  0.10838680  0.02621765  1
  Li  Li161  1  0.19186710  0.80239247  0.97782705  1
  Li  Li162  1  0.08417774  0.49031410  0.88731480  1
  Li  Li163  1  0.06968894  0.13598621  0.94505625  1
  Li  Li164  1  0.12820895  0.84351884  0.88799211  1
  Li  Li165  1  0.99578951  0.33896902  0.84837887  1
  Li  Li166  1  0.08673972  0.95990818  0.98894690  1
  Li  Li167  1  0.14241735  0.64060757  0.92953973  1
  Li  Li168  1  0.62024133  0.20637252  0.85789108  1
  Li  Li169  1  0.62029125  0.50203359  0.91632731  1
  Li  Li170  1  0.61856150  0.29727394  0.93942400  1
  Li  Li171  1  0.58333561  0.99180140  0.88796419  1
  Li  Li172  1  0.62430438  0.60939323  0.02369892  1
  Li  Li173  1  0.67669943  0.37235491  0.87562655  1
  Li  Li174  1  0.47603940  0.65169411  0.95383624  1
  Li  Li175  1  0.66109155  0.13571323  0.93510917  1
  Li  Li176  1  0.48599045  0.83992809  0.84626320  1
  Li  Li177  1  0.59240993  0.45892901  0.98678928  1
  Li  Li178  1  0.84476019  0.03667488  0.90548445  1
  Li  Li179  1  0.87938597  0.38672269  0.95156065  1
  Li  Li180  1  0.93411078  0.61958052  0.87272268  1
  Li  Li181  1  0.33921925  0.53596180  0.90524801  1
  Li  Li182  1  0.43328109  0.12212077  0.87871658  1
  Li  Li183  1  0.37778087  0.89177424  0.94931849  1
  P  P184  1  0.50730887  0.14534180  0.15525824  1
  P  P185  1  0.49289047  0.43995496  0.09412023  1
  P  P186  1  0.51071091  0.74175135  0.03236452  1
  P  P187  1  0.01880201  0.24128602  0.03269823  1
  P  P188  1  0.00755146  0.64453809  0.15692210  1
  P  P189  1  0.98731346  0.94098801  0.09632028  1
  P  P190  1  0.50415329  0.24825713  0.34027149  1
  P  P191  1  0.50535936  0.54775229  0.27538445  1
  P  P192  1  0.49615315  0.84468371  0.21914294  1
  P  P193  1  0.99553268  0.34524098  0.21838661  1
  P  P194  1  0.00453572  0.74783334  0.34065497  1
  P  P195  1  0.00114826  0.04767169  0.27574963  1
  P  P196  1  0.49571242  0.64730627  0.46164597  1
  P  P197  1  0.50146024  0.95033332  0.40077159  1
  P  P198  1  0.00340529  0.44957844  0.40012646  1
  P  P199  1  0.99886925  0.14808528  0.46098877  1
  P  P200  1  0.39188750  0.55540645  0.65717180  1
  P  P201  1  0.40880814  0.25761010  0.59681969  1
  P  P202  1  0.38997713  0.95885271  0.53374717  1
  P  P203  1  0.88817037  0.45785497  0.53233240  1
  P  P204  1  0.89078467  0.05465683  0.65953307  1
  P  P205  1  0.90958214  0.75918380  0.59572260  1
  P  P206  1  0.39503076  0.45271676  0.84025664  1
  P  P207  1  0.40130994  0.15371277  0.78005658  1
  P  P208  1  0.40060032  0.85445628  0.72025855  1
  P  P209  1  0.90264558  0.35516247  0.71929365  1
  P  P210  1  0.89487175  0.95159810  0.84151068  1
  P  P211  1  0.89360514  0.65172276  0.77596722  1
  P  P212  1  0.40008834  0.05071073  0.96446506  1
  P  P213  1  0.39545881  0.74976055  0.90094600  1
  P  P214  1  0.89740214  0.25031178  0.90249179  1
  P  P215  1  0.90558747  0.54978273  0.96190325  1
  S  S216  1  0.58953622  0.12164362  0.10588405  1
  S  S217  1  0.61484120  0.42075643  0.05180844  1
  S  S218  1  0.62600303  0.71092441  0.99083034  1
  S  S219  1  0.58620728  0.45567951  0.14307650  1
  S  S220  1  0.62698247  0.77493214  0.07409273  1
  S  S221  1  0.14302922  0.20955770  0.99286378  1
  S  S222  1  0.09560319  0.62316988  0.10786523  1
  S  S223  1  0.10877623  0.92204171  0.05370461  1
  S  S224  1  0.12559767  0.27210810  0.07706163  1
  S  S225  1  0.08180260  0.95528153  0.14524036  1
  S  S226  1  0.39733942  0.22337555  0.14552922  1
  S  S227  1  0.37878158  0.51060160  0.07762325  1
  S  S228  1  0.39606142  0.81771302  0.02172196  1
  S  S229  1  0.38251928  0.36260586  0.10637209  1
  S  S230  1  0.40389878  0.66560138  0.04683146  1
  S  S231  1  0.91307230  0.31816536  0.02021303  1
  S  S232  1  0.89847036  0.72247077  0.14605159  1
  S  S233  1  0.87567087  0.01255487  0.07978481  1
  S  S234  1  0.90816021  0.16567904  0.04526354  1
  S  S235  1  0.87684296  0.86377940  0.10763784  1
  S  S236  1  0.22112103  0.09294110  0.08533762  1
  S  S237  1  0.23349080  0.79207620  0.12186764  1
  S  S238  1  0.72912629  0.29317800  0.11713130  1
  S  S239  1  0.72252766  0.59487212  0.08303049  1
  S  S240  1  0.59426017  0.22191130  0.29363426  1
  S  S241  1  0.61863592  0.51785596  0.23419314  1
  S  S242  1  0.59811566  0.81687256  0.17397155  1
  S  S243  1  0.63167024  0.16572917  0.19604223  1
  S  S244  1  0.60606118  0.58118921  0.31994069  1
  S  S245  1  0.59796327  0.87314129  0.26332514  1
  S  S246  1  0.10206832  0.31598266  0.17428537  1
  S  S247  1  0.09515813  0.72164411  0.29402170  1
  S  S248  1  0.11536339  0.01850129  0.23447759  1
  S  S249  1  0.09448504  0.37537046  0.26283129  1
  S  S250  1  0.12843737  0.66339564  0.19881997  1
  S  S251  1  0.10256829  0.08188438  0.32000202  1
  S  S252  1  0.39376627  0.32608642  0.32901606  1
  S  S253  1  0.39189960  0.62038449  0.25749529  1
  S  S254  1  0.36870284  0.91353646  0.20510783  1
  S  S255  1  0.38737193  0.47666011  0.29167601  1
  S  S256  1  0.38653205  0.76827875  0.23402408  1
  S  S257  1  0.39611889  0.07334726  0.17566094  1
  S  S258  1  0.86979588  0.41385996  0.20291028  1
  S  S259  1  0.89377572  0.82527573  0.32917160  1
  S  S260  1  0.88383760  0.11863161  0.25819773  1
  S  S261  1  0.88496106  0.26889966  0.23229910  1
  S  S262  1  0.89590665  0.57147644  0.17526344  1
  S  S263  1  0.88709831  0.97516311  0.29223318  1
  S  S264  1  0.21971101  0.20071196  0.24852511  1
  S  S265  1  0.21254570  0.49424515  0.18411588  1
  S  S266  1  0.23011347  0.89804651  0.31288266  1
  S  S267  1  0.73067485  0.39750357  0.31213487  1
  S  S268  1  0.72114860  0.69921364  0.24870192  1
  S  S269  1  0.71207760  0.99591669  0.18508865  1
  S  S270  1  0.60914068  0.62135869  0.41820268  1
  S  S271  1  0.61252124  0.92450893  0.35674522  1
  S  S272  1  0.61402142  0.27165303  0.38451533  1
  S  S273  1  0.61383348  0.67255101  0.50377973  1
  S  S274  1  0.60612124  0.98236816  0.44475252  1
  S  S275  1  0.11478131  0.42354327  0.35625807  1
  S  S276  1  0.11185605  0.12329859  0.41730138  1
  S  S277  1  0.10745239  0.48147576  0.44426922  1
  S  S278  1  0.11419701  0.77114095  0.38490446  1
  S  S279  1  0.11690150  0.17201076  0.50345066  1
  S  S280  1  0.36912997  0.71545922  0.45035245  1
  S  S281  1  0.39058349  0.02616936  0.38675956  1
  S  S282  1  0.40591340  0.56765100  0.48003378  1
  S  S283  1  0.38672843  0.87809442  0.41319839  1
  S  S284  1  0.38974858  0.17550598  0.35727311  1
  S  S285  1  0.89345720  0.52580165  0.38608844  1
  S  S286  1  0.87229612  0.21644379  0.45030162  1
  S  S287  1  0.88787421  0.37758753  0.41234967  1
  S  S288  1  0.89017055  0.67482433  0.35747989  1
  S  S289  1  0.90906521  0.06774409  0.47846463  1
  S  S290  1  0.23901564  0.30578680  0.44292321  1
  S  S291  1  0.24019118  0.60272267  0.37025261  1
  S  S292  1  0.73596901  0.80416670  0.44242867  1
  S  S293  1  0.73894341  0.10321471  0.37050106  1
  S  S294  1  0.30354838  0.57686902  0.60817843  1
  S  S295  1  0.28665756  0.27614330  0.55417653  1
  S  S296  1  0.27354167  0.99008219  0.49255628  1
  S  S297  1  0.31404407  0.24243785  0.64552352  1
  S  S298  1  0.27524441  0.92495882  0.57560185  1
  S  S299  1  0.77394359  0.48926105  0.49067887  1
  S  S300  1  0.80227843  0.07650326  0.61078329  1
  S  S301  1  0.78669783  0.77892254  0.55343331  1
  S  S302  1  0.77153023  0.42462364  0.57395898  1
  S  S303  1  0.81592928  0.74284437  0.64452022  1
  S  S304  1  0.50081861  0.47736678  0.64606419  1
  S  S305  1  0.52133045  0.18626822  0.58033034  1
  S  S306  1  0.50449489  0.88296256  0.52266936  1
  S  S307  1  0.51963925  0.33464865  0.60834689  1
  S  S308  1  0.49613294  0.03493307  0.54854540  1
  S  S309  1  0.00247280  0.38181862  0.52170696  1
  S  S310  1  0.00048529  0.97686540  0.64838674  1
  S  S311  1  0.02188452  0.68838383  0.57833647  1
  S  S312  1  0.99493470  0.53384513  0.54703498  1
  S  S313  1  0.01961046  0.83609500  0.60781246  1
  S  S314  1  0.67732644  0.60495821  0.58311762  1
  S  S315  1  0.66501635  0.90754755  0.62284307  1
  S  S316  1  0.16475367  0.40757872  0.62212811  1
  S  S317  1  0.17453313  0.10338964  0.58351401  1
  S  S318  1  0.30301809  0.47853873  0.79378921  1
  S  S319  1  0.29032879  0.18324915  0.73805011  1
  S  S320  1  0.29376533  0.88383608  0.67620380  1
  S  S321  1  0.27169236  0.53631875  0.69917701  1
  S  S322  1  0.29856221  0.12094303  0.82445199  1
  S  S323  1  0.30095743  0.82412289  0.76442940  1
  S  S324  1  0.80123163  0.38187487  0.67384967  1
  S  S325  1  0.80357812  0.97922340  0.79529471  1
  S  S326  1  0.78083880  0.68197792  0.73476123  1
  S  S327  1  0.80128170  0.32775050  0.76379736  1
  S  S328  1  0.77095989  0.03497932  0.70148528  1
  S  S329  1  0.79356325  0.61873539  0.82072896  1
  S  S330  1  0.50745904  0.37599474  0.82838106  1
  S  S331  1  0.51651010  0.08205188  0.76229596  1
  S  S332  1  0.52690348  0.78606709  0.70482391  1
  S  S333  1  0.51730555  0.22521895  0.79699354  1
  S  S334  1  0.51030126  0.93091249  0.73485301  1
  S  S335  1  0.50371538  0.62848530  0.67537326  1
  S  S336  1  0.02921415  0.28575888  0.70531064  1
  S  S337  1  0.00324478  0.87319379  0.82996744  1
  S  S338  1  0.00585114  0.57859777  0.75796162  1
  S  S339  1  0.01330661  0.43117175  0.73421315  1
  S  S340  1  0.00306438  0.12765354  0.67773381  1
  S  S341  1  0.01272667  0.72222950  0.79225987  1
  S  S342  1  0.67908310  0.50102245  0.74856072  1
  S  S343  1  0.68542932  0.20392375  0.68739704  1
  S  S344  1  0.66892463  0.80213555  0.81320377  1
  S  S345  1  0.17541859  0.30235330  0.81449691  1
  S  S346  1  0.17905539  0.00012955  0.75060992  1
  S  S347  1  0.18748218  0.70552259  0.68504144  1
  S  S348  1  0.28601148  0.08200152  0.92229072  1
  S  S349  1  0.28482717  0.77575064  0.85685874  1
  S  S350  1  0.28695541  0.42900655  0.88468474  1
  S  S351  1  0.28178968  0.02512993  0.00620925  1
  S  S352  1  0.29099385  0.71787177  0.94499483  1
  S  S353  1  0.79248544  0.27798692  0.85706261  1
  S  S354  1  0.79531600  0.57918546  0.91836216  1
  S  S355  1  0.79022842  0.22401533  0.94622631  1
  S  S356  1  0.78551777  0.92887565  0.88586920  1
  S  S357  1  0.78359490  0.52638757  0.00348936  1
  S  S358  1  0.51867250  0.98041101  0.95069223  1
  S  S359  1  0.50512768  0.67341981  0.88686296  1
  S  S360  1  0.50726598  0.12340507  0.98516094  1
  S  S361  1  0.51071893  0.82164491  0.91323163  1
  S  S362  1  0.50848497  0.52631749  0.85679894  1
  S  S363  1  0.00060793  0.17252772  0.88597699  1
  S  S364  1  0.02618992  0.47935249  0.95112177  1
  S  S365  1  0.01858549  0.32032025  0.91438365  1
  S  S366  1  0.01211258  0.02363766  0.85806959  1
  S  S367  1  0.99921079  0.62832513  0.98083731  1
  S  S368  1  0.66366684  0.40094461  0.93628536  1
  S  S369  1  0.66013114  0.09753952  0.87365471  1
  S  S370  1  0.15746172  0.89213749  0.94343271  1
  S  S371  1  0.15990150  0.59635173  0.87055069  1
  Cl  Cl372  1  0.94747543  0.15341921  0.15216390  1
  Cl  Cl373  1  0.94456717  0.44101733  0.10364438  1
  Cl  Cl374  1  0.02213641  0.76210629  0.03398836  1
  Cl  Cl375  1  0.49000807  0.26611080  0.02860952  1
  Cl  Cl376  1  0.44773552  0.64964688  0.15285845  1
  Cl  Cl377  1  0.44187437  0.94064959  0.10603836  1
  Cl  Cl378  1  0.92511364  0.24614697  0.33225759  1
  Cl  Cl379  1  0.93724484  0.55532074  0.27795335  1
  Cl  Cl380  1  0.91614364  0.85010721  0.21803863  1
  Cl  Cl381  1  0.42228385  0.35315467  0.21635819  1
  Cl  Cl382  1  0.42562824  0.74662561  0.33372129  1
  Cl  Cl383  1  0.43616068  0.05718374  0.27786426  1
  Cl  Cl384  1  0.93993498  0.65735720  0.45991324  1
  Cl  Cl385  1  0.98128068  0.96801743  0.39127405  1
  Cl  Cl386  1  0.47364755  0.46651470  0.39227499  1
  Cl  Cl387  1  0.44165977  0.15773625  0.45996211  1
  Cl  Cl388  1  0.95309473  0.55049560  0.65333072  1
  Cl  Cl389  1  0.95833832  0.25786578  0.60600409  1
  Cl  Cl390  1  0.88325179  0.94197546  0.53684539  1
  Cl  Cl391  1  0.37750173  0.43717573  0.53479664  1
  Cl  Cl392  1  0.45019678  0.04845840  0.65505707  1
  Cl  Cl393  1  0.45810375  0.75911659  0.60507675  1
  Cl  Cl394  1  0.97283338  0.45184708  0.83448742  1
  Cl  Cl395  1  0.96922483  0.14562555  0.78006486  1
  Cl  Cl396  1  0.97267407  0.84578436  0.71775200  1
  Cl  Cl397  1  0.48388267  0.34970799  0.71872267  1
  Cl  Cl398  1  0.47366764  0.95366801  0.83425147  1
  Cl  Cl399  1  0.46326390  0.64493445  0.77818860  1
  Cl  Cl400  1  0.96545070  0.04241474  0.95971446  1
  Cl  Cl401  1  0.93050673  0.73395404  0.89326667  1
  Cl  Cl402  1  0.44648351  0.24260805  0.90660258  1
  Cl  Cl403  1  0.45868676  0.54307726  0.95997446  1
