# generated using pymatgen
data_Li44P6S33Cl8
_symmetry_space_group_name_H-M   'P 1'
_cell_length_a   10.60410300
_cell_length_b   21.51103300
_cell_length_c   31.24501179
_cell_angle_alpha   90.00000000
_cell_angle_beta   90.00000000
_cell_angle_gamma   90.00000000
_symmetry_Int_Tables_number   1
_chemical_formula_structural   Li44P6S33Cl8
_chemical_formula_sum   'Li176 P24 S132 Cl32'
_cell_volume   7127.14996125
_cell_formula_units_Z   4
loop_
 _symmetry_equiv_pos_site_id
 _symmetry_equiv_pos_as_xyz
  1  'x, y, z'
loop_
 _atom_site_type_symbol
 _atom_site_label
 _atom_site_symmetry_multiplicity
 _atom_site_fract_x
 _atom_site_fract_y
 _atom_site_fract_z
 _atom_site_occupancy
  Li  Li0  1  0.92430411  0.14954960  0.08279114  1
  Li  Li1  1  0.57570679  0.48343734  0.01688644  1
  Li  Li2  1  0.77450130  0.83567925  0.15647432  1
  Li  Li3  1  0.75987161  0.34541850  0.08707544  1
  Li  Li4  1  0.73715018  0.64465784  0.06861732  1
  Li  Li5  1  0.85113308  0.22613973  0.01945295  1
  Li  Li6  1  0.53860329  0.60481652  0.99539588  1
  Li  Li7  1  0.80184913  0.00363929  0.12739242  1
  Li  Li8  1  0.78703428  0.17201826  0.16113123  1
  Li  Li9  1  0.94247752  0.49327945  0.04908914  1
  Li  Li10  1  0.97192911  0.77866788  0.00588537  1
  Li  Li11  1  0.27500401  0.33556141  0.15640445  1
  Li  Li12  1  0.42395700  0.64971597  0.08224393  1
  Li  Li13  1  0.07604989  0.98213210  0.01666802  1
  Li  Li14  1  0.23826348  0.14426883  0.06877696  1
  Li  Li15  1  0.25983423  0.84548195  0.08728510  1
  Li  Li16  1  0.04148928  0.10305539  0.99722088  1
  Li  Li17  1  0.30041439  0.50368740  0.12714728  1
  Li  Li18  1  0.34917821  0.72682186  0.01951128  1
  Li  Li19  1  0.47209877  0.27864982  0.00588663  1
  Li  Li20  1  0.28644845  0.67158677  0.16109124  1
  Li  Li21  1  0.44254144  0.99325756  0.04915736  1
  Li  Li22  1  0.18508852  0.00652890  0.10814018  1
  Li  Li23  1  0.97971944  0.27246721  0.09892204  1
  Li  Li24  1  0.05498342  0.75834259  0.13034759  1
  Li  Li25  1  0.03227936  0.43028275  0.14257588  1
  Li  Li26  1  0.12891417  0.65211870  0.05842306  1
  Li  Li27  1  0.55512866  0.25835256  0.13031565  1
  Li  Li28  1  0.68542263  0.50670499  0.10815104  1
  Li  Li29  1  0.47928582  0.77219419  0.09908276  1
  Li  Li30  1  0.62919451  0.15183935  0.05833340  1
  Li  Li31  1  0.53235937  0.93032967  0.14259009  1
  Li  Li32  1  0.90802198  0.26705860  0.30053654  1
  Li  Li33  1  0.77398410  0.53338155  0.22900184  1
  Li  Li34  1  0.74503571  0.94981275  0.36407620  1
  Li  Li35  1  0.81757908  0.43852615  0.33708847  1
  Li  Li36  1  0.78194366  0.74381595  0.26866991  1
  Li  Li37  1  0.75794076  0.03170764  0.21596795  1
  Li  Li38  1  0.77472874  0.39383597  0.25352977  1
  Li  Li39  1  0.80351980  0.69354679  0.18703801  1
  Li  Li40  1  0.79030326  0.10977549  0.33845704  1
  Li  Li41  1  0.77974712  0.28149690  0.38151672  1
  Li  Li42  1  0.96469380  0.60519924  0.26089048  1
  Li  Li43  1  0.90451073  0.89726861  0.22301733  1
  Li  Li44  1  0.24480529  0.44978470  0.36398759  1
  Li  Li45  1  0.40787409  0.76706344  0.30053632  1
  Li  Li46  1  0.27407970  0.03340297  0.22901223  1
  Li  Li47  1  0.28222593  0.24366997  0.26883751  1
  Li  Li48  1  0.25775883  0.53138692  0.21583632  1
  Li  Li49  1  0.31732786  0.93838213  0.33728806  1
  Li  Li50  1  0.30364337  0.19358923  0.18706542  1
  Li  Li51  1  0.28983869  0.60982153  0.33801433  1
  Li  Li52  1  0.27500818  0.89398785  0.25362129  1
  Li  Li53  1  0.40402465  0.39744766  0.22319488  1
  Li  Li54  1  0.27971061  0.78151059  0.38152139  1
  Li  Li55  1  0.46545951  0.10465035  0.26119149  1
  Li  Li56  1  0.20402020  0.11113649  0.32037041  1
  Li  Li57  1  0.06701661  0.41581804  0.23355509  1
  Li  Li58  1  0.04086888  0.86669080  0.34772680  1
  Li  Li59  1  0.03482772  0.12953414  0.22300458  1
  Li  Li60  1  0.04082732  0.55942652  0.40559843  1
  Li  Li61  1  0.09201715  0.77435442  0.27911326  1
  Li  Li62  1  0.54170906  0.36668642  0.34767540  1
  Li  Li63  1  0.70400142  0.61117461  0.32034916  1
  Li  Li64  1  0.56736616  0.91582886  0.23356027  1
  Li  Li65  1  0.59227334  0.27402177  0.27910917  1
  Li  Li66  1  0.53400432  0.62954465  0.22286321  1
  Li  Li67  1  0.54084256  0.05942064  0.40553116  1
  Li  Li68  1  0.91985896  0.67775544  0.44592057  1
  Li  Li69  1  0.82780368  0.85939189  0.48107309  1
  Li  Li70  1  0.90592576  0.12102287  0.42160679  1
  Li  Li71  1  0.65822482  0.65821628  0.48580823  1
  Li  Li72  1  0.82261415  0.80814552  0.40254492  1
  Li  Li73  1  0.86470708  0.76009617  0.53746556  1
  Li  Li74  1  0.97552569  0.00582481  0.40109165  1
  Li  Li75  1  0.41987905  0.17769310  0.44608433  1
  Li  Li76  1  0.32746978  0.35850455  0.48140365  1
  Li  Li77  1  0.40660187  0.62016550  0.42122854  1
  Li  Li78  1  0.32282427  0.30811984  0.40270478  1
  Li  Li79  1  0.15709486  0.15831456  0.48591021  1
  Li  Li80  1  0.47644284  0.50536468  0.40094100  1
  Li  Li81  1  0.36592593  0.25939501  0.53861393  1
  Li  Li82  1  0.20857209  0.51634778  0.47171737  1
  Li  Li83  1  0.07259391  0.25704306  0.41487827  1
  Li  Li84  1  0.28786008  0.02706050  0.46358414  1
  Li  Li85  1  0.70810381  0.01764053  0.47207803  1
  Li  Li86  1  0.78803939  0.52689422  0.46365803  1
  Li  Li87  1  0.57186624  0.75722145  0.41477260  1
  Li  Li88  1  0.62606725  0.42548341  0.58226500  1
  Li  Li89  1  0.97406044  0.09274141  0.51670134  1
  Li  Li90  1  0.77535252  0.73925167  0.65646353  1
  Li  Li91  1  0.79075785  0.22935946  0.58731066  1
  Li  Li92  1  0.81179427  0.93075264  0.56875375  1
  Li  Li93  1  0.70063153  0.34814901  0.51958515  1
  Li  Li94  1  0.01054899  0.97113992  0.49645172  1
  Li  Li95  1  0.74949194  0.57137903  0.62700506  1
  Li  Li96  1  0.76247715  0.40281768  0.66120602  1
  Li  Li97  1  0.60736020  0.08135036  0.54921010  1
  Li  Li98  1  0.57863402  0.79621899  0.50556183  1
  Li  Li99  1  0.27570734  0.23936487  0.65648254  1
  Li  Li100  1  0.12695596  0.92601906  0.58216114  1
  Li  Li101  1  0.47405514  0.59263898  0.51658868  1
  Li  Li102  1  0.31251007  0.43052490  0.56880857  1
  Li  Li103  1  0.29004709  0.72963294  0.58707776  1
  Li  Li104  1  0.51116220  0.47057531  0.49549822  1
  Li  Li105  1  0.24812306  0.07131495  0.62740439  1
  Li  Li106  1  0.19880273  0.84852589  0.51945989  1
  Li  Li107  1  0.07860100  0.29617897  0.50594600  1
  Li  Li108  1  0.26238250  0.90300128  0.66110738  1
  Li  Li109  1  0.10754243  0.58115751  0.54901439  1
  Li  Li110  1  0.36250845  0.56881736  0.60757215  1
  Li  Li111  1  0.57150161  0.30277098  0.59950305  1
  Li  Li112  1  0.49489903  0.81664971  0.63030730  1
  Li  Li113  1  0.51763204  0.14467806  0.64262539  1
  Li  Li114  1  0.42105503  0.92299355  0.55832292  1
  Li  Li115  1  0.99515494  0.31669707  0.63042452  1
  Li  Li116  1  0.86480226  0.06839973  0.60813433  1
  Li  Li117  1  0.07045224  0.80317110  0.59910108  1
  Li  Li118  1  0.92092877  0.42281659  0.55836825  1
  Li  Li119  1  0.01762598  0.64472380  0.64258551  1
  Li  Li120  1  0.64179395  0.30826431  0.80110217  1
  Li  Li121  1  0.77558275  0.04162565  0.72896819  1
  Li  Li122  1  0.80520321  0.62520503  0.86399294  1
  Li  Li123  1  0.73244795  0.13690992  0.83733178  1
  Li  Li124  1  0.76778066  0.83128515  0.76888543  1
  Li  Li125  1  0.78987227  0.54257278  0.71531532  1
  Li  Li126  1  0.77519771  0.18118433  0.75362436  1
  Li  Li127  1  0.74626608  0.88138754  0.68707855  1
  Li  Li128  1  0.76039955  0.46516490  0.83849400  1
  Li  Li129  1  0.77043063  0.29347719  0.88158495  1
  Li  Li130  1  0.58401704  0.97037860  0.76111781  1
  Li  Li131  1  0.64597829  0.67749565  0.72319394  1
  Li  Li132  1  0.30248078  0.12627482  0.86469646  1
  Li  Li133  1  0.14191685  0.80793029  0.80053998  1
  Li  Li134  1  0.27577882  0.54161521  0.72896170  1
  Li  Li135  1  0.26784588  0.33133651  0.76884035  1
  Li  Li136  1  0.29212603  0.04325661  0.71607672  1
  Li  Li137  1  0.23217583  0.63685712  0.83730442  1
  Li  Li138  1  0.24635313  0.38147157  0.68708037  1
  Li  Li139  1  0.26008484  0.96522062  0.83802551  1
  Li  Li140  1  0.27476087  0.68115216  0.75358467  1
  Li  Li141  1  0.14520263  0.17769779  0.72288518  1
  Li  Li142  1  0.27031282  0.79352960  0.88150375  1
  Li  Li143  1  0.08415393  0.47044756  0.76110681  1
  Li  Li144  1  0.34544655  0.46482793  0.82030597  1
  Li  Li145  1  0.48276214  0.15913208  0.73359666  1
  Li  Li146  1  0.50816306  0.70821830  0.84766044  1
  Li  Li147  1  0.51385140  0.44493029  0.72329770  1
  Li  Li148  1  0.50909270  0.01560927  0.90549438  1
  Li  Li149  1  0.45831850  0.80065253  0.77904022  1
  Li  Li150  1  0.00972123  0.20833253  0.84743373  1
  Li  Li151  1  0.84542637  0.96482237  0.82029958  1
  Li  Li152  1  0.98241832  0.65875384  0.73357290  1
  Li  Li153  1  0.95764268  0.30119878  0.77877551  1
  Li  Li154  1  0.01348946  0.94504211  0.72317430  1
  Li  Li155  1  0.00952870  0.51537421  0.90581598  1
  Li  Li156  1  0.63044696  0.89743675  0.94606830  1
  Li  Li157  1  0.72248510  0.71635011  0.98104099  1
  Li  Li158  1  0.64458310  0.45477710  0.92162253  1
  Li  Li159  1  0.89298862  0.91667832  0.98590426  1
  Li  Li160  1  0.72727176  0.76692657  0.90259136  1
  Li  Li161  1  0.68531717  0.81499883  0.03747114  1
  Li  Li162  1  0.57429211  0.56952953  0.90106065  1
  Li  Li163  1  0.13057370  0.39740701  0.94610274  1
  Li  Li164  1  0.22294128  0.21554329  0.98094912  1
  Li  Li165  1  0.14419095  0.95392552  0.92149333  1
  Li  Li166  1  0.22726698  0.26703899  0.90256143  1
  Li  Li167  1  0.39366063  0.41668627  0.98606203  1
  Li  Li168  1  0.07443722  0.06913152  0.90112787  1
  Li  Li169  1  0.18652370  0.31458604  0.03736326  1
  Li  Li170  1  0.34192125  0.05733127  0.97204216  1
  Li  Li171  1  0.47766646  0.31783480  0.91498102  1
  Li  Li172  1  0.26212940  0.54803284  0.96371360  1
  Li  Li173  1  0.84167028  0.55893998  0.97215690  1
  Li  Li174  1  0.76235890  0.04801922  0.96369841  1
  Li  Li175  1  0.97815572  0.81782283  0.91483404  1
  P  P176  1  0.49494474  0.08396778  0.14245647  1
  P  P177  1  0.48929401  0.38712813  0.07705658  1
  P  P178  1  0.99456946  0.58399279  0.14236943  1
  P  P179  1  0.98921540  0.88692230  0.07718769  1
  P  P180  1  0.49895188  0.19434077  0.35535510  1
  P  P181  1  0.49935662  0.49135341  0.28737706  1
  P  P182  1  0.49666195  0.78515687  0.21050313  1
  P  P183  1  0.99697406  0.28518660  0.21052889  1
  P  P184  1  0.99877431  0.69432849  0.35518768  1
  P  P185  1  0.99945004  0.99143166  0.28740669  1
  P  P186  1  0.50164346  0.89094087  0.43131202  1
  P  P187  1  0.00158902  0.39067180  0.43135316  1
  P  P188  1  0.05492090  0.49089750  0.64240540  1
  P  P189  1  0.06091698  0.18793401  0.57723147  1
  P  P190  1  0.55483798  0.99095186  0.64243803  1
  P  P191  1  0.56069821  0.68796194  0.57697786  1
  P  P192  1  0.05151594  0.38069268  0.85533011  1
  P  P193  1  0.05038705  0.08366147  0.78737700  1
  P  P194  1  0.05276769  0.78969188  0.71060179  1
  P  P195  1  0.55340501  0.28980980  0.71089413  1
  P  P196  1  0.55121819  0.88060512  0.85534122  1
  P  P197  1  0.55036238  0.58369806  0.78746139  1
  P  P198  1  0.04862919  0.68419023  0.93137721  1
  P  P199  1  0.54856711  0.18404784  0.93138194  1
  S  S200  1  0.60545488  0.04988038  0.09401430  1
  S  S201  1  0.60443165  0.36916694  0.02504378  1
  S  S202  1  0.61270380  0.75436292  0.16157341  1
  S  S203  1  0.59975128  0.40124716  0.12950205  1
  S  S204  1  0.11290272  0.25437751  0.16155335  1
  S  S205  1  0.10512334  0.55008651  0.09386160  1
  S  S206  1  0.10469363  0.86858579  0.02528631  1
  S  S207  1  0.09944067  0.90110427  0.12969036  1
  S  S208  1  0.40873768  0.16432863  0.12050251  1
  S  S209  1  0.37984668  0.46086332  0.06044057  1
  S  S210  1  0.37953946  0.30836883  0.08696722  1
  S  S211  1  0.36813723  0.01531623  0.15819367  1
  S  S212  1  0.90833350  0.66435616  0.12047073  1
  S  S213  1  0.88053752  0.96086321  0.06044108  1
  S  S214  1  0.86810571  0.51526051  0.15818851  1
  S  S215  1  0.87898125  0.80836999  0.08705544  1
  S  S216  1  0.23611694  0.04555494  0.03918710  1
  S  S217  1  0.08030089  0.21248665  0.04109750  1
  S  S218  1  0.25920088  0.73289764  0.09563873  1
  S  S219  1  0.75953562  0.23283442  0.09554877  1
  S  S220  1  0.73678056  0.54590339  0.03924087  1
  S  S221  1  0.57945719  0.71297096  0.04096336  1
  S  S222  1  0.61092238  0.16542328  0.30513395  1
  S  S223  1  0.59379979  0.46387434  0.23290477  1
  S  S224  1  0.61435896  0.85957449  0.38179541  1
  S  S225  1  0.60211046  0.11157761  0.19437825  1
  S  S226  1  0.61696605  0.50935412  0.33824745  1
  S  S227  1  0.59584965  0.81111265  0.26438278  1
  S  S228  1  0.11468423  0.35940378  0.38190730  1
  S  S229  1  0.11065360  0.66557065  0.30489831  1
  S  S230  1  0.09392686  0.96392574  0.23293296  1
  S  S231  1  0.09611999  0.31115873  0.26440267  1
  S  S232  1  0.10183180  0.61145021  0.19431191  1
  S  S233  1  0.11689246  0.00935013  0.33832685  1
  S  S234  1  0.40069351  0.27156210  0.33312462  1
  S  S235  1  0.39705931  0.57011162  0.27260640  1
  S  S236  1  0.39608812  0.86082420  0.18955635  1
  S  S237  1  0.37846880  0.41990040  0.30231771  1
  S  S238  1  0.37493450  0.71561656  0.22835873  1
  S  S239  1  0.37340484  0.12700788  0.37430687  1
  S  S240  1  0.89615623  0.36077996  0.18955733  1
  S  S241  1  0.90026303  0.77152449  0.33304010  1
  S  S242  1  0.89736621  0.07028889  0.27273170  1
  S  S243  1  0.87546529  0.21559018  0.22840850  1
  S  S244  1  0.87340167  0.62693122  0.37416703  1
  S  S245  1  0.87827698  0.92003390  0.30219123  1
  S  S246  1  0.25049955  0.13799203  0.24934715  1
  S  S247  1  0.22992745  0.43595904  0.18207850  1
  S  S248  1  0.24042284  0.83794848  0.31738331  1
  S  S249  1  0.74075125  0.33789269  0.31732723  1
  S  S250  1  0.74986321  0.63808179  0.24926770  1
  S  S251  1  0.73006536  0.93610833  0.18217840  1
  S  S252  1  0.60129112  0.21929052  0.40768191  1
  S  S253  1  0.60204680  0.91386869  0.48647462  1
  S  S254  1  0.10164549  0.41361548  0.48659015  1
  S  S255  1  0.10126527  0.71917940  0.40749710  1
  S  S256  1  0.40167677  0.96520556  0.40821876  1
  S  S257  1  0.38824585  0.81744085  0.44924427  1
  S  S258  1  0.90159470  0.46488330  0.40822544  1
  S  S259  1  0.88834733  0.31707196  0.44924308  1
  S  S260  1  0.25913443  0.25173295  0.46625727  1
  S  S261  1  0.26053929  0.54475656  0.39863750  1
  S  S262  1  0.07896830  0.06843723  0.45225695  1
  S  S263  1  0.57943235  0.56817578  0.45213369  1
  S  S264  1  0.75912138  0.75200919  0.46594780  1
  S  S265  1  0.76044989  0.04494971  0.39887507  1
  S  S266  1  0.94463086  0.52476108  0.59382475  1
  S  S267  1  0.94543032  0.20635129  0.52533633  1
  S  S268  1  0.93680857  0.82055916  0.66165583  1
  S  S269  1  0.95067491  0.17356646  0.62970409  1
  S  S270  1  0.43775220  0.32082576  0.66194246  1
  S  S271  1  0.44435232  0.02489269  0.59394561  1
  S  S272  1  0.44554881  0.70631458  0.52501044  1
  S  S273  1  0.45012332  0.67358450  0.62936589  1
  S  S274  1  0.14160365  0.41065252  0.62050062  1
  S  S275  1  0.16994116  0.11416083  0.56041608  1
  S  S276  1  0.17091477  0.26656675  0.58719278  1
  S  S277  1  0.18135164  0.55969232  0.65820461  1
  S  S278  1  0.64128100  0.91064655  0.62051691  1
  S  S279  1  0.66976326  0.61413266  0.56025039  1
  S  S280  1  0.68142891  0.05969122  0.65820225  1
  S  S281  1  0.67073631  0.76656844  0.58700894  1
  S  S282  1  0.31340682  0.52918828  0.53891044  1
  S  S283  1  0.47029064  0.36196231  0.54151863  1
  S  S284  1  0.29055744  0.84223174  0.59552886  1
  S  S285  1  0.79117298  0.34195631  0.59566821  1
  S  S286  1  0.81369327  0.02948127  0.53919564  1
  S  S287  1  0.97001269  0.86255207  0.54110957  1
  S  S288  1  0.93932418  0.40965143  0.80514576  1
  S  S289  1  0.95567456  0.11111247  0.73293982  1
  S  S290  1  0.93562011  0.71547399  0.88192973  1
  S  S291  1  0.94773228  0.46327534  0.69429586  1
  S  S292  1  0.93304373  0.06627569  0.83844650  1
  S  S293  1  0.95364688  0.76361471  0.76445111  1
  S  S294  1  0.43600982  0.21558762  0.88189455  1
  S  S295  1  0.43926418  0.90935455  0.80506493  1
  S  S296  1  0.45593101  0.61115082  0.73297017  1
  S  S297  1  0.45398149  0.26374183  0.76464869  1
  S  S298  1  0.44753168  0.96333416  0.69432408  1
  S  S299  1  0.43289928  0.56629659  0.83849396  1
  S  S300  1  0.14974904  0.30353041  0.83301779  1
  S  S301  1  0.15170887  0.00456631  0.77267318  1
  S  S302  1  0.15370033  0.71418086  0.68957978  1
  S  S303  1  0.17208126  0.15490493  0.80194709  1
  S  S304  1  0.17399861  0.85941795  0.72845858  1
  S  S305  1  0.17699358  0.44802493  0.87431686  1
  S  S306  1  0.65402357  0.21428074  0.68969582  1
  S  S307  1  0.64951126  0.80337406  0.83313618  1
  S  S308  1  0.65187937  0.50463248  0.77290388  1
  S  S309  1  0.67473833  0.35944579  0.72887904  1
  S  S310  1  0.67663539  0.94802357  0.87427328  1
  S  S311  1  0.67167113  0.65506080  0.80224977  1
  S  S312  1  0.29888175  0.43706672  0.74944041  1
  S  S313  1  0.32002233  0.13885069  0.68217802  1
  S  S314  1  0.30924808  0.73718200  0.81730727  1
  S  S315  1  0.80971988  0.23733983  0.81733929  1
  S  S316  1  0.79876522  0.93703301  0.74943312  1
  S  S317  1  0.81987396  0.63868191  0.68212980  1
  S  S318  1  0.94920559  0.35573305  0.90766436  1
  S  S319  1  0.94844054  0.66145782  0.98665075  1
  S  S320  1  0.44814269  0.16100566  0.98654252  1
  S  S321  1  0.44892364  0.85571174  0.90769120  1
  S  S322  1  0.14838091  0.60986735  0.90828438  1
  S  S323  1  0.16212476  0.75768828  0.94924086  1
  S  S324  1  0.64852951  0.10977811  0.90828048  1
  S  S325  1  0.66204819  0.25745622  0.94941420  1
  S  S326  1  0.29152429  0.32305074  0.96604591  1
  S  S327  1  0.28947476  0.03011781  0.89871809  1
  S  S328  1  0.47096752  0.50688558  0.95223853  1
  S  S329  1  0.97121982  0.00651448  0.95228390  1
  S  S330  1  0.79139646  0.82318357  0.96602997  1
  S  S331  1  0.78998059  0.53041784  0.89894560  1
  Cl  Cl332  1  0.94380007  0.08976514  0.14644305  1
  Cl  Cl333  1  0.97899354  0.37996426  0.07337697  1
  Cl  Cl334  1  0.31387507  0.61847832  0.01795235  1
  Cl  Cl335  1  0.81477663  0.11787747  0.01830605  1
  Cl  Cl336  1  0.44331801  0.58988741  0.14615426  1
  Cl  Cl337  1  0.47898579  0.87999066  0.07342475  1
  Cl  Cl338  1  0.94574198  0.19703368  0.36501047  1
  Cl  Cl339  1  0.93323649  0.48532975  0.27550173  1
  Cl  Cl340  1  0.93994155  0.78557603  0.21151728  1
  Cl  Cl341  1  0.44002122  0.28563485  0.21152953  1
  Cl  Cl342  1  0.44562605  0.69699379  0.36498580  1
  Cl  Cl343  1  0.43334548  0.98522409  0.27555060  1
  Cl  Cl344  1  0.98751078  0.58594312  0.48214356  1
  Cl  Cl345  1  0.95283315  0.89664781  0.42114703  1
  Cl  Cl346  1  0.45319329  0.39657375  0.42171966  1
  Cl  Cl347  1  0.48848178  0.08589196  0.48223745  1
  Cl  Cl348  1  0.60779063  0.48506448  0.64635742  1
  Cl  Cl349  1  0.57056714  0.19511472  0.57356262  1
  Cl  Cl350  1  0.23611534  0.95674457  0.51786109  1
  Cl  Cl351  1  0.73593744  0.45643858  0.51790951  1
  Cl  Cl352  1  0.10602605  0.98513723  0.64612057  1
  Cl  Cl353  1  0.07077724  0.69514955  0.57339627  1
  Cl  Cl354  1  0.60502177  0.37804409  0.86540161  1
  Cl  Cl355  1  0.61664942  0.08976074  0.77557193  1
  Cl  Cl356  1  0.61000767  0.78925633  0.71156291  1
  Cl  Cl357  1  0.10980128  0.28945106  0.71144637  1
  Cl  Cl358  1  0.10470550  0.87772052  0.86500045  1
  Cl  Cl359  1  0.11672476  0.58975961  0.77558963  1
  Cl  Cl360  1  0.56154605  0.98909333  0.98223711  1
  Cl  Cl361  1  0.59692860  0.67843676  0.92153797  1
  Cl  Cl362  1  0.09851994  0.17838080  0.92082669  1
  Cl  Cl363  1  0.06253513  0.48907557  0.98226342  1
