# generated using pymatgen
data_Li46P8S39Cl8
_symmetry_space_group_name_H-M   'P 1'
_cell_length_a   10.60410300
_cell_length_b   21.51103300
_cell_length_c   36.34478683
_cell_angle_alpha   90.00000000
_cell_angle_beta   90.00000000
_cell_angle_gamma   90.00000000
_symmetry_Int_Tables_number   1
_chemical_formula_structural   Li46P8S39Cl8
_chemical_formula_sum   'Li184 P32 S156 Cl32'
_cell_volume   8290.43521749
_cell_formula_units_Z   4
loop_
 _symmetry_equiv_pos_site_id
 _symmetry_equiv_pos_as_xyz
  1  'x, y, z'
loop_
 _atom_site_type_symbol
 _atom_site_label
 _atom_site_symmetry_multiplicity
 _atom_site_fract_x
 _atom_site_fract_y
 _atom_site_fract_z
 _atom_site_occupancy
  Li  Li0  1  0.79094213  0.19016153  0.10387890  1
  Li  Li1  1  0.77143726  0.48806230  0.06705093  1
  Li  Li2  1  0.82671348  0.67858363  0.94515492  1
  Li  Li3  1  0.76971161  0.39341513  0.14175473  1
  Li  Li4  1  0.71742987  0.68889251  0.10711358  1
  Li  Li5  1  0.69061345  0.31628655  0.05273346  1
  Li  Li6  1  0.88632647  0.60280800  0.04057578  1
  Li  Li7  1  0.71429911  0.03091147  0.12576226  1
  Li  Li8  1  0.71197953  0.54382655  0.13714424  1
  Li  Li9  1  0.81340841  0.81104996  0.04940741  1
  Li  Li10  1  0.32841339  0.17744751  0.94517279  1
  Li  Li11  1  0.29084730  0.69017840  0.10390533  1
  Li  Li12  1  0.27092612  0.98753601  0.06787440  1
  Li  Li13  1  0.21736150  0.18889351  0.10717656  1
  Li  Li14  1  0.27013375  0.89348255  0.14176503  1
  Li  Li15  1  0.39162237  0.10116013  0.04260619  1
  Li  Li16  1  0.21539550  0.53129708  0.12596557  1
  Li  Li17  1  0.19029738  0.81620470  0.05273007  1
  Li  Li18  1  0.31356882  0.31098867  0.04939313  1
  Li  Li19  1  0.20678209  0.04470880  0.13861393  1
  Li  Li20  1  0.99567099  0.10013398  0.09275101  1
  Li  Li21  1  0.93399245  0.33456971  0.09036306  1
  Li  Li22  1  0.99665447  0.47320887  0.16508085  1
  Li  Li23  1  0.03734709  0.73845464  0.09366716  1
  Li  Li24  1  0.49554276  0.60016008  0.09283719  1
  Li  Li25  1  0.43340498  0.83458785  0.09033090  1
  Li  Li26  1  0.53764244  0.23845625  0.09360213  1
  Li  Li27  1  0.49660697  0.97315004  0.16508886  1
  Li  Li28  1  0.75401807  0.29877840  0.29246680  1
  Li  Li29  1  0.76131910  0.59989204  0.23093781  1
  Li  Li30  1  0.76555253  0.89643735  0.16717270  1
  Li  Li31  1  0.73337755  0.49593355  0.34327420  1
  Li  Li32  1  0.75814748  0.79938831  0.27154032  1
  Li  Li33  1  0.81789580  0.08844772  0.19719389  1
  Li  Li34  1  0.78683760  0.45988682  0.26472480  1
  Li  Li35  1  0.79197498  0.76224980  0.20132187  1
  Li  Li36  1  0.75568497  0.15840549  0.31518349  1
  Li  Li37  1  0.77413922  0.24108694  0.17491918  1
  Li  Li38  1  0.77570144  0.64301789  0.29987906  1
  Li  Li39  1  0.75576603  0.94155601  0.24038404  1
  Li  Li40  1  0.26551587  0.39657678  0.16720499  1
  Li  Li41  1  0.25382365  0.79881986  0.29251239  1
  Li  Li42  1  0.26146929  0.09986777  0.23096120  1
  Li  Li43  1  0.25830711  0.29941430  0.27149965  1
  Li  Li44  1  0.31716156  0.58867669  0.19753548  1
  Li  Li45  1  0.23339970  0.99604878  0.34323308  1
  Li  Li46  1  0.29181454  0.26249044  0.20114264  1
  Li  Li47  1  0.25565279  0.65841945  0.31527160  1
  Li  Li48  1  0.28704939  0.95994710  0.26474752  1
  Li  Li49  1  0.25598415  0.44155961  0.24045422  1
  Li  Li50  1  0.27397865  0.74109102  0.17490962  1
  Li  Li51  1  0.27863781  0.14431928  0.29956405  1
  Li  Li52  1  0.00848539  0.20845939  0.27856800  1
  Li  Li53  1  0.05721558  0.55949771  0.22395090  1
  Li  Li54  1  0.02840822  0.83327238  0.15058702  1
  Li  Li55  1  0.04046324  0.21019815  0.20308737  1
  Li  Li56  1  0.01658734  0.57929974  0.34328148  1
  Li  Li57  1  0.01447731  0.89048485  0.28314491  1
  Li  Li58  1  0.52845868  0.33331869  0.15059627  1
  Li  Li59  1  0.50748465  0.70873880  0.27849493  1
  Li  Li60  1  0.55739984  0.05948310  0.22384667  1
  Li  Li61  1  0.51446805  0.39052340  0.28314632  1
  Li  Li62  1  0.54000712  0.71003882  0.20306544  1
  Li  Li63  1  0.51658565  0.07930829  0.34329788  1
  Li  Li64  1  0.75659140  0.69998250  0.41663832  1
  Li  Li65  1  0.77636300  0.99854927  0.35747059  1
  Li  Li66  1  0.72964213  0.60113087  0.51773556  1
  Li  Li67  1  0.78125429  0.90425877  0.44238172  1
  Li  Li68  1  0.79083031  0.21565267  0.38574924  1
  Li  Li69  1  0.92140743  0.54741414  0.45894894  1
  Li  Li70  1  0.70870586  0.83434212  0.37605195  1
  Li  Li71  1  0.89530648  0.36373291  0.34694446  1
  Li  Li72  1  0.79196719  0.74582915  0.48688977  1
  Li  Li73  1  0.73946394  0.06411458  0.43250834  1
  Li  Li74  1  0.27739260  0.49806748  0.35789241  1
  Li  Li75  1  0.25642203  0.19993798  0.41664871  1
  Li  Li76  1  0.28153742  0.40423020  0.44254503  1
  Li  Li77  1  0.29087814  0.71566569  0.38582827  1
  Li  Li78  1  0.22763367  0.10003226  0.51661341  1
  Li  Li79  1  0.20865947  0.33434553  0.37607186  1
  Li  Li80  1  0.42214556  0.04658166  0.45907080  1
  Li  Li81  1  0.23917654  0.56416319  0.43255928  1
  Li  Li82  1  0.39568998  0.86359170  0.34684643  1
  Li  Li83  1  0.29204060  0.24558456  0.48687960  1
  Li  Li84  1  0.03877461  0.66667741  0.40694905  1
  Li  Li85  1  0.05984991  0.88218765  0.36490365  1
  Li  Li86  1  0.01073829  0.31699628  0.45445796  1
  Li  Li87  1  0.94980904  0.10315071  0.37245884  1
  Li  Li88  1  0.55913310  0.38219869  0.36501044  1
  Li  Li89  1  0.53860621  0.16665283  0.40705853  1
  Li  Li90  1  0.44898021  0.60311365  0.37288008  1
  Li  Li91  1  0.51101605  0.81698763  0.45457698  1
  Li  Li92  1  0.57766237  0.00953837  0.61101402  1
  Li  Li93  1  0.62465093  0.71543184  0.57624028  1
  Li  Li94  1  0.53926111  0.51958733  0.45408423  1
  Li  Li95  1  0.61626775  0.80285249  0.64502590  1
  Li  Li96  1  0.60005454  0.50523377  0.58347081  1
  Li  Li97  1  0.63852163  0.87153835  0.56206943  1
  Li  Li98  1  0.46698822  0.61109153  0.54647234  1
  Li  Li99  1  0.65320703  0.16999422  0.62550066  1
  Li  Li100  1  0.71228641  0.63162654  0.64058448  1
  Li  Li101  1  0.59901693  0.38043675  0.55350711  1
  Li  Li102  1  0.03832386  0.01952911  0.45386967  1
  Li  Li103  1  0.07915229  0.50983396  0.61107205  1
  Li  Li104  1  0.12927539  0.21467857  0.57773492  1
  Li  Li105  1  0.10016872  0.00468340  0.58336742  1
  Li  Li106  1  0.11643420  0.30295944  0.64421091  1
  Li  Li107  1  0.96684616  0.11212853  0.54651920  1
  Li  Li108  1  0.15287748  0.67083184  0.62545949  1
  Li  Li109  1  0.13862177  0.37172299  0.56189425  1
  Li  Li110  1  0.09937955  0.88016068  0.55338683  1
  Li  Li111  1  0.21657353  0.12913071  0.63940907  1
  Li  Li112  1  0.38220901  0.09226927  0.58127589  1
  Li  Li113  1  0.42173641  0.87507159  0.61669315  1
  Li  Li114  1  0.38557558  0.72625580  0.66375521  1
  Li  Li115  1  0.32842461  0.46432650  0.59421536  1
  Li  Li116  1  0.87929140  0.59015374  0.58417250  1
  Li  Li117  1  0.92162411  0.37510587  0.61661786  1
  Li  Li118  1  0.82866335  0.96439086  0.59378638  1
  Li  Li119  1  0.88625049  0.22649856  0.66342091  1
  Li  Li120  1  0.62458274  0.90144268  0.79527455  1
  Li  Li121  1  0.61783260  0.60053659  0.72860801  1
  Li  Li122  1  0.61789565  0.30270443  0.66835486  1
  Li  Li123  1  0.64469099  0.70200981  0.84499340  1
  Li  Li124  1  0.61223471  0.40180507  0.77078667  1
  Li  Li125  1  0.56578565  0.11148943  0.69691681  1
  Li  Li126  1  0.58767107  0.73826454  0.76590309  1
  Li  Li127  1  0.58699969  0.43990381  0.69908448  1
  Li  Li128  1  0.63198803  0.04347084  0.81271886  1
  Li  Li129  1  0.63970708  0.94906677  0.68417538  1
  Li  Li130  1  0.58896981  0.55814315  0.79750443  1
  Li  Li131  1  0.62159458  0.25823027  0.74037389  1
  Li  Li132  1  0.11739811  0.80288564  0.66832339  1
  Li  Li133  1  0.12469234  0.40139224  0.79512916  1
  Li  Li134  1  0.12241290  0.10012925  0.72712134  1
  Li  Li135  1  0.11219633  0.90187144  0.77077260  1
  Li  Li136  1  0.06573374  0.61148264  0.69688827  1
  Li  Li137  1  0.14233321  0.20188108  0.84445481  1
  Li  Li138  1  0.08700226  0.93987922  0.69905811  1
  Li  Li139  1  0.13326117  0.54320424  0.81238694  1
  Li  Li140  1  0.08932812  0.23790528  0.76521090  1
  Li  Li141  1  0.12133215  0.75830462  0.74041320  1
  Li  Li142  1  0.13870476  0.44978983  0.68374357  1
  Li  Li143  1  0.08937783  0.05836295  0.79700998  1
  Li  Li144  1  0.36324834  0.99343365  0.77948292  1
  Li  Li145  1  0.32961409  0.64317740  0.72219893  1
  Li  Li146  1  0.36103964  0.36664260  0.65026380  1
  Li  Li147  1  0.34291870  0.99308602  0.70273162  1
  Li  Li148  1  0.32663277  0.65290237  0.83871331  1
  Li  Li149  1  0.35407270  0.30649689  0.78447690  1
  Li  Li150  1  0.86114187  0.86648058  0.65014347  1
  Li  Li151  1  0.86313504  0.49340583  0.77947732  1
  Li  Li152  1  0.83155647  0.14304270  0.72172055  1
  Li  Li153  1  0.85404116  0.80658839  0.78462579  1
  Li  Li154  1  0.84177147  0.49373231  0.70296622  1
  Li  Li155  1  0.82723103  0.15331220  0.83838116  1
  Li  Li156  1  0.61510350  0.49355818  0.91677820  1
  Li  Li157  1  0.56648375  0.19982533  0.85968638  1
  Li  Li158  1  0.61225670  0.60679645  0.02224677  1
  Li  Li159  1  0.58420872  0.29264779  0.95724221  1
  Li  Li160  1  0.60261057  0.98602347  0.88865995  1
  Li  Li161  1  0.45177514  0.65256091  0.95930918  1
  Li  Li162  1  0.62826967  0.35108215  0.88253791  1
  Li  Li163  1  0.46171380  0.83357133  0.84518346  1
  Li  Li164  1  0.56678568  0.45728357  0.98783636  1
  Li  Li165  1  0.63692807  0.13145972  0.93144645  1
  Li  Li166  1  0.06645164  0.69980572  0.85966354  1
  Li  Li167  1  0.11423898  0.99328727  0.91664356  1
  Li  Li168  1  0.08419903  0.79268056  0.95724402  1
  Li  Li169  1  0.10233307  0.48582386  0.88849728  1
  Li  Li170  1  0.11822130  0.10712360  0.02282136  1
  Li  Li171  1  0.12819042  0.85111658  0.88254051  1
  Li  Li172  1  0.95357653  0.15262013  0.95951868  1
  Li  Li173  1  0.13662030  0.63138465  0.93122077  1
  Li  Li174  1  0.96206488  0.33391844  0.84500628  1
  Li  Li175  1  0.06731121  0.95790365  0.98788327  1
  Li  Li176  1  0.35614565  0.55328324  0.89800488  1
  Li  Li177  1  0.30385243  0.32142462  0.86592227  1
  Li  Li178  1  0.35798538  0.88215658  0.95389456  1
  Li  Li179  1  0.42291920  0.06855292  0.86487657  1
  Li  Li180  1  0.80413605  0.82172087  0.86595178  1
  Li  Li181  1  0.85802342  0.05514183  0.89764840  1
  Li  Li182  1  0.92318544  0.56851365  0.86481477  1
  Li  Li183  1  0.85821627  0.38224904  0.95377748  1
  P  P184  1  0.49724426  0.14595742  0.15683710  1
  P  P185  1  0.47615042  0.44094008  0.09518387  1
  P  P186  1  0.50625708  0.74172954  0.03250984  1
  P  P187  1  0.00685395  0.24174993  0.03262866  1
  P  P188  1  0.99766169  0.64617657  0.15704699  1
  P  P189  1  0.97578288  0.94077455  0.09519723  1
  P  P190  1  0.48596912  0.24945711  0.34071352  1
  P  P191  1  0.48634388  0.54830188  0.27886362  1
  P  P192  1  0.48116200  0.84676335  0.21967065  1
  P  P193  1  0.98124755  0.34679303  0.21963094  1
  P  P194  1  0.98582961  0.74944337  0.34064065  1
  P  P195  1  0.98678391  0.04850240  0.27866880  1
  P  P196  1  0.47075225  0.65850824  0.46365532  1
  P  P197  1  0.49180164  0.95232772  0.40163873  1
  P  P198  1  0.99164887  0.45244863  0.40178593  1
  P  P199  1  0.97049252  0.15855549  0.46362489  1
  P  P200  1  0.88477985  0.05495238  0.65618868  1
  P  P201  1  0.90490593  0.75677294  0.59416316  1
  P  P202  1  0.88200655  0.45570326  0.53461157  1
  P  P203  1  0.38252546  0.95491460  0.53443043  1
  P  P204  1  0.38381366  0.55522124  0.65658172  1
  P  P205  1  0.40577462  0.25709710  0.59382617  1
  P  P206  1  0.89732246  0.94958178  0.84059513  1
  P  P207  1  0.88739174  0.65132224  0.77768306  1
  P  P208  1  0.89830079  0.35333586  0.72107483  1
  P  P209  1  0.39787174  0.85310760  0.72130543  1
  P  P210  1  0.39783274  0.44919472  0.84068885  1
  P  P211  1  0.38811897  0.15139454  0.77762038  1
  P  P212  1  0.89215394  0.54480246  0.96075087  1
  P  P213  1  0.87376367  0.24508910  0.90210786  1
  P  P214  1  0.37367547  0.74501206  0.90212329  1
  P  P215  1  0.39268232  0.04436775  0.96118919  1
  S  S216  1  0.58505262  0.12287306  0.10776216  1
  S  S217  1  0.59646711  0.42083804  0.05230301  1
  S  S218  1  0.62026520  0.71032282  0.99058266  1
  S  S219  1  0.57248039  0.45530092  0.14408805  1
  S  S220  1  0.61802869  0.77158786  0.07622137  1
  S  S221  1  0.12151448  0.21047847  0.99084046  1
  S  S222  1  0.08568307  0.62307025  0.10808984  1
  S  S223  1  0.09625105  0.92078862  0.05234529  1
  S  S224  1  0.11842807  0.27169987  0.07637116  1
  S  S225  1  0.07183048  0.95475339  0.14420437  1
  S  S226  1  0.39031080  0.22438513  0.14487110  1
  S  S227  1  0.36518611  0.51297800  0.07872784  1
  S  S228  1  0.39874301  0.81869151  0.02136765  1
  S  S229  1  0.36265673  0.36516004  0.10699683  1
  S  S230  1  0.39558804  0.66563622  0.04550606  1
  S  S231  1  0.89922958  0.31865056  0.02141860  1
  S  S232  1  0.89024644  0.72443428  0.14498474  1
  S  S233  1  0.86513088  0.01294887  0.07880239  1
  S  S234  1  0.89639440  0.16563663  0.04561402  1
  S  S235  1  0.86223417  0.86501292  0.10695047  1
  S  S236  1  0.21308525  0.09270788  0.08268940  1
  S  S237  1  0.22262781  0.79226490  0.11869003  1
  S  S238  1  0.72268090  0.29219511  0.11871571  1
  S  S239  1  0.71232364  0.59323809  0.08185475  1
  S  S240  1  0.58005832  0.22365079  0.29428441  1
  S  S241  1  0.59695310  0.51821139  0.23678887  1
  S  S242  1  0.58693119  0.81835266  0.17489592  1
  S  S243  1  0.61751409  0.16602469  0.19879655  1
  S  S244  1  0.59075551  0.58094716  0.32326807  1
  S  S245  1  0.58032083  0.87480063  0.26461110  1
  S  S246  1  0.08698712  0.31846725  0.17480792  1
  S  S247  1  0.08015811  0.72367332  0.29426000  1
  S  S248  1  0.09723923  0.01822551  0.23657924  1
  S  S249  1  0.08045935  0.37476566  0.26458007  1
  S  S250  1  0.11713396  0.66641076  0.19916276  1
  S  S251  1  0.09184431  0.08147404  0.32286519  1
  S  S252  1  0.37478724  0.32628853  0.32811265  1
  S  S253  1  0.37147698  0.62012702  0.26104742  1
  S  S254  1  0.35617291  0.91591133  0.20450599  1
  S  S255  1  0.37032667  0.47721493  0.29627998  1
  S  S256  1  0.36978815  0.77048373  0.23352936  1
  S  S257  1  0.38410035  0.07389279  0.17588513  1
  S  S258  1  0.85617255  0.41589656  0.20448014  1
  S  S259  1  0.87481219  0.82635782  0.32807143  1
  S  S260  1  0.87163854  0.12021760  0.26084858  1
  S  S261  1  0.87011632  0.27043285  0.23350862  1
  S  S262  1  0.88416274  0.57412830  0.17594824  1
  S  S263  1  0.87090373  0.97741527  0.29614521  1
  S  S264  1  0.20594653  0.20082163  0.24776245  1
  S  S265  1  0.20087623  0.49665728  0.18659348  1
  S  S266  1  0.21096721  0.89982813  0.31478983  1
  S  S267  1  0.71079877  0.39972061  0.31482214  1
  S  S268  1  0.70539287  0.70065010  0.24799990  1
  S  S269  1  0.70088787  0.99655421  0.18644806  1
  S  S270  1  0.58620046  0.62121439  0.42288120  1
  S  S271  1  0.59667153  0.92915520  0.35539017  1
  S  S272  1  0.59176942  0.27389469  0.38567754  1
  S  S273  1  0.58661971  0.68923423  0.50503239  1
  S  S274  1  0.60348446  0.97820556  0.44581935  1
  S  S275  1  0.09653143  0.42915217  0.35557213  1
  S  S276  1  0.08594647  0.12115208  0.42283412  1
  S  S277  1  0.10327503  0.47836106  0.44595709  1
  S  S278  1  0.09167889  0.77389357  0.38561489  1
  S  S279  1  0.08591832  0.18926947  0.50504858  1
  S  S280  1  0.35434399  0.72794335  0.44830399  1
  S  S281  1  0.38374319  0.03026597  0.38996160  1
  S  S282  1  0.37384996  0.58280369  0.48500838  1
  S  S283  1  0.37690987  0.88030054  0.41333688  1
  S  S284  1  0.37346468  0.17554250  0.35718524  1
  S  S285  1  0.88373708  0.53039406  0.38998377  1
  S  S286  1  0.85411939  0.22796179  0.44816745  1
  S  S287  1  0.87644083  0.38051965  0.41346757  1
  S  S288  1  0.87333591  0.67552343  0.35709822  1
  S  S289  1  0.87352308  0.08286750  0.48502052  1
  S  S290  1  0.22517452  0.30261459  0.43587616  1
  S  S291  1  0.22356349  0.60693881  0.37250652  1
  S  S292  1  0.72512436  0.80266363  0.43584535  1
  S  S293  1  0.72374768  0.10700691  0.37244556  1
  S  S294  1  0.78727537  0.07857177  0.60877601  1
  S  S295  1  0.78741899  0.78590727  0.55204175  1
  S  S296  1  0.76408878  0.49368134  0.49477155  1
  S  S297  1  0.80352108  0.73930789  0.64175940  1
  S  S298  1  0.77480653  0.43504828  0.58120452  1
  S  S299  1  0.26470682  0.99241852  0.49444931  1
  S  S300  1  0.28626299  0.57889599  0.60920979  1
  S  S301  1  0.28816258  0.28607126  0.55176101  1
  S  S302  1  0.27536689  0.93464590  0.58106747  1
  S  S303  1  0.30266256  0.23820847  0.64090189  1
  S  S304  1  0.98816339  0.97674934  0.64306032  1
  S  S305  1  0.00727901  0.68343113  0.57583310  1
  S  S306  1  0.96423587  0.37426213  0.51980146  1
  S  S307  1  0.02603379  0.82841462  0.60859554  1
  S  S308  1  0.01338611  0.52309316  0.54735606  1
  S  S309  1  0.46467409  0.87332912  0.51980237  1
  S  S310  1  0.48737696  0.47715859  0.64335686  1
  S  S311  1  0.51077271  0.18472196  0.57528433  1
  S  S312  1  0.51499415  0.02207927  0.54691548  1
  S  S313  1  0.52531836  0.32898728  0.60882800  1
  S  S314  1  0.16418825  0.10631610  0.57931905  1
  S  S315  1  0.15480076  0.40717332  0.62493185  1
  S  S316  1  0.65459105  0.90719272  0.62510584  1
  S  S317  1  0.66205667  0.60722252  0.58026700  1
  S  S318  1  0.80088636  0.97462214  0.79415405  1
  S  S319  1  0.77655956  0.68333857  0.73608811  1
  S  S320  1  0.79379251  0.38265269  0.67579366  1
  S  S321  1  0.76812536  0.03719684  0.69989616  1
  S  S322  1  0.78219778  0.61803434  0.82160725  1
  S  S323  1  0.79346095  0.32659887  0.76514906  1
  S  S324  1  0.29380211  0.88246167  0.67594507  1
  S  S325  1  0.30197087  0.47415605  0.79413161  1
  S  S326  1  0.27820791  0.18345730  0.73580144  1
  S  S327  1  0.29287302  0.82657561  0.76539334  1
  S  S328  1  0.26714091  0.53720538  0.70022889  1
  S  S329  1  0.28230365  0.11829205  0.82146903  1
  S  S330  1  0.99745416  0.86940988  0.82730600  1
  S  S331  1  0.00217087  0.57964774  0.75975350  1
  S  S332  1  0.02143053  0.28395887  0.70594923  1
  S  S333  1  0.00334465  0.72210022  0.79542344  1
  S  S334  1  0.00626677  0.43002283  0.73621539  1
  S  S335  1  0.00329645  0.12685568  0.67263485  1
  S  S336  1  0.52068009  0.78351526  0.70642033  1
  S  S337  1  0.49768166  0.36904606  0.82737469  1
  S  S338  1  0.50268028  0.07958785  0.75980667  1
  S  S339  1  0.50626696  0.92966795  0.73640174  1
  S  S340  1  0.50174600  0.62703336  0.67347087  1
  S  S341  1  0.50387861  0.22218705  0.79540142  1
  S  S342  1  0.17072751  0.00018006  0.74653861  1
  S  S343  1  0.18132342  0.70390469  0.68667035  1
  S  S344  1  0.15595149  0.29910188  0.81604113  1
  S  S345  1  0.65605061  0.79924999  0.81638649  1
  S  S346  1  0.66993660  0.50023105  0.74673903  1
  S  S347  1  0.68211652  0.20374824  0.68651117  1
  S  S348  1  0.78477006  0.57593374  0.91680191  1
  S  S349  1  0.76378381  0.26546315  0.85611440  1
  S  S350  1  0.79555017  0.92944226  0.88684584  1
  S  S351  1  0.76869851  0.52178203  0.00213570  1
  S  S352  1  0.76732823  0.21855209  0.94693173  1
  S  S353  1  0.26372574  0.76533891  0.85610592  1
  S  S354  1  0.28525208  0.07541463  0.91719479  1
  S  S355  1  0.26663876  0.71845892  0.94685141  1
  S  S356  1  0.29529921  0.42914538  0.88685241  1
  S  S357  1  0.26970491  0.02127613  0.00272917  1
  S  S358  1  0.00935752  0.47344100  0.94931101  1
  S  S359  1  0.98086495  0.16708028  0.88871358  1
  S  S360  1  0.98813159  0.62219463  0.98060819  1
  S  S361  1  0.98736043  0.31823452  0.91191114  1
  S  S362  1  0.02186663  0.01897268  0.85495123  1
  S  S363  1  0.48078540  0.66701747  0.88878661  1
  S  S364  1  0.50979367  0.97307628  0.94953275  1
  S  S365  1  0.48707829  0.81817025  0.91200273  1
  S  S366  1  0.52199836  0.51859005  0.85529207  1
  S  S367  1  0.48865050  0.12168158  0.98116630  1
  S  S368  1  0.14075104  0.89245272  0.94090623  1
  S  S369  1  0.14846898  0.59448781  0.87011628  1
  S  S370  1  0.64088622  0.39243097  0.94084140  1
  S  S371  1  0.64845695  0.09478717  0.87026516  1
  Cl  Cl372  1  0.93618173  0.15191854  0.15303220  1
  Cl  Cl373  1  0.92759622  0.44250142  0.10500253  1
  Cl  Cl374  1  0.00108926  0.76159638  0.03063165  1
  Cl  Cl375  1  0.50178468  0.26188318  0.03057301  1
  Cl  Cl376  1  0.43539319  0.65193110  0.15311488  1
  Cl  Cl377  1  0.42874638  0.94214421  0.10507239  1
  Cl  Cl378  1  0.91316574  0.24822045  0.33389250  1
  Cl  Cl379  1  0.91836430  0.55620415  0.27894713  1
  Cl  Cl380  1  0.90206454  0.85309787  0.21953469  1
  Cl  Cl381  1  0.40238202  0.35314169  0.21944965  1
  Cl  Cl382  1  0.41309614  0.74823507  0.33394009  1
  Cl  Cl383  1  0.41889190  0.05642271  0.27889811  1
  Cl  Cl384  1  0.91821246  0.65786886  0.46214565  1
  Cl  Cl385  1  0.94005642  0.95884006  0.40512153  1
  Cl  Cl386  1  0.44023130  0.45874749  0.40534008  1
  Cl  Cl387  1  0.41747255  0.15717334  0.46227411  1
  Cl  Cl388  1  0.42530709  0.06002146  0.65362624  1
  Cl  Cl389  1  0.45130322  0.76560638  0.60659153  1
  Cl  Cl390  1  0.44738883  0.45596169  0.54185324  1
  Cl  Cl391  1  0.94795389  0.95554438  0.54159846  1
  Cl  Cl392  1  0.92556207  0.55962845  0.65372337  1
  Cl  Cl393  1  0.95208468  0.26547140  0.60603559  1
  Cl  Cl394  1  0.46440802  0.95790573  0.83625967  1
  Cl  Cl395  1  0.45028342  0.64630719  0.77893910  1
  Cl  Cl396  1  0.47524303  0.34816172  0.71718354  1
  Cl  Cl397  1  0.97500634  0.84841298  0.71722474  1
  Cl  Cl398  1  0.96479092  0.45758560  0.83611589  1
  Cl  Cl399  1  0.95081810  0.14683402  0.77874651  1
  Cl  Cl400  1  0.44719062  0.54332106  0.95918337  1
  Cl  Cl401  1  0.42753641  0.24957674  0.90551088  1
  Cl  Cl402  1  0.92730017  0.74975827  0.90536883  1
  Cl  Cl403  1  0.94760927  0.04342917  0.95880130  1
