# generated using pymatgen
data_Li44P6S33Cl8
_symmetry_space_group_name_H-M   'P 1'
_cell_length_a   10.60410300
_cell_length_b   21.51103300
_cell_length_c   32.29968954
_cell_angle_alpha   90.00000000
_cell_angle_beta   90.00000000
_cell_angle_gamma   90.00000000
_symmetry_Int_Tables_number   1
_chemical_formula_structural   Li44P6S33Cl8
_chemical_formula_sum   'Li176 P24 S132 Cl32'
_cell_volume   7367.72745173
_cell_formula_units_Z   4
loop_
 _symmetry_equiv_pos_site_id
 _symmetry_equiv_pos_as_xyz
  1  'x, y, z'
loop_
 _atom_site_type_symbol
 _atom_site_label
 _atom_site_symmetry_multiplicity
 _atom_site_fract_x
 _atom_site_fract_y
 _atom_site_fract_z
 _atom_site_occupancy
  Li  Li0  1  0.82794145  0.13340865  0.10382111  1
  Li  Li1  1  0.78467249  0.44651073  0.00997060  1
  Li  Li2  1  0.82507120  0.84855832  0.17136584  1
  Li  Li3  1  0.79951061  0.34743696  0.12019260  1
  Li  Li4  1  0.93720365  0.61950801  0.06277508  1
  Li  Li5  1  0.01744450  0.28032459  0.09239773  1
  Li  Li6  1  0.92864285  0.54276339  0.97990608  1
  Li  Li7  1  0.77037508  0.98500054  0.11798661  1
  Li  Li8  1  0.84897175  0.48435805  0.09709588  1
  Li  Li9  1  0.78345562  0.71031258  0.00517630  1
  Li  Li10  1  0.32504957  0.34854878  0.17137153  1
  Li  Li11  1  0.32786425  0.63341270  0.10384066  1
  Li  Li12  1  0.28470933  0.94641753  0.00984772  1
  Li  Li13  1  0.43693897  0.11960217  0.06268755  1
  Li  Li14  1  0.29942737  0.84736554  0.12014612  1
  Li  Li15  1  0.42909579  0.04276030  0.98014867  1
  Li  Li16  1  0.27067254  0.48508446  0.11819391  1
  Li  Li17  1  0.51713328  0.78021964  0.09240473  1
  Li  Li18  1  0.28746990  0.21363618  0.00409940  1
  Li  Li19  1  0.34956632  0.98390706  0.09696921  1
  Li  Li20  1  0.10379587  0.04051251  0.08683769  1
  Li  Li21  1  0.28806278  0.35290656  0.05562926  1
  Li  Li22  1  0.07045604  0.73729613  0.09567743  1
  Li  Li23  1  0.05874034  0.42034640  0.16113730  1
  Li  Li24  1  0.21266358  0.76056301  0.02582742  1
  Li  Li25  1  0.57062922  0.23742652  0.09565545  1
  Li  Li26  1  0.60308197  0.54060562  0.08675350  1
  Li  Li27  1  0.78757549  0.85252956  0.05569744  1
  Li  Li28  1  0.71362790  0.26105874  0.02595238  1
  Li  Li29  1  0.55798922  0.92029941  0.16112093  1
  Li  Li30  1  0.84321557  0.26225126  0.29956785  1
  Li  Li31  1  0.77988801  0.55499660  0.21840483  1
  Li  Li32  1  0.83637532  0.95278397  0.38140029  1
  Li  Li33  1  0.81040068  0.45601584  0.34439598  1
  Li  Li34  1  0.79607118  0.75506601  0.27309862  1
  Li  Li35  1  0.97296546  0.99994648  0.18542541  1
  Li  Li36  1  0.82684691  0.41190850  0.26340261  1
  Li  Li37  1  0.94273817  0.69331984  0.20901844  1
  Li  Li38  1  0.78121293  0.10668081  0.32573324  1
  Li  Li39  1  0.78916596  0.21392114  0.17218615  1
  Li  Li40  1  0.83860798  0.59441935  0.30338640  1
  Li  Li41  1  0.80005497  0.89816220  0.24960500  1
  Li  Li42  1  0.33636723  0.45274804  0.38137342  1
  Li  Li43  1  0.34554199  0.76308266  0.29918947  1
  Li  Li44  1  0.27978244  0.05496629  0.21840121  1
  Li  Li45  1  0.29598252  0.25502347  0.27298708  1
  Li  Li46  1  0.47315952  0.49998545  0.18542696  1
  Li  Li47  1  0.30960904  0.95627234  0.34434811  1
  Li  Li48  1  0.44306793  0.19256144  0.20875502  1
  Li  Li49  1  0.28613402  0.60907215  0.32627084  1
  Li  Li50  1  0.32495632  0.91117248  0.26302334  1
  Li  Li51  1  0.30009847  0.39813046  0.24958906  1
  Li  Li52  1  0.28914885  0.71385195  0.17216936  1
  Li  Li53  1  0.33855218  0.09449881  0.30336073  1
  Li  Li54  1  0.06645245  0.15661193  0.27697132  1
  Li  Li55  1  0.12296418  0.52087533  0.22202176  1
  Li  Li56  1  0.05827766  0.87368001  0.36022163  1
  Li  Li57  1  0.12089814  0.17231740  0.18839204  1
  Li  Li58  1  0.09057875  0.49323734  0.35111101  1
  Li  Li59  1  0.07375236  0.81294933  0.28715472  1
  Li  Li60  1  0.55839086  0.37350683  0.36027950  1
  Li  Li61  1  0.56653531  0.65660878  0.27698519  1
  Li  Li62  1  0.62087160  0.02066465  0.22140121  1
  Li  Li63  1  0.57165076  0.31474302  0.28693749  1
  Li  Li64  1  0.62122805  0.67224699  0.18857512  1
  Li  Li65  1  0.58927612  0.99268083  0.35130539  1
  Li  Li66  1  0.78946556  0.65004581  0.43670778  1
  Li  Li67  1  0.58180665  0.81275836  0.49362213  1
  Li  Li68  1  0.79373603  0.16665754  0.40702557  1
  Li  Li69  1  0.98258236  0.50567146  0.50375817  1
  Li  Li70  1  0.93787754  0.79773696  0.45181125  1
  Li  Li71  1  0.80224404  0.30127981  0.38079415  1
  Li  Li72  1  0.55474884  0.68515498  0.49179584  1
  Li  Li73  1  0.90830246  0.02517474  0.45085377  1
  Li  Li74  1  0.28910614  0.15005243  0.43661453  1
  Li  Li75  1  0.08188231  0.31276170  0.49355570  1
  Li  Li76  1  0.29421915  0.66661459  0.40734575  1
  Li  Li77  1  0.43819318  0.29739094  0.45168092  1
  Li  Li78  1  0.48210099  0.00585221  0.50388380  1
  Li  Li79  1  0.40855754  0.52531310  0.45034907  1
  Li  Li80  1  0.30114451  0.80153006  0.38091597  1
  Li  Li81  1  0.05472022  0.18518195  0.49177514  1
  Li  Li82  1  0.06143295  0.57917997  0.41666452  1
  Li  Li83  1  0.12006715  0.27892522  0.40446918  1
  Li  Li84  1  0.01558106  0.09367461  0.38722540  1
  Li  Li85  1  0.56111669  0.07907507  0.41667571  1
  Li  Li86  1  0.51725248  0.59341489  0.38702173  1
  Li  Li87  1  0.62010834  0.77891183  0.40449557  1
  Li  Li88  1  0.71617312  0.88807862  0.59255635  1
  Li  Li89  1  0.76224873  0.57234105  0.50620670  1
  Li  Li90  1  0.71395982  0.17243680  0.66747252  1
  Li  Li91  1  0.76783908  0.68019982  0.63198951  1
  Li  Li92  1  0.60301955  0.40140996  0.55676284  1
  Li  Li93  1  0.52522183  0.73572318  0.59299069  1
  Li  Li94  1  0.68240527  0.47868222  0.45880158  1
  Li  Li95  1  0.80489222  0.05226368  0.60859365  1
  Li  Li96  1  0.68378597  0.54554387  0.59202475  1
  Li  Li97  1  0.84818645  0.36024524  0.51254232  1
  Li  Li98  1  0.21399626  0.67242043  0.66745355  1
  Li  Li99  1  0.21620654  0.38815805  0.59254176  1
  Li  Li100  1  0.26183644  0.07239946  0.50620435  1
  Li  Li101  1  0.10299654  0.90145797  0.55684637  1
  Li  Li102  1  0.26848604  0.18082653  0.63205932  1
  Li  Li103  1  0.18237772  0.97870001  0.45881745  1
  Li  Li104  1  0.30475706  0.55234872  0.60854670  1
  Li  Li105  1  0.02555772  0.23566982  0.59294170  1
  Li  Li106  1  0.34721169  0.86000721  0.51239163  1
  Li  Li107  1  0.18425996  0.04582679  0.59213953  1
  Li  Li108  1  0.43192717  0.97515780  0.59363767  1
  Li  Li109  1  0.20930076  0.73202227  0.54282988  1
  Li  Li110  1  0.46948013  0.28529888  0.59921947  1
  Li  Li111  1  0.48945274  0.59692315  0.66115736  1
  Li  Li112  1  0.32007447  0.24498266  0.53261202  1
  Li  Li113  1  0.96966079  0.78508870  0.59917250  1
  Li  Li114  1  0.93130974  0.47476983  0.59365197  1
  Li  Li115  1  0.70938428  0.23206593  0.54283446  1
  Li  Li116  1  0.82019497  0.74490024  0.53260763  1
  Li  Li117  1  0.98946795  0.09695430  0.66115568  1
  Li  Li118  1  0.77940656  0.76252751  0.77901457  1
  Li  Li119  1  0.73759328  0.47087991  0.72683454  1
  Li  Li120  1  0.74604956  0.07137657  0.86772780  1
  Li  Li121  1  0.74956792  0.56983209  0.84062692  1
  Li  Li122  1  0.73982682  0.26642666  0.77494139  1
  Li  Li123  1  0.58665072  0.01517374  0.68402016  1
  Li  Li124  1  0.62073270  0.62835598  0.77382570  1
  Li  Li125  1  0.60330429  0.32863329  0.70942449  1
  Li  Li126  1  0.74349717  0.90001886  0.83667241  1
  Li  Li127  1  0.72041662  0.83099117  0.66614761  1
  Li  Li128  1  0.72259453  0.42503534  0.80709926  1
  Li  Li129  1  0.74842418  0.12337474  0.74541389  1
  Li  Li130  1  0.24586279  0.57156494  0.86780061  1
  Li  Li131  1  0.27942121  0.26253795  0.77901371  1
  Li  Li132  1  0.23759770  0.97090354  0.72683053  1
  Li  Li133  1  0.23982851  0.76641511  0.77449742  1
  Li  Li134  1  0.08664359  0.51518711  0.68402818  1
  Li  Li135  1  0.24954188  0.06982799  0.84061135  1
  Li  Li136  1  0.10327020  0.82867531  0.70940475  1
  Li  Li137  1  0.24345492  0.40004027  0.83668714  1
  Li  Li138  1  0.12074281  0.12839255  0.77385911  1
  Li  Li139  1  0.24836849  0.62337676  0.74537853  1
  Li  Li140  1  0.21866007  0.33181815  0.66634420  1
  Li  Li141  1  0.22267876  0.92502151  0.80709412  1
  Li  Li142  1  0.48684681  0.86078683  0.78119634  1
  Li  Li143  1  0.41245631  0.49771580  0.71997448  1
  Li  Li144  1  0.48708610  0.16075876  0.85192901  1
  Li  Li145  1  0.41742630  0.85131294  0.68983977  1
  Li  Li146  1  0.48819792  0.48571108  0.85763387  1
  Li  Li147  1  0.45002134  0.14609097  0.76350933  1
  Li  Li148  1  0.98710580  0.66084846  0.85189100  1
  Li  Li149  1  0.98646579  0.36113972  0.78147695  1
  Li  Li150  1  0.91243821  0.99771905  0.71995923  1
  Li  Li151  1  0.95004105  0.64610295  0.76350085  1
  Li  Li152  1  0.91726027  0.35119278  0.68990446  1
  Li  Li153  1  0.98826253  0.98564828  0.85766713  1
  Li  Li154  1  0.77203417  0.37900381  0.93607567  1
  Li  Li155  1  0.99651548  0.21983691  0.99294545  1
  Li  Li156  1  0.63086650  0.88898283  0.92041086  1
  Li  Li157  1  0.61331352  0.53476922  0.98521355  1
  Li  Li158  1  0.71309270  0.20999586  0.91953268  1
  Li  Li159  1  0.73240528  0.73850976  0.86904277  1
  Li  Li160  1  0.98554370  0.34599554  0.99911184  1
  Li  Li161  1  0.76694446  0.03974704  0.95024092  1
  Li  Li162  1  0.27194933  0.87896874  0.93604639  1
  Li  Li163  1  0.49587320  0.71968661  0.99296812  1
  Li  Li164  1  0.13188634  0.38855930  0.92068825  1
  Li  Li165  1  0.21282721  0.70999761  0.91942862  1
  Li  Li166  1  0.11333807  0.03477417  0.98527356  1
  Li  Li167  1  0.26676623  0.53973853  0.95026796  1
  Li  Li168  1  0.23240867  0.23855842  0.86902123  1
  Li  Li169  1  0.48491048  0.84574398  0.99913633  1
  Li  Li170  1  0.44861609  0.40284584  0.92333185  1
  Li  Li171  1  0.45985220  0.75972178  0.90605776  1
  Li  Li172  1  0.53898590  0.99723298  0.90014781  1
  Li  Li173  1  0.94832485  0.90231963  0.92336870  1
  Li  Li174  1  0.03930911  0.49701753  0.90012060  1
  Li  Li175  1  0.96004882  0.25984338  0.90602453  1
  P  P176  1  0.53533588  0.09900986  0.14794231  1
  P  P177  1  0.54519527  0.40329771  0.09008651  1
  P  P178  1  0.03532180  0.59907359  0.14814466  1
  P  P179  1  0.04529265  0.90316856  0.09000645  1
  P  P180  1  0.52496632  0.21214888  0.35569038  1
  P  P181  1  0.53021064  0.50605287  0.28992395  1
  P  P182  1  0.52281092  0.80114205  0.21611336  1
  P  P183  1  0.02264364  0.30135098  0.21608034  1
  P  P184  1  0.02517825  0.71209634  0.35578395  1
  P  P185  1  0.02969814  0.00610525  0.28999704  1
  P  P186  1  0.53178772  0.91135071  0.42511128  1
  P  P187  1  0.03184388  0.41146554  0.42497674  1
  P  P188  1  0.01304586  0.92181928  0.64461227  1
  P  P189  1  0.98954061  0.60921018  0.59219968  1
  P  P190  1  0.51310749  0.42184243  0.64465844  1
  P  P191  1  0.48954466  0.10947018  0.59217516  1
  P  P192  1  0.02050558  0.81621134  0.85446008  1
  P  P193  1  0.02566089  0.51251290  0.78975857  1
  P  P194  1  0.02050220  0.22167269  0.71370222  1
  P  P195  1  0.52062012  0.72166580  0.71364786  1
  P  P196  1  0.52035790  0.31632873  0.85471786  1
  P  P197  1  0.52562802  0.01248450  0.78976537  1
  P  P198  1  0.02641215  0.12545952  0.92097295  1
  P  P199  1  0.52658656  0.62540727  0.92101819  1
  S  S200  1  0.63540882  0.07146920  0.09604273  1
  S  S201  1  0.68520596  0.36859716  0.05412061  1
  S  S202  1  0.63560723  0.78057855  0.16587992  1
  S  S203  1  0.64043500  0.44926290  0.13643941  1
  S  S204  1  0.13536942  0.28070838  0.16579786  1
  S  S205  1  0.13545947  0.57153324  0.09622513  1
  S  S206  1  0.18509783  0.86832920  0.05399475  1
  S  S207  1  0.14058227  0.94908461  0.13639431  1
  S  S208  1  0.41320220  0.16802238  0.13157868  1
  S  S209  1  0.41969930  0.46418126  0.06202384  1
  S  S210  1  0.43950971  0.32834602  0.10935143  1
  S  S211  1  0.43481483  0.02215821  0.16819922  1
  S  S212  1  0.91308153  0.66800350  0.13170360  1
  S  S213  1  0.91988640  0.96413822  0.06198627  1
  S  S214  1  0.93515683  0.52213735  0.16835907  1
  S  S215  1  0.93952752  0.82828808  0.10936147  1
  S  S216  1  0.28093725  0.05049823  0.03686394  1
  S  S217  1  0.14233546  0.28252363  0.03056788  1
  S  S218  1  0.29976561  0.73829590  0.10114255  1
  S  S219  1  0.80003610  0.23832852  0.10115008  1
  S  S220  1  0.78060174  0.55096302  0.03674234  1
  S  S221  1  0.64156998  0.78197374  0.03070713  1
  S  S222  1  0.64261413  0.19279995  0.30654436  1
  S  S223  1  0.63291497  0.47426466  0.24018228  1
  S  S224  1  0.64638662  0.88766249  0.37622939  1
  S  S225  1  0.64451370  0.12949751  0.19636157  1
  S  S226  1  0.64702451  0.53858650  0.33651174  1
  S  S227  1  0.61652650  0.82926654  0.26812991  1
  S  S228  1  0.14591145  0.38781296  0.37593660  1
  S  S229  1  0.14278114  0.69304637  0.30653891  1
  S  S230  1  0.13250277  0.97434271  0.24022605  1
  S  S231  1  0.11685531  0.32944317  0.26799477  1
  S  S232  1  0.14440893  0.62979064  0.19653923  1
  S  S233  1  0.14630686  0.03882311  0.33657685  1
  S  S234  1  0.40866708  0.28481102  0.34074342  1
  S  S235  1  0.41222942  0.57455662  0.26906993  1
  S  S236  1  0.38855062  0.86459585  0.19824855  1
  S  S237  1  0.42203302  0.43277217  0.31144695  1
  S  S238  1  0.42737478  0.71992119  0.23232697  1
  S  S239  1  0.41899619  0.13482692  0.36877678  1
  S  S240  1  0.88875917  0.36497892  0.19828647  1
  S  S241  1  0.90902558  0.78484334  0.34089470  1
  S  S242  1  0.91190037  0.07459333  0.26904685  1
  S  S243  1  0.92730792  0.22013241  0.23235847  1
  S  S244  1  0.91925834  0.63475535  0.36874961  1
  S  S245  1  0.92146123  0.93291439  0.31158357  1
  S  S246  1  0.26555843  0.15326799  0.24622669  1
  S  S247  1  0.26516137  0.45187988  0.18676341  1
  S  S248  1  0.25186266  0.85722055  0.32230884  1
  S  S249  1  0.75161492  0.35711815  0.32225668  1
  S  S250  1  0.76570033  0.65332979  0.24633772  1
  S  S251  1  0.76458189  0.95174597  0.18667244  1
  S  S252  1  0.62192530  0.23973719  0.40884465  1
  S  S253  1  0.63199600  0.93096404  0.47766798  1
  S  S254  1  0.13252552  0.43097531  0.47746848  1
  S  S255  1  0.12212521  0.73947307  0.40901190  1
  S  S256  1  0.42027261  0.98561258  0.40745310  1
  S  S257  1  0.41894765  0.83674094  0.43918860  1
  S  S258  1  0.92042955  0.48579864  0.40741900  1
  S  S259  1  0.91884569  0.33699539  0.43923173  1
  S  S260  1  0.23655818  0.24907584  0.46399142  1
  S  S261  1  0.27708706  0.55972028  0.39198620  1
  S  S262  1  0.09575589  0.08484732  0.45631631  1
  S  S263  1  0.59605540  0.58492247  0.45626994  1
  S  S264  1  0.73655522  0.74909022  0.46400571  1
  S  S265  1  0.77660154  0.05960771  0.39217784  1
  S  S266  1  0.91289861  0.94795008  0.59241241  1
  S  S267  1  0.82554728  0.63736273  0.56280629  1
  S  S268  1  0.90594804  0.24326762  0.66459245  1
  S  S269  1  0.91334683  0.56932582  0.64367665  1
  S  S270  1  0.40602061  0.74329670  0.66455488  1
  S  S271  1  0.41303275  0.44797384  0.59243686  1
  S  S272  1  0.32541151  0.13751758  0.56283420  1
  S  S273  1  0.41346303  0.06948794  0.64366275  1
  S  S274  1  0.13620848  0.85256756  0.62859109  1
  S  S275  1  0.10409517  0.54441704  0.56402251  1
  S  S276  1  0.09552529  0.68775184  0.60427661  1
  S  S277  1  0.11527412  0.99790614  0.66450265  1
  S  S278  1  0.63631609  0.35260895  0.62863263  1
  S  S279  1  0.60421124  0.04475700  0.56396405  1
  S  S280  1  0.61531991  0.49794520  0.66452463  1
  S  S281  1  0.59537086  0.18801115  0.60432915  1
  S  S282  1  0.27744117  0.96502801  0.53290905  1
  S  S283  1  0.41796979  0.75906530  0.53075566  1
  S  S284  1  0.24413160  0.28186173  0.60147980  1
  S  S285  1  0.74425606  0.78161660  0.60136559  1
  S  S286  1  0.77744779  0.46503303  0.53290683  1
  S  S287  1  0.91817008  0.25923285  0.53080697  1
  S  S288  1  0.92008167  0.84276425  0.80297172  1
  S  S289  1  0.92324676  0.53917008  0.73895167  1
  S  S290  1  0.89913059  0.15456546  0.87705917  1
  S  S291  1  0.90488397  0.89115532  0.69330335  1
  S  S292  1  0.90981456  0.48564471  0.83805070  1
  S  S293  1  0.92594707  0.19249347  0.76592954  1
  S  S294  1  0.39948204  0.65454886  0.87706297  1
  S  S295  1  0.42010623  0.34275936  0.80317466  1
  S  S296  1  0.42326432  0.03917413  0.73895196  1
  S  S297  1  0.42597252  0.69258999  0.76587260  1
  S  S298  1  0.40488616  0.39116380  0.69332827  1
  S  S299  1  0.40979014  0.98565240  0.83806635  1
  S  S300  1  0.14361972  0.74361912  0.84404076  1
  S  S301  1  0.14894946  0.44458062  0.77356566  1
  S  S302  1  0.15144438  0.15466442  0.69878264  1
  S  S303  1  0.12403314  0.59260953  0.80697178  1
  S  S304  1  0.11765636  0.30181138  0.73042177  1
  S  S305  1  0.12688277  0.89336725  0.87070321  1
  S  S306  1  0.65145028  0.65455927  0.69878259  1
  S  S307  1  0.64327572  0.24361720  0.84440306  1
  S  S308  1  0.64890207  0.94456129  0.77356854  1
  S  S309  1  0.61804726  0.80177233  0.73027297  1
  S  S310  1  0.62696387  0.39346232  0.87080685  1
  S  S311  1  0.62403362  0.09256939  0.80700577  1
  S  S312  1  0.28178254  0.86803615  0.74824067  1
  S  S313  1  0.28286475  0.56959766  0.68318783  1
  S  S314  1  0.29255039  0.16914697  0.81489159  1
  S  S315  1  0.79246377  0.66910916  0.81485697  1
  S  S316  1  0.78172059  0.36798338  0.74832822  1
  S  S317  1  0.78288330  0.06960502  0.68318992  1
  S  S318  1  0.90992596  0.79272965  0.90400554  1
  S  S319  1  0.93636945  0.10439242  0.97641750  1
  S  S320  1  0.43627626  0.60430535  0.97643769  1
  S  S321  1  0.40941647  0.29311545  0.90426454  1
  S  S322  1  0.12969901  0.05029712  0.90290627  1
  S  S323  1  0.14493628  0.19876315  0.93403136  1
  S  S324  1  0.62977985  0.55020548  0.90294706  1
  S  S325  1  0.64518768  0.69859432  0.93421008  1
  S  S326  1  0.32629134  0.77864596  0.96337741  1
  S  S327  1  0.27912868  0.46870023  0.89417084  1
  S  S328  1  0.46463415  0.93968203  0.95832635  1
  S  S329  1  0.96485268  0.43975132  0.95832839  1
  S  S330  1  0.82700144  0.27888359  0.96343644  1
  S  S331  1  0.77912414  0.96863408  0.89416660  1
  Cl  Cl332  1  0.00552699  0.09969483  0.14236227  1
  Cl  Cl333  1  0.99423429  0.40041263  0.09235113  1
  Cl  Cl334  1  0.00365070  0.70391062  0.02294337  1
  Cl  Cl335  1  0.50518381  0.20410611  0.02291501  1
  Cl  Cl336  1  0.50547736  0.59976471  0.14237718  1
  Cl  Cl337  1  0.49447285  0.90015420  0.09236810  1
  Cl  Cl338  1  0.96257980  0.20687471  0.36322033  1
  Cl  Cl339  1  0.97313384  0.50203795  0.28785380  1
  Cl  Cl340  1  0.95041015  0.80304689  0.22678927  1
  Cl  Cl341  1  0.45021521  0.30265054  0.22652545  1
  Cl  Cl342  1  0.46226788  0.70615293  0.36269789  1
  Cl  Cl343  1  0.47296874  0.00206683  0.28788836  1
  Cl  Cl344  1  0.96304992  0.60703836  0.47576316  1
  Cl  Cl345  1  0.00067332  0.91723904  0.42904790  1
  Cl  Cl346  1  0.50062897  0.41739124  0.42896965  1
  Cl  Cl347  1  0.46263386  0.10704612  0.47571375  1
  Cl  Cl348  1  0.55251686  0.91393218  0.64317325  1
  Cl  Cl349  1  0.50277916  0.61404998  0.58991552  1
  Cl  Cl350  1  0.53690304  0.30359298  0.52291340  1
  Cl  Cl351  1  0.03698100  0.80362341  0.52293119  1
  Cl  Cl352  1  0.05244719  0.41395995  0.64335186  1
  Cl  Cl353  1  0.00263111  0.11400446  0.58988452  1
  Cl  Cl354  1  0.57805093  0.82543591  0.85898999  1
  Cl  Cl355  1  0.57879908  0.51684901  0.78589427  1
  Cl  Cl356  1  0.59102967  0.21565182  0.72566246  1
  Cl  Cl357  1  0.09094967  0.71565126  0.72543491  1
  Cl  Cl358  1  0.07807046  0.32557817  0.85896652  1
  Cl  Cl359  1  0.07920754  0.01692726  0.78595352  1
  Cl  Cl360  1  0.59515045  0.43086741  0.97080468  1
  Cl  Cl361  1  0.58128673  0.10255411  0.92519718  1
  Cl  Cl362  1  0.08115244  0.60270339  0.92495367  1
  Cl  Cl363  1  0.09508660  0.93089473  0.97069082  1
