# generated using pymatgen
data_Li22P4S19Cl4
_symmetry_space_group_name_H-M   'P 1'
_cell_length_a   10.60410300
_cell_length_b   21.51103300
_cell_length_c   35.39188611
_cell_angle_alpha   90.00000000
_cell_angle_beta   90.00000000
_cell_angle_gamma   90.00000000
_symmetry_Int_Tables_number   1
_chemical_formula_structural   Li22P4S19Cl4
_chemical_formula_sum   'Li176 P32 S152 Cl32'
_cell_volume   8073.07359903
_cell_formula_units_Z   8
loop_
 _symmetry_equiv_pos_site_id
 _symmetry_equiv_pos_as_xyz
  1  'x, y, z'
loop_
 _atom_site_type_symbol
 _atom_site_label
 _atom_site_symmetry_multiplicity
 _atom_site_fract_x
 _atom_site_fract_y
 _atom_site_fract_z
 _atom_site_occupancy
  Li  Li0  1  0.76545597  0.16601500  0.07031377  1
  Li  Li1  1  0.84823117  0.45694799  0.06294598  1
  Li  Li2  1  0.77737218  0.85820980  0.15192962  1
  Li  Li3  1  0.83796673  0.36129048  0.13974751  1
  Li  Li4  1  0.79274020  0.65564760  0.08257895  1
  Li  Li5  1  0.76573314  0.29447558  0.05857768  1
  Li  Li6  1  0.81173221  0.61343546  0.01019334  1
  Li  Li7  1  0.79816513  0.01819295  0.13712183  1
  Li  Li8  1  0.73882497  0.52826952  0.12521237  1
  Li  Li9  1  0.98302589  0.81985190  0.03307717  1
  Li  Li10  1  0.32071018  0.34729404  0.17447634  1
  Li  Li11  1  0.33241615  0.63638745  0.10848756  1
  Li  Li12  1  0.54305074  0.85516984  0.03019785  1
  Li  Li13  1  0.32026334  0.17379651  0.07782442  1
  Li  Li14  1  0.29822240  0.84634770  0.14839938  1
  Li  Li15  1  0.16813074  0.30229586  0.99309735  1
  Li  Li16  1  0.46533800  0.48700704  0.16834165  1
  Li  Li17  1  0.29315873  0.80836729  0.06829762  1
  Li  Li18  1  0.48528294  0.32142551  0.02394261  1
  Li  Li19  1  0.31647167  0.95689699  0.10010344  1
  Li  Li20  1  0.01588564  0.08068263  0.09167213  1
  Li  Li21  1  0.00714772  0.28312713  0.10999850  1
  Li  Li22  1  0.05462340  0.77084270  0.15595411  1
  Li  Li23  1  0.21486956  0.46944771  0.11881304  1
  Li  Li24  1  0.07785303  0.68931428  0.08956010  1
  Li  Li25  1  0.61068550  0.30859072  0.16291126  1
  Li  Li26  1  0.55397569  0.53181532  0.04250793  1
  Li  Li27  1  0.49097771  0.76577553  0.11988551  1
  Li  Li28  1  0.57279523  0.23974518  0.09969180  1
  Li  Li29  1  0.55368253  0.94644801  0.17468972  1
  Li  Li30  1  0.80653747  0.25324750  0.29021935  1
  Li  Li31  1  0.80270936  0.55186610  0.23595954  1
  Li  Li32  1  0.79265087  0.94598389  0.35955469  1
  Li  Li33  1  0.80392131  0.45584084  0.33623424  1
  Li  Li34  1  0.79634618  0.75195277  0.27864184  1
  Li  Li35  1  0.98841930  0.98522613  0.18732009  1
  Li  Li36  1  0.82242335  0.41413159  0.26378637  1
  Li  Li37  1  0.82222195  0.71076819  0.20326450  1
  Li  Li38  1  0.81577345  0.11254780  0.31923992  1
  Li  Li39  1  0.81877009  0.17908347  0.16965340  1
  Li  Li40  1  0.92067460  0.61585872  0.29311129  1
  Li  Li41  1  0.82234852  0.88232218  0.23832601  1
  Li  Li42  1  0.31926512  0.45102100  0.35775587  1
  Li  Li43  1  0.44091579  0.78692967  0.30658271  1
  Li  Li44  1  0.31037939  0.04994503  0.21839431  1
  Li  Li45  1  0.30309501  0.25258267  0.26333167  1
  Li  Li46  1  0.28209942  0.55468812  0.20846543  1
  Li  Li47  1  0.23529755  0.94022010  0.35013021  1
  Li  Li48  1  0.44555338  0.18511132  0.20890472  1
  Li  Li49  1  0.29618873  0.61937030  0.32542467  1
  Li  Li50  1  0.32871333  0.91847409  0.26774053  1
  Li  Li51  1  0.23352604  0.41780000  0.24738755  1
  Li  Li52  1  0.30240607  0.69065142  0.18184271  1
  Li  Li53  1  0.31620769  0.08653419  0.29432016  1
  Li  Li54  1  0.05714232  0.16047583  0.27399194  1
  Li  Li55  1  0.03910439  0.44435460  0.17475402  1
  Li  Li56  1  0.03206804  0.85704431  0.33032161  1
  Li  Li57  1  0.10818689  0.16807231  0.19407337  1
  Li  Li58  1  0.05968399  0.53347839  0.34849679  1
  Li  Li59  1  0.16187935  0.77737632  0.26874756  1
  Li  Li60  1  0.60368047  0.33663264  0.36319710  1
  Li  Li61  1  0.60731781  0.63410579  0.30500539  1
  Li  Li62  1  0.71054201  0.02817584  0.23017568  1
  Li  Li63  1  0.56014685  0.34750735  0.27956863  1
  Li  Li64  1  0.54790970  0.64455954  0.22518417  1
  Li  Li65  1  0.55940476  0.03366861  0.33486985  1
  Li  Li66  1  0.94217713  0.67763068  0.44551321  1
  Li  Li67  1  0.00358335  0.91178500  0.46856246  1
  Li  Li68  1  0.84436135  0.16076093  0.39025870  1
  Li  Li69  1  0.81188816  0.52327593  0.44732356  1
  Li  Li70  1  0.84626163  0.82309873  0.40631329  1
  Li  Li71  1  0.93730093  0.31477955  0.35116810  1
  Li  Li72  1  0.67702173  0.74763029  0.50524589  1
  Li  Li73  1  0.72614336  0.03338061  0.44155092  1
  Li  Li74  1  0.25209965  0.15726034  0.39753090  1
  Li  Li75  1  0.31561677  0.34727455  0.46143753  1
  Li  Li76  1  0.28361779  0.65321105  0.40685466  1
  Li  Li77  1  0.31114089  0.31342665  0.38035832  1
  Li  Li78  1  0.39633481  0.02625417  0.44285298  1
  Li  Li79  1  0.37248694  0.49159993  0.43160869  1
  Li  Li80  1  0.25166115  0.80485549  0.37603255  1
  Li  Li81  1  0.49788927  0.21565792  0.45006246  1
  Li  Li82  1  0.09636538  0.53517416  0.42866472  1
  Li  Li83  1  0.08237404  0.25957965  0.44727577  1
  Li  Li84  1  0.98869697  0.02256970  0.38835834  1
  Li  Li85  1  0.58842273  0.11394254  0.39672900  1
  Li  Li86  1  0.49378020  0.57653019  0.37801169  1
  Li  Li87  1  0.52889977  0.75503395  0.41097563  1
  Li  Li88  1  0.66203732  0.33222335  0.57115476  1
  Li  Li89  1  0.58326271  0.04357045  0.56005734  1
  Li  Li90  1  0.64646024  0.64304110  0.65299779  1
  Li  Li91  1  0.58979464  0.13458591  0.63937649  1
  Li  Li92  1  0.63361980  0.84494562  0.58309767  1
  Li  Li93  1  0.66422945  0.20443268  0.55887326  1
  Li  Li94  1  0.61645420  0.88774006  0.51049959  1
  Li  Li95  1  0.62580542  0.48156876  0.63638419  1
  Li  Li96  1  0.68241337  0.97501824  0.62482103  1
  Li  Li97  1  0.44125438  0.68148706  0.53352371  1
  Li  Li98  1  0.10902144  0.15222778  0.67350957  1
  Li  Li99  1  0.09209521  0.86481347  0.60860067  1
  Li  Li100  1  0.87908057  0.64649906  0.53079143  1
  Li  Li101  1  0.11138536  0.32280059  0.57839062  1
  Li  Li102  1  0.12847250  0.65440053  0.64883564  1
  Li  Li103  1  0.26219464  0.19796082  0.49224314  1
  Li  Li104  1  0.97114842  0.00977381  0.66246658  1
  Li  Li105  1  0.13103463  0.69312495  0.56790762  1
  Li  Li106  1  0.94562534  0.17990503  0.52442121  1
  Li  Li107  1  0.10993798  0.54460105  0.59994317  1
  Li  Li108  1  0.40841206  0.41857795  0.59040250  1
  Li  Li109  1  0.42412731  0.21364444  0.60908321  1
  Li  Li110  1  0.37127862  0.72870581  0.65526176  1
  Li  Li111  1  0.23766521  0.03517891  0.62220299  1
  Li  Li112  1  0.34733975  0.81239868  0.58986375  1
  Li  Li113  1  0.81800020  0.18923692  0.66282624  1
  Li  Li114  1  0.87893601  0.97002493  0.54391670  1
  Li  Li115  1  0.93461899  0.73455765  0.62014697  1
  Li  Li116  1  0.85615091  0.26055481  0.60047646  1
  Li  Li117  1  0.87144201  0.55639084  0.67268088  1
  Li  Li118  1  0.61657903  0.24611314  0.79066838  1
  Li  Li119  1  0.62584644  0.94867050  0.73619044  1
  Li  Li120  1  0.63600569  0.55268602  0.85850097  1
  Li  Li121  1  0.61569740  0.04469339  0.83652923  1
  Li  Li122  1  0.62077428  0.74772454  0.77725715  1
  Li  Li123  1  0.43691887  0.51445259  0.68715685  1
  Li  Li124  1  0.60398009  0.08692637  0.76403332  1
  Li  Li125  1  0.60369056  0.78930223  0.70271439  1
  Li  Li126  1  0.61186882  0.38724231  0.81886123  1
  Li  Li127  1  0.60717625  0.32005738  0.66916183  1
  Li  Li128  1  0.49185918  0.88331243  0.78928268  1
  Li  Li129  1  0.60527704  0.61679907  0.73818932  1
  Li  Li130  1  0.10693384  0.04958159  0.85936319  1
  Li  Li131  1  0.98216374  0.71159503  0.80819535  1
  Li  Li132  1  0.12141151  0.44989447  0.71713048  1
  Li  Li133  1  0.12321854  0.24851344  0.76395123  1
  Li  Li134  1  0.13452183  0.94574857  0.71048567  1
  Li  Li135  1  0.19262208  0.55846020  0.85147159  1
  Li  Li136  1  0.98079145  0.31469371  0.70879614  1
  Li  Li137  1  0.12173006  0.88035253  0.82531016  1
  Li  Li138  1  0.09583286  0.58003734  0.76859968  1
  Li  Li139  1  0.16052620  0.09141459  0.74711039  1
  Li  Li140  1  0.12315858  0.80953925  0.68159148  1
  Li  Li141  1  0.10895461  0.41435241  0.79397682  1
  Li  Li142  1  0.36935449  0.33897087  0.77362565  1
  Li  Li143  1  0.38199880  0.04166955  0.69917639  1
  Li  Li144  1  0.39229116  0.64239057  0.82906698  1
  Li  Li145  1  0.31853783  0.33087381  0.69382942  1
  Li  Li146  1  0.36206635  0.96491263  0.84777071  1
  Li  Li147  1  0.25440433  0.72144568  0.76869029  1
  Li  Li148  1  0.81989039  0.16210508  0.86365101  1
  Li  Li149  1  0.80400186  0.86506184  0.80717603  1
  Li  Li150  1  0.72071906  0.47201307  0.72971669  1
  Li  Li151  1  0.86158560  0.15308740  0.78018085  1
  Li  Li152  1  0.87455135  0.85608589  0.72619005  1
  Li  Li153  1  0.86535272  0.46537428  0.83477751  1
  Li  Li154  1  0.47965512  0.81921684  0.94709009  1
  Li  Li155  1  0.41651483  0.58867542  0.96821811  1
  Li  Li156  1  0.58066357  0.33932338  0.88976654  1
  Li  Li157  1  0.60995615  0.97499800  0.94643351  1
  Li  Li158  1  0.57533883  0.67634743  0.90560257  1
  Li  Li159  1  0.48598255  0.18592773  0.85157517  1
  Li  Li160  1  0.74521023  0.75285853  0.00529666  1
  Li  Li161  1  0.69995649  0.46584611  0.94178532  1
  Li  Li162  1  0.17192367  0.34213615  0.89787776  1
  Li  Li163  1  0.10781942  0.15195873  0.96149660  1
  Li  Li164  1  0.13762047  0.84596266  0.90611287  1
  Li  Li165  1  0.11271391  0.18757251  0.88126506  1
  Li  Li166  1  0.02672149  0.47487195  0.94319388  1
  Li  Li167  1  0.04950271  0.00790715  0.93216004  1
  Li  Li168  1  0.18139738  0.69137374  0.87728826  1
  Li  Li169  1  0.92917039  0.28519954  0.95105526  1
  Li  Li170  1  0.32422455  0.96455182  0.92861088  1
  Li  Li171  1  0.34424676  0.24059812  0.94667591  1
  Li  Li172  1  0.43511236  0.47760178  0.88838483  1
  Li  Li173  1  0.83730676  0.38568263  0.89728939  1
  Li  Li174  1  0.92800711  0.92395775  0.87806316  1
  Li  Li175  1  0.89552632  0.74560780  0.91109504  1
  P  P176  1  0.53533296  0.09923535  0.14506365  1
  P  P177  1  0.54005214  0.40669948  0.09932786  1
  P  P178  1  0.49144908  0.69448033  0.02461374  1
  P  P179  1  0.07105742  0.19715981  0.04070183  1
  P  P180  1  0.02047120  0.60540434  0.15835075  1
  P  P181  1  0.03783243  0.91072480  0.09759035  1
  P  P182  1  0.53179979  0.20165116  0.33762433  1
  P  P183  1  0.51474110  0.50256776  0.28267612  1
  P  P184  1  0.52003200  0.80322345  0.22150442  1
  P  P185  1  0.02158419  0.30060033  0.21819112  1
  P  P186  1  0.00737425  0.69888042  0.35257861  1
  P  P187  1  0.01743815  0.00078113  0.28199166  1
  P  P188  1  0.59202985  0.63760100  0.46222583  1
  P  P189  1  0.50709461  0.90477050  0.40960762  1
  P  P190  1  0.04268632  0.40215060  0.40849072  1
  P  P191  1  0.04830123  0.08947878  0.46772448  1
  P  P192  1  0.89163053  0.40140071  0.64503141  1
  P  P193  1  0.89401086  0.09384209  0.59926327  1
  P  P194  1  0.93228679  0.80539297  0.52452556  1
  P  P195  1  0.35908274  0.30282480  0.53962100  1
  P  P196  1  0.40375717  0.89526189  0.65923027  1
  P  P197  1  0.38740598  0.58990506  0.59766663  1
  P  P198  1  0.89345262  0.29805809  0.83790254  1
  P  P199  1  0.90302097  0.99818803  0.78416499  1
  P  P200  1  0.90556756  0.69718226  0.72195151  1
  P  P201  1  0.40351819  0.19830944  0.71789908  1
  P  P202  1  0.41550309  0.80124343  0.85154462  1
  P  P203  1  0.40857215  0.49842441  0.78189229  1
  P  P204  1  0.82975697  0.86273285  0.96197226  1
  P  P205  1  0.91683600  0.59507309  0.90934161  1
  P  P206  1  0.38068538  0.09749020  0.90864106  1
  P  P207  1  0.37689502  0.41132545  0.96767489  1
  S  S208  1  0.64651321  0.07712603  0.10013466  1
  S  S209  1  0.64959252  0.39169277  0.05221813  1
  S  S210  1  0.60313992  0.66250178  0.98047093  1
  S  S211  1  0.65119964  0.42501583  0.14650534  1
  S  S212  1  0.61173118  0.72525469  0.06646566  1
  S  S213  1  0.24819258  0.19710416  0.01612197  1
  S  S214  1  0.12526403  0.58017173  0.11181646  1
  S  S215  1  0.15877879  0.89666608  0.05285074  1
  S  S216  1  0.10682729  0.18481622  0.09703174  1
  S  S217  1  0.14573793  0.93066878  0.14478781  1
  S  S218  1  0.42909046  0.17822248  0.13633945  1
  S  S219  1  0.42882503  0.48302697  0.09266967  1
  S  S220  1  0.38856244  0.77107632  0.00810252  1
  S  S221  1  0.43514680  0.32868134  0.11133671  1
  S  S222  1  0.37766246  0.62162610  0.03902303  1
  S  S223  1  0.98316372  0.28147484  0.03091047  1
  S  S224  1  0.91204616  0.68144561  0.14126028  1
  S  S225  1  0.91789396  0.98020139  0.08360215  1
  S  S226  1  0.95982972  0.12569064  0.02300811  1
  S  S227  1  0.93786128  0.82910339  0.10656647  1
  S  S228  1  0.26256628  0.74444701  0.12392987  1
  S  S229  1  0.78042611  0.25721565  0.12248533  1
  S  S230  1  0.76127864  0.55470024  0.06306469  1
  S  S231  1  0.63762745  0.17460756  0.29289956  1
  S  S232  1  0.62485054  0.47656752  0.23793164  1
  S  S233  1  0.62949938  0.77191904  0.17687494  1
  S  S234  1  0.63210948  0.11930243  0.19429162  1
  S  S235  1  0.61978980  0.52752328  0.32943445  1
  S  S236  1  0.62509312  0.82992623  0.26741323  1
  S  S237  1  0.13127645  0.27885846  0.17227500  1
  S  S238  1  0.11439311  0.68000876  0.30501566  1
  S  S239  1  0.13458160  0.97073782  0.23958734  1
  S  S240  1  0.12277832  0.32393308  0.26524601  1
  S  S241  1  0.11901197  0.63305978  0.20501351  1
  S  S242  1  0.12164273  0.03244844  0.32728611  1
  S  S243  1  0.42480698  0.27809854  0.32368839  1
  S  S244  1  0.40818227  0.58010540  0.26878133  1
  S  S245  1  0.40785364  0.87635259  0.20499848  1
  S  S246  1  0.39786886  0.42911140  0.29523715  1
  S  S247  1  0.39998940  0.73333059  0.23985667  1
  S  S248  1  0.40932322  0.02695398  0.15451311  1
  S  S249  1  0.89843554  0.37189602  0.20530743  1
  S  S250  1  0.88643970  0.77197558  0.34121044  1
  S  S251  1  0.90587921  0.07203180  0.26220263  1
  S  S252  1  0.91695384  0.22168648  0.23015146  1
  S  S253  1  0.89983461  0.53452756  0.17339608  1
  S  S254  1  0.89762850  0.92918713  0.29756578  1
  S  S255  1  0.26009785  0.14996697  0.24283463  1
  S  S256  1  0.25847135  0.45229978  0.18553920  1
  S  S257  1  0.24971204  0.84690214  0.31508677  1
  S  S258  1  0.75741020  0.35345605  0.31507031  1
  S  S259  1  0.74974449  0.65313809  0.25546282  1
  S  S260  1  0.76981954  0.94833916  0.18764270  1
  S  S261  1  0.71039288  0.69894276  0.43510120  1
  S  S262  1  0.64459447  0.86126250  0.37764097  1
  S  S263  1  0.63711445  0.22475811  0.38540651  1
  S  S264  1  0.64539345  0.63391564  0.51775520  1
  S  S265  1  0.57310906  0.94980327  0.45684688  1
  S  S266  1  0.13541528  0.38044299  0.35893211  1
  S  S267  1  0.16995199  0.06243869  0.42474588  1
  S  S268  1  0.15760795  0.43225778  0.45159895  1
  S  S269  1  0.10757399  0.72554308  0.40044696  1
  S  S270  1  0.14129772  0.11108237  0.51552851  1
  S  S271  1  0.41497160  0.67592465  0.46041906  1
  S  S272  1  0.42268205  0.97626867  0.37943584  1
  S  S273  1  0.59249396  0.54973368  0.43792886  1
  S  S274  1  0.38112264  0.83909555  0.42689728  1
  S  S275  1  0.41737274  0.12660635  0.35242775  1
  S  S276  1  0.92724517  0.47787283  0.39468170  1
  S  S277  1  0.94240728  0.16711799  0.45272715  1
  S  S278  1  0.92898615  0.33043118  0.42295821  1
  S  S279  1  0.90833168  0.62087883  0.36406463  1
  S  S280  1  0.92308129  0.01602301  0.47486277  1
  S  S281  1  0.29517094  0.24559976  0.43102298  1
  S  S282  1  0.26762406  0.55337353  0.38062110  1
  S  S283  1  0.76416561  0.05430119  0.37430452  1
  S  S284  1  0.77957748  0.42263957  0.60013364  1
  S  S285  1  0.78485855  0.10834209  0.55215521  1
  S  S286  1  0.81931831  0.83768639  0.48073618  1
  S  S287  1  0.78300753  0.07379272  0.64638299  1
  S  S288  1  0.81298623  0.77430598  0.56662907  1
  S  S289  1  0.18000703  0.30193933  0.51608642  1
  S  S290  1  0.29950986  0.92107983  0.61286717  1
  S  S291  1  0.26542927  0.60466400  0.55323570  1
  S  S292  1  0.32617551  0.31256051  0.59631785  1
  S  S293  1  0.28055195  0.57043768  0.64514818  1
  S  S294  1  0.00033422  0.32306853  0.63660397  1
  S  S295  1  0.01230860  0.02002411  0.59248882  1
  S  S296  1  0.03364340  0.72867115  0.50755409  1
  S  S297  1  0.99519629  0.17288834  0.61194853  1
  S  S298  1  0.04736283  0.87784181  0.53888916  1
  S  S299  1  0.45074734  0.22026637  0.52812739  1
  S  S300  1  0.51164751  0.81921242  0.64185503  1
  S  S301  1  0.50500866  0.51978401  0.58325708  1
  S  S302  1  0.46522730  0.37633685  0.52240944  1
  S  S303  1  0.48897161  0.67110052  0.60648388  1
  S  S304  1  0.16324333  0.75621687  0.62386821  1
  S  S305  1  0.64904362  0.24081553  0.62295773  1
  S  S306  1  0.67063332  0.94570468  0.56331457  1
  S  S307  1  0.78742005  0.32422641  0.79298337  1
  S  S308  1  0.79598297  0.02564306  0.73925679  1
  S  S309  1  0.79660202  0.72835364  0.67711138  1
  S  S310  1  0.79431673  0.38037110  0.69405384  1
  S  S311  1  0.79722792  0.97226630  0.83055780  1
  S  S312  1  0.79895270  0.67135630  0.76768679  1
  S  S313  1  0.29625787  0.22055391  0.67162558  1
  S  S314  1  0.30332942  0.81856288  0.80480887  1
  S  S315  1  0.29083404  0.52904538  0.73970980  1
  S  S316  1  0.30095989  0.17529804  0.76486685  1
  S  S317  1  0.30399426  0.86903032  0.70597818  1
  S  S318  1  0.30428588  0.46668050  0.82720004  1
  S  S319  1  0.00047626  0.22158798  0.82418693  1
  S  S320  1  0.00989178  0.92096622  0.76978691  1
  S  S321  1  0.01750914  0.62390464  0.70557916  1
  S  S322  1  0.01871770  0.07140904  0.79823540  1
  S  S323  1  0.02583379  0.76712548  0.74013813  1
  S  S324  1  0.01586688  0.47437361  0.65458200  1
  S  S325  1  0.52645055  0.12663675  0.70535490  1
  S  S326  1  0.53581087  0.72781869  0.84049027  1
  S  S327  1  0.52020260  0.42758936  0.76183197  1
  S  S328  1  0.50900825  0.27687775  0.73009953  1
  S  S329  1  0.52550366  0.96595388  0.67405889  1
  S  S330  1  0.52838062  0.57009109  0.79747476  1
  S  S331  1  0.16654361  0.35027627  0.74272445  1
  S  S332  1  0.16642074  0.04746158  0.68762663  1
  S  S333  1  0.17373310  0.65148125  0.81575405  1
  S  S334  1  0.66496734  0.14668949  0.81588914  1
  S  S335  1  0.67157802  0.84700704  0.75517331  1
  S  S336  1  0.65594296  0.55140173  0.68713944  1
  S  S337  1  0.71123147  0.80196931  0.93450322  1
  S  S338  1  0.77944790  0.63836430  0.87719082  1
  S  S339  1  0.78878590  0.27523110  0.88580397  1
  S  S340  1  0.77683153  0.86620312  0.01754567  1
  S  S341  1  0.85002725  0.55062793  0.95671200  1
  S  S342  1  0.28744572  0.12070890  0.85943512  1
  S  S343  1  0.25264132  0.43767931  0.92521206  1
  S  S344  1  0.26620977  0.06734145  0.95185520  1
  S  S345  1  0.31757819  0.77582247  0.90019314  1
  S  S346  1  0.28778205  0.38964122  0.01616336  1
  S  S347  1  0.00680674  0.82433980  0.96004640  1
  S  S348  1  0.00180171  0.52333337  0.87953012  1
  S  S349  1  0.83014026  0.95085083  0.93806382  1
  S  S350  1  0.04219701  0.66102468  0.92672549  1
  S  S351  1  0.00784995  0.37325327  0.85238862  1
  S  S352  1  0.49314617  0.02096456  0.89413055  1
  S  S353  1  0.48255506  0.33372999  0.95229696  1
  S  S354  1  0.49667458  0.16830242  0.92321012  1
  S  S355  1  0.51657561  0.87936374  0.86061665  1
  S  S356  1  0.50177908  0.48511720  0.97384281  1
  S  S357  1  0.13035984  0.25464923  0.93203098  1
  S  S358  1  0.15390944  0.94643572  0.88063649  1
  S  S359  1  0.66144856  0.44525951  0.87424283  1
  Cl  Cl360  1  0.97214363  0.09088085  0.16054728  1
  Cl  Cl361  1  0.00495318  0.40685176  0.10487626  1
  Cl  Cl362  1  0.93682385  0.70290506  0.03450973  1
  Cl  Cl363  1  0.60610532  0.22388842  0.03544830  1
  Cl  Cl364  1  0.45285730  0.60511125  0.16676303  1
  Cl  Cl365  1  0.47047970  0.87578047  0.09671761  1
  Cl  Cl366  1  0.95979599  0.20051438  0.33586391  1
  Cl  Cl367  1  0.95030039  0.50488490  0.28666990  1
  Cl  Cl368  1  0.96671596  0.79331065  0.22501132  1
  Cl  Cl369  1  0.47856119  0.29687990  0.21849593  1
  Cl  Cl370  1  0.46318897  0.69209489  0.35072994  1
  Cl  Cl371  1  0.47055886  0.00975022  0.27251562  1
  Cl  Cl372  1  0.96794468  0.58101838  0.47686120  1
  Cl  Cl373  1  0.00159956  0.90683034  0.39578769  1
  Cl  Cl374  1  0.45773520  0.39754198  0.40311220  1
  Cl  Cl375  1  0.54390159  0.10801885  0.45995201  1
  Cl  Cl376  1  0.45239613  0.40858413  0.66019814  1
  Cl  Cl377  1  0.43068326  0.09568255  0.59951211  1
  Cl  Cl378  1  0.48815047  0.79857410  0.53506181  1
  Cl  Cl379  1  0.82313362  0.27647917  0.53619012  1
  Cl  Cl380  1  0.97108982  0.89482107  0.66697561  1
  Cl  Cl381  1  0.95367837  0.62474851  0.59747367  1
  Cl  Cl382  1  0.46423877  0.29940129  0.83600438  1
  Cl  Cl383  1  0.46831189  0.99593349  0.78421362  1
  Cl  Cl384  1  0.45919070  0.70648960  0.72497928  1
  Cl  Cl385  1  0.95153463  0.20163400  0.71898182  1
  Cl  Cl386  1  0.95597911  0.80849903  0.85091577  1
  Cl  Cl387  1  0.95150493  0.48996572  0.77276464  1
  Cl  Cl388  1  0.45379092  0.91805650  0.97633061  1
  Cl  Cl389  1  0.41570401  0.59406163  0.89556502  1
  Cl  Cl390  1  0.96659784  0.10336999  0.90454473  1
  Cl  Cl391  1  0.88094752  0.39213021  0.96048596  1
