# generated using pymatgen
data_Li28P3S19Cl5
_symmetry_space_group_name_H-M   'P 1'
_cell_length_a   7.11040505
_cell_length_b   12.43445420
_cell_length_c   28.83102464
_cell_angle_alpha   89.19097621
_cell_angle_beta   90.83681482
_cell_angle_gamma   125.03490120
_symmetry_Int_Tables_number   1
_chemical_formula_structural   Li28P3S19Cl5
_chemical_formula_sum   'Li56 P6 S38 Cl10'
_cell_volume   2086.90812026
_cell_formula_units_Z   2
loop_
 _symmetry_equiv_pos_site_id
 _symmetry_equiv_pos_as_xyz
  1  'x, y, z'
loop_
 _atom_site_type_symbol
 _atom_site_label
 _atom_site_symmetry_multiplicity
 _atom_site_fract_x
 _atom_site_fract_y
 _atom_site_fract_z
 _atom_site_occupancy
  Li  Li0  1  0.32081458  0.64552686  0.08866269  1
  Li  Li1  1  0.39478073  0.02851904  0.07568355  1
  Li  Li2  1  0.71276630  0.43234220  0.99904091  1
  Li  Li3  1  0.12017787  0.44368341  0.01662018  1
  Li  Li4  1  0.73644408  0.70451812  0.04920282  1
  Li  Li5  1  0.16143635  0.91109106  0.99605932  1
  Li  Li6  1  0.86707735  0.61883990  0.16895306  1
  Li  Li7  1  0.96602181  0.12586147  0.04499997  1
  Li  Li8  1  0.78449790  0.83444945  0.12864143  1
  Li  Li9  1  0.38620470  0.85579671  0.23432573  1
  Li  Li10  1  0.28599604  0.40612601  0.35063827  1
  Li  Li11  1  0.96073732  0.13155780  0.28534953  1
  Li  Li12  1  0.40404296  0.38362433  0.10886077  1
  Li  Li13  1  0.46325669  0.07769451  0.30961508  1
  Li  Li14  1  0.36011472  0.54261613  0.19923770  1
  Li  Li15  1  0.76458544  0.05126781  0.17138496  1
  Li  Li16  1  0.69695845  0.53530592  0.30236568  1
  Li  Li17  1  0.86903162  0.30949995  0.25345105  1
  Li  Li18  1  0.94757692  0.83130517  0.37984402  1
  Li  Li19  1  0.39424031  0.11402495  0.19934509  1
  Li  Li20  1  0.45932864  0.70368127  0.34608072  1
  Li  Li21  1  0.05087215  0.42384873  0.48364892  1
  Li  Li22  1  0.96539153  0.62166541  0.40842084  1
  Li  Li23  1  0.81025418  0.75869747  0.49634684  1
  Li  Li24  1  0.11311376  0.16493796  0.43108037  1
  Li  Li25  1  0.35957544  0.00359220  0.44570626  1
  Li  Li26  1  0.48116659  0.51871736  0.45078540  1
  Li  Li27  1  0.30625007  0.46020740  0.55546708  1
  Li  Li28  1  0.53007708  0.80142676  0.56393285  1
  Li  Li29  1  0.61617514  0.35247901  0.62412272  1
  Li  Li30  1  0.06343675  0.06058666  0.51665801  1
  Li  Li31  1  0.56346973  0.83868308  0.45695546  1
  Li  Li32  1  0.08887661  0.60970591  0.54887975  1
  Li  Li33  1  0.60397717  0.35911332  0.50989181  1
  Li  Li34  1  0.93493456  0.71308723  0.66201659  1
  Li  Li35  1  0.86774769  0.19489394  0.54867446  1
  Li  Li36  1  0.13309573  0.51863071  0.63225847  1
  Li  Li37  1  0.49026033  0.47093305  0.72884446  1
  Li  Li38  1  0.50198631  0.98104673  0.85080444  1
  Li  Li39  1  0.13965612  0.30841374  0.81377586  1
  Li  Li40  1  0.33525056  0.94054620  0.59154254  1
  Li  Li41  1  0.51075011  0.24687388  0.79808152  1
  Li  Li42  1  0.46376012  0.79296490  0.68999033  1
  Li  Li43  1  0.10430801  0.27961629  0.68041512  1
  Li  Li44  1  0.12408998  0.79148377  0.80263485  1
  Li  Li45  1  0.87514742  0.03540914  0.75895795  1
  Li  Li46  1  0.90129632  0.51000610  0.87407900  1
  Li  Li47  1  0.29518795  0.07198988  0.72000890  1
  Li  Li48  1  0.47371849  0.69138263  0.83557789  1
  Li  Li49  1  0.93517906  0.20410076  0.95029961  1
  Li  Li50  1  0.91194610  0.73717360  0.90368109  1
  Li  Li51  1  0.13636134  0.62343048  0.95129155  1
  Li  Li52  1  0.53975957  0.18172006  0.94948331  1
  Li  Li53  1  0.38956889  0.52083946  0.94565497  1
  Li  Li54  1  0.53506868  0.86176472  0.94732411  1
  Li  Li55  1  0.61418461  0.88137833  0.04015828  1
  P  P56  1  0.83430328  0.34444292  0.12692408  1
  P  P57  1  0.79513865  0.30465356  0.37799234  1
  P  P58  1  0.87819307  0.84180341  0.25309444  1
  P  P59  1  0.00658572  0.00564922  0.63304461  1
  P  P60  1  0.03228643  0.01780197  0.87231336  1
  P  P61  1  0.01863636  0.50464189  0.74803851  1
  S  S62  1  0.48251167  0.21458607  0.12463419  1
  S  S63  1  0.98338801  0.24365087  0.11994917  1
  S  S64  1  0.91053127  0.39064108  0.94275637  1
  S  S65  1  0.92203686  0.47927150  0.07502748  1
  S  S66  1  0.99505078  0.94494058  0.06123102  1
  S  S67  1  0.56963759  0.60209887  0.12773797  1
  S  S68  1  0.56857722  0.24255336  0.43149631  1
  S  S69  1  0.52496754  0.72867320  0.25872651  1
  S  S70  1  0.88300235  0.17487601  0.36645165  1
  S  S71  1  0.97538246  0.71383112  0.24833398  1
  S  S72  1  0.02924862  0.96367985  0.30958867  1
  S  S73  1  0.94016209  0.45209021  0.18764449  1
  S  S74  1  0.98937566  0.95969137  0.19485366  1
  S  S75  1  0.64641633  0.31742321  0.31824210  1
  S  S76  1  0.63335478  0.07973428  0.24063965  1
  S  S77  1  0.64802254  0.60552594  0.37315054  1
  S  S78  1  0.09200196  0.48174068  0.39519875  1
  S  S79  1  0.40971177  0.64344388  0.50429150  1
  S  S80  1  0.21418456  0.28921562  0.50122545  1
  S  S81  1  0.35902041  0.11526088  0.63756177  1
  S  S82  1  0.86246765  0.10623057  0.62729283  1
  S  S83  1  0.97449636  0.94293932  0.44745928  1
  S  S84  1  0.92846330  0.88722725  0.57656571  1
  S  S85  1  0.88078625  0.38252126  0.56646224  1
  S  S86  1  0.24389426  0.73611668  0.62116680  1
  S  S87  1  0.92562009  0.92100795  0.93423659  1
  S  S88  1  0.37270600  0.62137980  0.74957447  1
  S  S89  1  0.91432864  0.13566597  0.86930406  1
  S  S90  1  0.90052633  0.62225642  0.74418172  1
  S  S91  1  0.91318563  0.39683608  0.80908565  1
  S  S92  1  0.88484674  0.88912154  0.69268117  1
  S  S93  1  0.88694897  0.37693932  0.69357418  1
  S  S94  1  0.38595212  0.13142664  0.87068443  1
  S  S95  1  0.24644084  0.24180719  0.74929959  1
  S  S96  1  0.25000594  0.75111316  0.87790674  1
  S  S97  1  0.89389147  0.88765155  0.81765200  1
  S  S98  1  0.41960493  0.67346478  0.00447650  1
  S  S99  1  0.58812614  0.04163094  0.99901605  1
  Cl  Cl100  1  0.45268644  0.86692252  0.12166606  1
  Cl  Cl101  1  0.29627095  0.31934297  0.00066354  1
  Cl  Cl102  1  0.33135849  0.83086555  0.39123814  1
  Cl  Cl103  1  0.26370928  0.37332577  0.26622250  1
  Cl  Cl104  1  0.85358872  0.59090631  0.48652727  1
  Cl  Cl105  1  0.45672802  0.47702234  0.63766383  1
  Cl  Cl106  1  0.53383234  0.98385742  0.51655669  1
  Cl  Cl107  1  0.56246026  0.54248913  0.87384755  1
  Cl  Cl108  1  0.47668971  0.98016452  0.76381072  1
  Cl  Cl109  1  0.88667122  0.65916653  0.98522096  1
