# generated using pymatgen
data_Li128P21S105Cl23
_symmetry_space_group_name_H-M   'P 1'
_cell_length_a   10.60410300
_cell_length_b   24.76865600
_cell_length_c   43.94374585
_cell_angle_alpha   90.00000000
_cell_angle_beta   90.00000000
_cell_angle_gamma   90.00000000
_symmetry_Int_Tables_number   1
_chemical_formula_structural   Li128P21S105Cl23
_chemical_formula_sum   'Li256 P42 S210 Cl46'
_cell_volume   11541.79757650
_cell_formula_units_Z   2
loop_
 _symmetry_equiv_pos_site_id
 _symmetry_equiv_pos_as_xyz
  1  'x, y, z'
loop_
 _atom_site_type_symbol
 _atom_site_label
 _atom_site_symmetry_multiplicity
 _atom_site_fract_x
 _atom_site_fract_y
 _atom_site_fract_z
 _atom_site_occupancy
  Li  Li0  1  0.73399528  0.21224403  0.05365909  1
  Li  Li1  1  0.78790207  0.61270430  0.12106722  1
  Li  Li2  1  0.77513809  0.84100950  0.05730337  1
  Li  Li3  1  0.82025476  0.39499111  0.07109448  1
  Li  Li4  1  0.91798384  0.32614730  0.02573201  1
  Li  Li5  1  0.72267791  0.69628161  0.06172703  1
  Li  Li6  1  0.76121104  0.08859285  0.10377444  1
  Li  Li7  1  0.88563286  0.50483346  0.03423910  1
  Li  Li8  1  0.96192644  0.92322262  0.05493878  1
  Li  Li9  1  0.42193419  0.46098934  0.11075417  1
  Li  Li10  1  0.11602619  0.07379586  0.03042670  1
  Li  Li11  1  0.29931850  0.23008991  0.06208238  1
  Li  Li12  1  0.21151280  0.60051661  0.11333397  1
  Li  Li13  1  0.45846031  0.14784498  0.03883363  1
  Li  Li14  1  0.23312104  0.54941215  0.05002409  1
  Li  Li15  1  0.31137335  0.92417919  0.08848726  1
  Li  Li16  1  0.35476119  0.34817158  0.01014384  1
  Li  Li17  1  0.47062129  0.68731781  0.00906281  1
  Li  Li18  1  0.34194519  0.08576266  0.09226640  1
  Li  Li19  1  0.09105469  0.13539357  0.09181707  1
  Li  Li20  1  0.06726329  0.73770111  0.05841615  1
  Li  Li21  1  0.16360829  0.42692961  0.07406568  1
  Li  Li22  1  0.04013163  0.88096072  0.12037161  1
  Li  Li23  1  0.66290793  0.31234552  0.12079021  1
  Li  Li24  1  0.55112796  0.54963889  0.06391051  1
  Li  Li25  1  0.59657522  0.93008362  0.06511822  1
  Li  Li26  1  0.56205399  0.31995602  0.05393133  1
  Li  Li27  1  0.51562886  0.67420627  0.09886599  1
  Li  Li28  1  0.89474417  0.39303017  0.20206720  1
  Li  Li29  1  0.83414433  0.76442452  0.24826499  1
  Li  Li30  1  0.95003796  0.02510443  0.15574321  1
  Li  Li31  1  0.84038739  0.54542759  0.19562349  1
  Li  Li32  1  0.83431506  0.78256035  0.11495720  1
  Li  Li33  1  0.83410706  0.16453490  0.15783412  1
  Li  Li34  1  0.70093373  0.45990107  0.14907440  1
  Li  Li35  1  0.77400632  0.87359715  0.19623650  1
  Li  Li36  1  0.76775964  0.25475631  0.24189999  1
  Li  Li37  1  0.93378782  0.28525438  0.10401547  1
  Li  Li38  1  0.70876344  0.69553697  0.16971837  1
  Li  Li39  1  0.78172770  0.04393253  0.20673408  1
  Li  Li40  1  0.29173573  0.57108954  0.22125137  1
  Li  Li41  1  0.25474524  0.80198309  0.12613198  1
  Li  Li42  1  0.27944921  0.18017196  0.18269505  1
  Li  Li43  1  0.24493750  0.36397371  0.20117836  1
  Li  Li44  1  0.24973358  0.75302305  0.24334243  1
  Li  Li45  1  0.30649164  0.98609306  0.14137839  1
  Li  Li46  1  0.30641401  0.30645901  0.13895814  1
  Li  Li47  1  0.32051502  0.70133203  0.18264289  1
  Li  Li48  1  0.31311435  0.07682792  0.22714762  1
  Li  Li49  1  0.18735725  0.50398274  0.15331014  1
  Li  Li50  1  0.41415186  0.86808919  0.17209372  1
  Li  Li51  1  0.41759956  0.25431685  0.21887399  1
  Li  Li52  1  0.08799426  0.26999627  0.22902815  1
  Li  Li53  1  0.00483847  0.52326334  0.10693145  1
  Li  Li54  1  0.11410931  0.89623212  0.18400975  1
  Li  Li55  1  0.04327179  0.25438496  0.16477255  1
  Li  Li56  1  0.05437339  0.64840540  0.19468262  1
  Li  Li57  1  0.04334162  0.02801599  0.24667744  1
  Li  Li58  1  0.56704032  0.52034822  0.21787198  1
  Li  Li59  1  0.56079427  0.76885606  0.12842917  1
  Li  Li60  1  0.56142709  0.11844949  0.17583112  1
  Li  Li61  1  0.57320376  0.39966345  0.19326328  1
  Li  Li62  1  0.56854334  0.79285904  0.23047100  1
  Li  Li63  1  0.59693977  0.01084109  0.14391589  1
  Li  Li64  1  0.83256877  0.53602255  0.33806979  1
  Li  Li65  1  0.80424526  0.91083550  0.38437016  1
  Li  Li66  1  0.83777027  0.14893578  0.29304932  1
  Li  Li67  1  0.84283188  0.70690193  0.33284969  1
  Li  Li68  1  0.82456644  0.93733174  0.24782435  1
  Li  Li69  1  0.81779250  0.32328770  0.29356557  1
  Li  Li70  1  0.75752771  0.63597914  0.28110818  1
  Li  Li71  1  0.73594609  0.01455397  0.32572181  1
  Li  Li72  1  0.94570924  0.42331485  0.39868814  1
  Li  Li73  1  0.75493258  0.44445060  0.25526208  1
  Li  Li74  1  0.77318829  0.83434018  0.29862151  1
  Li  Li75  1  0.79025335  0.21205328  0.34421258  1
  Li  Li76  1  0.29129665  0.72322548  0.35539007  1
  Li  Li77  1  0.28342388  0.95358364  0.26739499  1
  Li  Li78  1  0.26623002  0.33833953  0.30996136  1
  Li  Li79  1  0.21264533  0.51992917  0.33727069  1
  Li  Li80  1  0.19590195  0.90191184  0.38268808  1
  Li  Li81  1  0.25854883  0.13579492  0.28425959  1
  Li  Li82  1  0.33930772  0.47148001  0.27403973  1
  Li  Li83  1  0.33351308  0.85378834  0.32015734  1
  Li  Li84  1  0.28334406  0.23685810  0.35718987  1
  Li  Li85  1  0.32103824  0.62668430  0.27391113  1
  Li  Li86  1  0.31906718  0.01022602  0.32014560  1
  Li  Li87  1  0.30466805  0.39790215  0.36281599  1
  Li  Li88  1  0.02677251  0.44186086  0.33361955  1
  Li  Li89  1  0.05973429  0.66292737  0.26314924  1
  Li  Li90  1  0.06203833  0.05144264  0.31297043  1
  Li  Li91  1  0.08235306  0.42358309  0.27313505  1
  Li  Li92  1  0.07137641  0.80895333  0.32292635  1
  Li  Li93  1  0.04162125  0.17790388  0.38788871  1
  Li  Li94  1  0.57766458  0.68281373  0.35150309  1
  Li  Li95  1  0.54993838  0.89632204  0.26378776  1
  Li  Li96  1  0.53975825  0.27185135  0.31307137  1
  Li  Li97  1  0.55473537  0.57271633  0.31839403  1
  Li  Li98  1  0.53900980  0.94980063  0.36558020  1
  Li  Li99  1  0.56531802  0.17483929  0.27502128  1
  Li  Li100  1  0.79761148  0.30963479  0.42990738  1
  Li  Li101  1  0.61795795  0.84780200  0.48245919  1
  Li  Li102  1  0.82329603  0.09011978  0.37731181  1
  Li  Li103  1  0.70988047  0.48558775  0.43937475  1
  Li  Li104  1  0.93678492  0.77500380  0.46438175  1
  Li  Li105  1  0.90369072  0.18722101  0.47474788  1
  Li  Li106  1  0.77936578  0.61900745  0.38734245  1
  Li  Li107  1  0.76976728  0.99496713  0.42939253  1
  Li  Li108  1  0.82505347  0.31155962  0.50759029  1
  Li  Li109  1  0.31332295  0.11597482  0.40538051  1
  Li  Li110  1  0.42451750  0.52311857  0.43735776  1
  Li  Li111  1  0.18640134  0.66625592  0.46959983  1
  Li  Li112  1  0.40993323  0.27275420  0.40979568  1
  Li  Li113  1  0.35855171  0.62854475  0.40819295  1
  Li  Li114  1  0.46909262  0.99671839  0.45290779  1
  Li  Li115  1  0.41296781  0.41271844  0.50116978  1
  Li  Li116  1  0.31586571  0.78126655  0.40910184  1
  Li  Li117  1  0.24919161  0.18550392  0.45995300  1
  Li  Li118  1  0.39497291  0.54712668  0.49601720  1
  Li  Li119  1  0.04409058  0.80844480  0.39294001  1
  Li  Li120  1  0.09446900  0.27648229  0.42374281  1
  Li  Li121  1  0.11706335  0.57585331  0.41642688  1
  Li  Li122  1  0.06645290  0.96492705  0.44560595  1
  Li  Li123  1  0.57130769  0.06584606  0.39392392  1
  Li  Li124  1  0.54605307  0.40154334  0.43710558  1
  Li  Li125  1  0.61006733  0.76990310  0.43101958  1
  Li  Li126  1  0.56831056  0.16737519  0.46801665  1
  Li  Li127  1  0.69205438  0.40009235  0.37259561  1
  Li  Li128  1  0.36044158  0.18580148  0.55007185  1
  Li  Li129  1  0.29565239  0.78971489  0.62100902  1
  Li  Li130  1  0.33314278  0.56335589  0.55759086  1
  Li  Li131  1  0.29162331  0.99995232  0.56876922  1
  Li  Li132  1  0.19261887  0.06875678  0.52462564  1
  Li  Li133  1  0.37922848  0.71607646  0.56203840  1
  Li  Li134  1  0.32038166  0.31233102  0.60605403  1
  Li  Li135  1  0.22814799  0.89108173  0.53001904  1
  Li  Li136  1  0.12977379  0.49458688  0.54327002  1
  Li  Li137  1  0.78384624  0.97825064  0.61171718  1
  Li  Li138  1  0.83333009  0.36752968  0.57578224  1
  Li  Li139  1  0.80871789  0.18491214  0.55987215  1
  Li  Li140  1  0.85564461  0.79753983  0.60440439  1
  Li  Li141  1  0.61552343  0.25089052  0.53632792  1
  Li  Li142  1  0.81464074  0.80016406  0.52245206  1
  Li  Li143  1  0.80019517  0.49196940  0.59044498  1
  Li  Li144  1  0.75816999  0.05703317  0.50769964  1
  Li  Li145  1  0.62230195  0.71358863  0.51450117  1
  Li  Li146  1  0.65834387  0.30282686  0.59325397  1
  Li  Li147  1  0.00552904  0.27786767  0.59001060  1
  Li  Li148  1  0.05066488  0.66397374  0.55599861  1
  Li  Li149  1  0.89998734  0.94400172  0.55397655  1
  Li  Li150  1  0.06149396  0.52180455  0.61886820  1
  Li  Li151  1  0.48406788  0.08129433  0.61337328  1
  Li  Li152  1  0.63467951  0.86927652  0.57847563  1
  Li  Li153  1  0.50686572  0.47681541  0.56511626  1
  Li  Li154  1  0.54383532  0.08376458  0.54860321  1
  Li  Li155  1  0.57950543  0.73279870  0.60107877  1
  Li  Li156  1  0.18447796  0.00339900  0.69915753  1
  Li  Li157  1  0.26477492  0.63550221  0.74963892  1
  Li  Li158  1  0.16050878  0.38032578  0.65677838  1
  Li  Li159  1  0.26615129  0.85001145  0.69782550  1
  Li  Li160  1  0.27055944  0.61931175  0.61501455  1
  Li  Li161  1  0.25706423  0.23446557  0.65771271  1
  Li  Li162  1  0.35844183  0.92666931  0.64901748  1
  Li  Li163  1  0.32069887  0.52503552  0.69696811  1
  Li  Li164  1  0.32539824  0.14477070  0.74107436  1
  Li  Li165  1  0.23573074  0.12893842  0.61004171  1
  Li  Li166  1  0.37850656  0.71228817  0.66922042  1
  Li  Li167  1  0.30999788  0.35460932  0.70835310  1
  Li  Li168  1  0.79643452  0.82723988  0.72198810  1
  Li  Li169  1  0.83347334  0.60373889  0.63226513  1
  Li  Li170  1  0.81322339  0.21841965  0.68308816  1
  Li  Li171  1  0.81207064  0.03176415  0.69023335  1
  Li  Li172  1  0.85007744  0.64659336  0.74370635  1
  Li  Li173  1  0.80444291  0.41886905  0.64400287  1
  Li  Li174  1  0.78329280  0.09649487  0.63630262  1
  Li  Li175  1  0.77772216  0.70177905  0.68409682  1
  Li  Li176  1  0.78893665  0.32182388  0.72729311  1
  Li  Li177  1  0.90440335  0.88853406  0.65242291  1
  Li  Li178  1  0.68643117  0.53121135  0.67468998  1
  Li  Li179  1  0.67956423  0.14394051  0.71907638  1
  Li  Li180  1  0.00348678  0.12437772  0.72596804  1
  Li  Li181  1  0.07747232  0.87815828  0.60258576  1
  Li  Li182  1  0.00231447  0.50792952  0.68355276  1
  Li  Li183  1  0.04521248  0.14473067  0.66120925  1
  Li  Li184  1  0.04461256  0.75279151  0.69543757  1
  Li  Li185  1  0.05735076  0.37150715  0.74821334  1
  Li  Li186  1  0.53413466  0.88936556  0.71946980  1
  Li  Li187  1  0.53795326  0.63721734  0.63007351  1
  Li  Li188  1  0.53844152  0.28838639  0.68045739  1
  Li  Li189  1  0.51664089  0.00093246  0.69046843  1
  Li  Li190  1  0.52971187  0.60872918  0.73072056  1
  Li  Li191  1  0.49968506  0.38928749  0.64469884  1
  Li  Li192  1  0.27253785  0.86545126  0.83794927  1
  Li  Li193  1  0.28657008  0.48418535  0.88919020  1
  Li  Li194  1  0.27033319  0.25155838  0.79328841  1
  Li  Li195  1  0.26088075  0.69264183  0.83392595  1
  Li  Li196  1  0.28397697  0.46121502  0.74924114  1
  Li  Li197  1  0.27994123  0.07569551  0.79358206  1
  Li  Li198  1  0.34536421  0.76397554  0.78169590  1
  Li  Li199  1  0.35060740  0.37623113  0.82628147  1
  Li  Li200  1  0.17925428  0.98015354  0.89466754  1
  Li  Li201  1  0.32137926  0.96276111  0.75282724  1
  Li  Li202  1  0.32110354  0.56595534  0.79919559  1
  Li  Li203  1  0.30523956  0.18801681  0.84364433  1
  Li  Li204  1  0.80881186  0.67430573  0.85726462  1
  Li  Li205  1  0.81341254  0.44451395  0.76900771  1
  Li  Li206  1  0.85497157  0.05748677  0.80242217  1
  Li  Li207  1  0.88812336  0.87885165  0.83772024  1
  Li  Li208  1  0.89445066  0.49404761  0.88372694  1
  Li  Li209  1  0.83738417  0.26099455  0.78448180  1
  Li  Li210  1  0.76170978  0.92702857  0.77316794  1
  Li  Li211  1  0.77252374  0.54468843  0.82000062  1
  Li  Li212  1  0.81271472  0.16138483  0.85854013  1
  Li  Li213  1  0.77996946  0.77338584  0.77502532  1
  Li  Li214  1  0.77536020  0.38623719  0.82100597  1
  Li  Li215  1  0.79246041  0.00510385  0.86093941  1
  Li  Li216  1  0.07680344  0.95743662  0.83326245  1
  Li  Li217  1  0.04099166  0.73526760  0.76457394  1
  Li  Li218  1  0.03571277  0.34657050  0.81328655  1
  Li  Li219  1  0.01772714  0.97164730  0.77189024  1
  Li  Li220  1  0.03121754  0.58821662  0.82541381  1
  Li  Li221  1  0.05122658  0.22436346  0.89074112  1
  Li  Li222  1  0.52887851  0.71955088  0.85109985  1
  Li  Li223  1  0.55588857  0.51051155  0.76537370  1
  Li  Li224  1  0.55432723  0.12510421  0.81307513  1
  Li  Li225  1  0.54491998  0.82919202  0.81834892  1
  Li  Li226  1  0.53479479  0.45988317  0.86120675  1
  Li  Li227  1  0.53389339  0.22163147  0.77578324  1
  Li  Li228  1  0.30853310  0.09966205  0.92461394  1
  Li  Li229  1  0.48260579  0.55795356  0.97777406  1
  Li  Li230  1  0.29635600  0.30380040  0.87964928  1
  Li  Li231  1  0.39842988  0.91841448  0.93859508  1
  Li  Li232  1  0.16684278  0.62492893  0.97225580  1
  Li  Li233  1  0.20167562  0.18564463  0.00188679  1
  Li  Li234  1  0.31962606  0.78448144  0.88741273  1
  Li  Li235  1  0.34851521  0.38730323  0.93000470  1
  Li  Li236  1  0.34613796  0.04430833  0.97451812  1
  Li  Li237  1  0.77315228  0.27977106  0.90865644  1
  Li  Li238  1  0.67818895  0.87446730  0.93796955  1
  Li  Li239  1  0.90975958  0.72981806  0.97120423  1
  Li  Li240  1  0.67590434  0.12894295  0.91185444  1
  Li  Li241  1  0.74640522  0.76720556  0.90894618  1
  Li  Li242  1  0.62728515  0.40655573  0.95500516  1
  Li  Li243  1  0.69136840  0.98991917  0.00135955  1
  Li  Li244  1  0.76213258  0.61177888  0.90873693  1
  Li  Li245  1  0.86732286  0.21320208  0.96206756  1
  Li  Li246  1  0.71504730  0.85306464  0.99735673  1
  Li  Li247  1  0.04983124  0.58923092  0.89620944  1
  Li  Li248  1  0.99585084  0.11809184  0.92513296  1
  Li  Li249  1  0.98746651  0.81883354  0.91903013  1
  Li  Li250  1  0.04599923  0.42498744  0.94436298  1
  Li  Li251  1  0.56622999  0.36101188  0.89256434  1
  Li  Li252  1  0.57870219  0.99755271  0.93606154  1
  Li  Li253  1  0.42357717  0.63657472  0.92014407  1
  Li  Li254  1  0.53693009  0.23731854  0.97081662  1
  Li  Li255  1  0.45163858  0.01061069  0.87283336  1
  P  P256  1  0.52292707  0.19648605  0.11794066  1
  P  P257  1  0.51003815  0.43861749  0.03807773  1
  P  P258  1  0.50724621  0.81442831  0.06742932  1
  P  P259  1  0.99998477  0.62168699  0.04496123  1
  P  P260  1  0.03728480  0.01571043  0.08947877  1
  P  P261  1  0.50989919  0.35022805  0.25262617  1
  P  P262  1  0.50167636  0.57942074  0.15782000  1
  P  P263  1  0.51511634  0.96591463  0.20547647  1
  P  P264  1  0.00379018  0.38538919  0.13911478  1
  P  P265  1  0.01662246  0.77460423  0.18180903  1
  P  P266  1  0.00853974  0.15283272  0.22809754  1
  P  P267  1  0.52040186  0.51330385  0.37687500  1
  P  P268  1  0.52639903  0.73940152  0.29175517  1
  P  P269  1  0.51637506  0.12454873  0.33773145  1
  P  P270  1  0.02132161  0.54350422  0.26848183  1
  P  P271  1  0.01933233  0.92951695  0.31628682  1
  P  P272  1  0.00483000  0.31555513  0.36093452  1
  P  P273  1  0.50913058  0.88972057  0.42177210  1
  P  P274  1  0.49102580  0.28778286  0.47505090  1
  P  P275  1  0.02176569  0.68911152  0.40569415  1
  P  P276  1  0.01628368  0.08316300  0.45152601  1
  P  P277  1  0.55903338  0.20132363  0.61636148  1
  P  P278  1  0.60577105  0.96751534  0.53535654  1
  P  P279  1  0.59712096  0.59346244  0.56907718  1
  P  P280  1  0.09852953  0.77854885  0.54072897  1
  P  P281  1  0.08487863  0.39658654  0.59200763  1
  P  P282  1  0.58108890  0.04720878  0.75176212  1
  P  P283  1  0.59054572  0.82190340  0.66004027  1
  P  P284  1  0.58365100  0.43275127  0.70633686  1
  P  P285  1  0.08043499  0.01347765  0.63615099  1
  P  P286  1  0.08608123  0.62796343  0.68310387  1
  P  P287  1  0.08286204  0.24360684  0.72711518  1
  P  P288  1  0.58485109  0.88656983  0.87696384  1
  P  P289  1  0.57547536  0.65945693  0.79228798  1
  P  P290  1  0.58527361  0.26885068  0.83894457  1
  P  P291  1  0.07836898  0.85475358  0.76900908  1
  P  P292  1  0.08016715  0.46842650  0.81690130  1
  P  P293  1  0.09108627  0.08289641  0.86140025  1
  P  P294  1  0.58050561  0.50498479  0.92170793  1
  P  P295  1  0.61647215  0.11419763  0.97778521  1
  P  P296  1  0.08606126  0.70757795  0.90797198  1
  P  P297  1  0.09514373  0.30694144  0.95551618  1
  S  S298  1  0.60467897  0.15239761  0.08249380  1
  S  S299  1  0.57079956  0.38305650  0.00664970  1
  S  S300  1  0.61694741  0.77622615  0.03473022  1
  S  S301  1  0.66403996  0.46513247  0.06238863  1
  S  S302  1  0.62831703  0.84780333  0.10004402  1
  S  S303  1  0.12413140  0.34809507  0.10871397  1
  S  S304  1  0.05293182  0.56728292  0.01231428  1
  S  S305  1  0.15040393  0.98015105  0.05704565  1
  S  S306  1  0.15790216  0.65006617  0.06724983  1
  S  S307  1  0.43980826  0.26517154  0.09930177  1
  S  S308  1  0.41736107  0.50651083  0.02400667  1
  S  S309  1  0.40620427  0.87403400  0.04771741  1
  S  S310  1  0.39019306  0.39109904  0.06431007  1
  S  S311  1  0.39193527  0.75851136  0.08911561  1
  S  S312  1  0.89134461  0.44088299  0.11707011  1
  S  S313  1  0.91055898  0.68993066  0.02819323  1
  S  S314  1  0.93308932  0.07435489  0.06740489  1
  S  S315  1  0.87599270  0.57831321  0.07227550  1
  S  S316  1  0.91796144  0.96167682  0.10948906  1
  S  S317  1  0.24323734  0.14284381  0.05221894  1
  S  S318  1  0.22205861  0.50866478  0.10011466  1
  S  S319  1  0.77693451  0.30133937  0.06726085  1
  S  S320  1  0.71888700  0.70273757  0.11695483  1
  S  S321  1  0.77236480  0.92233339  0.03195601  1
  S  S322  1  0.60680378  0.31203704  0.21794840  1
  S  S323  1  0.59620756  0.54133351  0.12261686  1
  S  S324  1  0.60834433  0.92526337  0.17123088  1
  S  S325  1  0.64627098  0.22398437  0.14952255  1
  S  S326  1  0.62878766  0.60864490  0.18895583  1
  S  S327  1  0.62748884  0.99608097  0.23896386  1
  S  S328  1  0.13763181  0.50165789  0.23954310  1
  S  S329  1  0.12653910  0.73281350  0.15135620  1
  S  S330  1  0.12086290  0.11177200  0.19803114  1
  S  S331  1  0.09405873  0.42262546  0.17482516  1
  S  S332  1  0.11304669  0.81447240  0.21494533  1
  S  S333  1  0.14318994  0.05292766  0.12312075  1
  S  S334  1  0.40409639  0.41045080  0.23162445  1
  S  S335  1  0.38816876  0.64017132  0.14088927  1
  S  S336  1  0.42077717  0.02886381  0.18407535  1
  S  S337  1  0.39230602  0.52225924  0.17987133  1
  S  S338  1  0.38668048  0.91203254  0.22358745  1
  S  S339  1  0.39414111  0.14480730  0.13720702  1
  S  S340  1  0.90669699  0.59551455  0.24365928  1
  S  S341  1  0.91141388  0.83322016  0.15898402  1
  S  S342  1  0.90807467  0.21235521  0.20469733  1
  S  S343  1  0.88389763  0.32767444  0.15642442  1
  S  S344  1  0.89357180  0.71931284  0.20125197  1
  S  S345  1  0.88069561  0.09914670  0.24652585  1
  S  S346  1  0.24060036  0.27397448  0.18715818  1
  S  S347  1  0.23398531  0.66240106  0.22798172  1
  S  S348  1  0.24591632  0.89390286  0.13858736  1
  S  S349  1  0.73836282  0.46229964  0.20337513  1
  S  S350  1  0.73767027  0.85070598  0.24704549  1
  S  S351  1  0.75452638  0.07560682  0.15674258  1
  S  S352  1  0.62957805  0.48066634  0.34326684  1
  S  S353  1  0.62424281  0.70488457  0.25630996  1
  S  S354  1  0.61598089  0.08910102  0.30313927  1
  S  S355  1  0.62238567  0.38349997  0.28511588  1
  S  S356  1  0.63892709  0.77074020  0.32512885  1
  S  S357  1  0.62787896  0.15714886  0.37125876  1
  S  S358  1  0.14943749  0.65314879  0.37699860  1
  S  S359  1  0.13107064  0.88667454  0.28689227  1
  S  S360  1  0.10303385  0.27538295  0.32841217  1
  S  S361  1  0.11633407  0.58838923  0.30008948  1
  S  S362  1  0.11767296  0.97417598  0.34751548  1
  S  S363  1  0.09841364  0.19276878  0.26237379  1
  S  S364  1  0.39496430  0.56806795  0.35860044  1
  S  S365  1  0.41352439  0.79991403  0.27333532  1
  S  S366  1  0.40592265  0.18390453  0.31737522  1
  S  S367  1  0.41180075  0.68275018  0.31256411  1
  S  S368  1  0.39724772  0.07008249  0.35889358  1
  S  S369  1  0.38961707  0.29356144  0.27098288  1
  S  S370  1  0.89086481  0.73755057  0.38427948  1
  S  S371  1  0.90849828  0.98469017  0.29202224  1
  S  S372  1  0.87962130  0.36922804  0.34083283  1
  S  S373  1  0.90694036  0.48721309  0.29054719  1
  S  S374  1  0.90301641  0.87394401  0.33736900  1
  S  S375  1  0.90103664  0.25971437  0.38586181  1
  S  S376  1  0.23040391  0.43103797  0.31497134  1
  S  S377  1  0.22813839  0.81343138  0.36199126  1
  S  S378  1  0.23119514  0.04476507  0.27454739  1
  S  S379  1  0.74106510  0.62252622  0.33364325  1
  S  S380  1  0.72857671  0.00337542  0.37808156  1
  S  S381  1  0.73343474  0.23410170  0.29328950  1
  S  S382  1  0.59815174  0.85585626  0.38548127  1
  S  S383  1  0.60236706  0.25289524  0.44195827  1
  S  S384  1  0.61854193  0.55665485  0.40938649  1
  S  S385  1  0.63424406  0.92775000  0.45023013  1
  S  S386  1  0.58841002  0.33135378  0.50681983  1
  S  S387  1  0.15280159  0.04786845  0.42623997  1
  S  S388  1  0.11735499  0.74030631  0.43598820  1
  S  S389  1  0.09007399  0.12998604  0.48694263  1
  S  S390  1  0.11550125  0.35739406  0.39158058  1
  S  S391  1  0.37978735  0.94778667  0.40781728  1
  S  S392  1  0.36409986  0.33832115  0.45504603  1
  S  S393  1  0.42374937  0.83223301  0.44846012  1
  S  S394  1  0.40629204  0.22063052  0.49654204  1
  S  S395  1  0.41877974  0.45358824  0.39874287  1
  S  S396  1  0.89924093  0.13386447  0.42712952  1
  S  S397  1  0.93077158  0.63013649  0.42955706  1
  S  S398  1  0.90988897  0.02141392  0.47047249  1
  S  S399  1  0.28211791  0.58696184  0.45359992  1
  S  S400  1  0.24030478  0.20681118  0.40811346  1
  S  S401  1  0.72675824  0.76471111  0.47773168  1
  S  S402  1  0.76047977  0.40074404  0.42293479  1
  S  S403  1  0.47196689  0.24838153  0.58239545  1
  S  S404  1  0.53899314  0.02227939  0.50384747  1
  S  S405  1  0.48814995  0.63300245  0.53653119  1
  S  S406  1  0.46196226  0.93220124  0.55882675  1
  S  S407  1  0.47542552  0.55759061  0.60064813  1
  S  S408  1  0.95816465  0.04865729  0.60651403  1
  S  S409  1  0.04569019  0.83095064  0.50736206  1
  S  S410  1  0.96612852  0.44023962  0.56283964  1
  S  S411  1  0.93953091  0.74608938  0.56134364  1
  S  S412  1  0.66134696  0.14140547  0.59421205  1
  S  S413  1  0.72759983  0.90879138  0.52063526  1
  S  S414  1  0.69655163  0.53387744  0.54856195  1
  S  S415  1  0.71996418  0.01856814  0.56115271  1
  S  S416  1  0.71048775  0.64808560  0.59172587  1
  S  S417  1  0.19762158  0.95851255  0.61410823  1
  S  S418  1  0.20074661  0.71236494  0.52532618  1
  S  S419  1  0.17240543  0.33760146  0.56761126  1
  S  S420  1  0.21500334  0.82192983  0.56968551  1
  S  S421  1  0.20601741  0.44547719  0.61476989  1
  S  S422  1  0.81909276  0.27778704  0.55765628  1
  S  S423  1  0.85744686  0.88986992  0.59911277  1
  S  S424  1  0.33392750  0.09587268  0.56535064  1
  S  S425  1  0.37658430  0.70121844  0.61667201  1
  S  S426  1  0.33358931  0.48178194  0.53221081  1
  S  S427  1  0.48682067  0.08728550  0.71736371  1
  S  S428  1  0.48781389  0.85514954  0.62501408  1
  S  S429  1  0.49100295  0.47419827  0.67220322  1
  S  S430  1  0.43134942  0.16424757  0.64350628  1
  S  S431  1  0.47421770  0.79099568  0.69296791  1
  S  S432  1  0.47203599  0.39960718  0.73891076  1
  S  S433  1  0.96188333  0.89512356  0.73943625  1
  S  S434  1  0.97565454  0.67113281  0.65339217  1
  S  S435  1  0.97372246  0.28634264  0.69702613  1
  S  S436  1  0.98949620  0.97445417  0.67149876  1
  S  S437  1  0.99265368  0.58672208  0.71621860  1
  S  S438  1  0.96817669  0.35759486  0.62351531  1
  S  S439  1  0.68350350  0.98639972  0.73047644  1
  S  S440  1  0.70845413  0.76224207  0.64275484  1
  S  S441  1  0.68253604  0.37160772  0.68399505  1
  S  S442  1  0.70237213  0.87941001  0.68082243  1
  S  S443  1  0.71103262  0.48616242  0.72501495  1
  S  S444  1  0.67699803  0.25245360  0.63942338  1
  S  S445  1  0.19287498  0.80207825  0.74474321  1
  S  S446  1  0.18898225  0.56964708  0.65924601  1
  S  S447  1  0.18334487  0.18462714  0.70317480  1
  S  S448  1  0.19976862  0.06968545  0.65538872  1
  S  S449  1  0.20958409  0.68249046  0.70287642  1
  S  S450  1  0.21041426  0.29679603  0.74658894  1
  S  S451  1  0.85019190  0.12512785  0.68520830  1
  S  S452  1  0.86641088  0.73741966  0.72934346  1
  S  S453  1  0.85698270  0.51122055  0.64086171  1
  S  S454  1  0.35164290  0.93839546  0.70184561  1
  S  S455  1  0.36295252  0.54917095  0.74756220  1
  S  S456  1  0.34550365  0.32254138  0.65855329  1
  S  S457  1  0.47685253  0.92206500  0.84414052  1
  S  S458  1  0.47730153  0.69469003  0.75714359  1
  S  S459  1  0.48912907  0.30695084  0.80433466  1
  S  S460  1  0.46781259  0.01435588  0.78421348  1
  S  S461  1  0.46295754  0.62827635  0.82560727  1
  S  S462  1  0.47493789  0.23525990  0.87175719  1
  S  S463  1  0.95778132  0.74329762  0.87903947  1
  S  S464  1  0.96973459  0.51212245  0.78754116  1
  S  S465  1  0.98837032  0.12143322  0.82894422  1
  S  S466  1  0.98506021  0.81063588  0.80123144  1
  S  S467  1  0.97912541  0.42349456  0.84752203  1
  S  S468  1  0.98902090  0.20227840  0.76012139  1
  S  S469  1  0.70493534  0.82986570  0.85850765  1
  S  S470  1  0.68716383  0.59887045  0.77325753  1
  S  S471  1  0.69335653  0.20948531  0.81740667  1
  S  S472  1  0.69394847  0.71475188  0.81282848  1
  S  S473  1  0.71423003  0.32071241  0.85891120  1
  S  S474  1  0.70350074  0.10270781  0.77065234  1
  S  S475  1  0.21281987  0.65812803  0.88498870  1
  S  S476  1  0.18972141  0.41330303  0.79202230  1
  S  S477  1  0.22376986  0.03118087  0.84254621  1
  S  S478  1  0.19422734  0.91176365  0.79009749  1
  S  S479  1  0.19881984  0.52215433  0.83851215  1
  S  S480  1  0.18664668  0.14220715  0.88573578  1
  S  S481  1  0.87141864  0.96721489  0.81431588  1
  S  S482  1  0.86989583  0.58366663  0.86324080  1
  S  S483  1  0.86678962  0.35270042  0.77503699  1
  S  S484  1  0.36145014  0.77804059  0.83408431  1
  S  S485  1  0.36950131  0.39460378  0.87727770  1
  S  S486  1  0.36195245  0.16415969  0.79271648  1
  S  S487  1  0.49134589  0.54558692  0.88726889  1
  S  S488  1  0.49607429  0.14989036  0.94663916  1
  S  S489  1  0.48234848  0.84549594  0.90959840  1
  S  S490  1  0.44877608  0.46855805  0.94902789  1
  S  S491  1  0.52106588  0.06906301  0.00953570  1
  S  S492  1  0.94129371  0.34072031  0.93484613  1
  S  S493  1  0.99115751  0.65693534  0.93832491  1
  S  S494  1  0.03317135  0.25964499  0.99227205  1
  S  S495  1  0.98614587  0.03860071  0.89192084  1
  S  S496  1  0.69716351  0.44480360  0.90324258  1
  S  S497  1  0.73970780  0.06361180  0.95596172  1
  S  S498  1  0.68825186  0.55285053  0.94880721  1
  S  S499  1  0.70734651  0.17961799  0.99813654  1
  S  S500  1  0.69530225  0.94403103  0.89838734  1
  S  S501  1  0.20546578  0.26002651  0.92816485  1
  S  S502  1  0.17924928  0.76725202  0.93064560  1
  S  S503  1  0.19982811  0.37194523  0.97166227  1
  S  S504  1  0.81795030  0.80975678  0.95437770  1
  S  S505  1  0.85415326  0.19002715  0.90996650  1
  S  S506  1  0.37792414  0.63849324  0.97157462  1
  S  S507  1  0.35871467  0.00724900  0.92410015  1
  Cl  Cl508  1  0.99232523  0.19990879  0.12159454  1
  Cl  Cl509  1  0.98523894  0.41733663  0.03591861  1
  Cl  Cl510  1  0.98615276  0.82033396  0.07687156  1
  Cl  Cl511  1  0.39636106  0.25292624  0.01427440  1
  Cl  Cl512  1  0.54870013  0.63804589  0.05095561  1
  Cl  Cl513  1  0.46870590  0.00016200  0.09847066  1
  Cl  Cl514  1  0.96946664  0.34901783  0.24882969  1
  Cl  Cl515  1  0.99420474  0.57785104  0.15611315  1
  Cl  Cl516  1  0.96406563  0.96833218  0.20424941  1
  Cl  Cl517  1  0.53628995  0.39081737  0.14062262  1
  Cl  Cl518  1  0.48571622  0.77461437  0.17978864  1
  Cl  Cl519  1  0.45852613  0.15887776  0.22427514  1
  Cl  Cl520  1  0.01092993  0.50611956  0.37384618  1
  Cl  Cl521  1  0.97124355  0.73856830  0.29076339  1
  Cl  Cl522  1  0.96016531  0.12742381  0.33973524  1
  Cl  Cl523  1  0.46698024  0.55119571  0.26590132  1
  Cl  Cl524  1  0.46137222  0.93479455  0.31215684  1
  Cl  Cl525  1  0.43399883  0.31344795  0.35855855  1
  Cl  Cl526  1  0.99995821  0.89249800  0.41754303  1
  Cl  Cl527  1  0.95098864  0.27873357  0.46836600  1
  Cl  Cl528  1  0.47464539  0.70942983  0.39816958  1
  Cl  Cl529  1  0.48548066  0.09272897  0.44114466  1
  Cl  Cl530  1  0.54698296  0.47581220  0.47417916  1
  Cl  Cl531  1  0.10272384  0.20444501  0.61831927  1
  Cl  Cl532  1  0.13261015  0.97666171  0.53102539  1
  Cl  Cl533  1  0.12156480  0.58252378  0.57519923  1
  Cl  Cl534  1  0.73263815  0.15568744  0.50963777  1
  Cl  Cl535  1  0.58117107  0.77741892  0.55470924  1
  Cl  Cl536  1  0.63536845  0.40029425  0.59761333  1
  Cl  Cl537  1  0.13015513  0.04622576  0.74865156  1
  Cl  Cl538  1  0.11721795  0.82330240  0.65612456  1
  Cl  Cl539  1  0.14054746  0.43237768  0.70526030  1
  Cl  Cl540  1  0.62468207  0.02177071  0.64371532  1
  Cl  Cl541  1  0.62329081  0.62493556  0.68007348  1
  Cl  Cl542  1  0.63742853  0.23994051  0.72485934  1
  Cl  Cl543  1  0.10459237  0.89481905  0.87391278  1
  Cl  Cl544  1  0.13053558  0.65938020  0.79250380  1
  Cl  Cl545  1  0.14982137  0.27315098  0.83989124  1
  Cl  Cl546  1  0.63289784  0.84807675  0.76668371  1
  Cl  Cl547  1  0.63922889  0.46493897  0.81180007  1
  Cl  Cl548  1  0.63438683  0.08147238  0.86309255  1
  Cl  Cl549  1  0.08549562  0.50174307  0.91788119  1
  Cl  Cl550  1  0.15638233  0.10117062  0.97325494  1
  Cl  Cl551  1  0.62506804  0.68859423  0.89717281  1
  Cl  Cl552  1  0.59280353  0.31328800  0.94026566  1
  Cl  Cl553  1  0.55816489  0.92690631  0.97372411  1
