# generated using pymatgen
data_Li128P21S105Cl23
_symmetry_space_group_name_H-M   'P 1'
_cell_length_a   10.60410300
_cell_length_b   24.76865600
_cell_length_c   42.31979996
_cell_angle_alpha   90.00000000
_cell_angle_beta   90.00000000
_cell_angle_gamma   90.00000000
_symmetry_Int_Tables_number   1
_chemical_formula_structural   Li128P21S105Cl23
_chemical_formula_sum   'Li256 P42 S210 Cl46'
_cell_volume   11115.26919552
_cell_formula_units_Z   2
loop_
 _symmetry_equiv_pos_site_id
 _symmetry_equiv_pos_as_xyz
  1  'x, y, z'
loop_
 _atom_site_type_symbol
 _atom_site_label
 _atom_site_symmetry_multiplicity
 _atom_site_fract_x
 _atom_site_fract_y
 _atom_site_fract_z
 _atom_site_occupancy
  Li  Li0  1  0.72784433  0.18561107  0.06906023  1
  Li  Li1  1  0.74995538  0.56798055  0.10896136  1
  Li  Li2  1  0.64483095  0.81224713  0.99689099  1
  Li  Li3  1  0.72876932  0.36635933  0.07819222  1
  Li  Li4  1  0.87086053  0.71677091  0.11251618  1
  Li  Li5  1  0.73396730  0.29632556  0.02909334  1
  Li  Li6  1  0.71307087  0.67273776  0.05211997  1
  Li  Li7  1  0.72115114  0.05538592  0.10304260  1
  Li  Li8  1  0.86128647  0.25680589  0.10575723  1
  Li  Li9  1  0.88751884  0.45889682  0.01992535  1
  Li  Li10  1  0.93714772  0.85779735  0.02682105  1
  Li  Li11  1  0.33982989  0.37852022  0.08935149  1
  Li  Li12  1  0.14343035  0.98343934  0.01225334  1
  Li  Li13  1  0.37038742  0.13693646  0.04078554  1
  Li  Li14  1  0.26745531  0.53611101  0.09570387  1
  Li  Li15  1  0.36354003  0.06956544  0.98568835  1
  Li  Li16  1  0.23082450  0.47452245  0.04191484  1
  Li  Li17  1  0.33489397  0.86831376  0.09378068  1
  Li  Li18  1  0.37251734  0.26390762  0.98876966  1
  Li  Li19  1  0.41984282  0.66959782  0.02821081  1
  Li  Li20  1  0.27413389  0.02954585  0.07906485  1
  Li  Li21  1  0.03686129  0.07999997  0.06540186  1
  Li  Li22  1  0.99676758  0.49131618  0.11081580  1
  Li  Li23  1  0.10370006  0.68409056  0.05098404  1
  Li  Li24  1  0.03272112  0.38596099  0.07705222  1
  Li  Li25  1  0.02106952  0.85321652  0.09684859  1
  Li  Li26  1  0.59349495  0.27640976  0.13364474  1
  Li  Li27  1  0.51990876  0.48853741  0.02674001  1
  Li  Li28  1  0.67820932  0.87201169  0.06923683  1
  Li  Li29  1  0.47038360  0.26240845  0.06361311  1
  Li  Li30  1  0.48360834  0.62183526  0.09623693  1
  Li  Li31  1  0.77657712  0.34059933  0.20866258  1
  Li  Li32  1  0.75971703  0.72232063  0.24853015  1
  Li  Li33  1  0.78662662  0.95517186  0.15931953  1
  Li  Li34  1  0.87725875  0.49314974  0.21029674  1
  Li  Li35  1  0.78727773  0.89786314  0.24763497  1
  Li  Li36  1  0.75434731  0.13180504  0.15536687  1
  Li  Li37  1  0.74298831  0.46262723  0.15735107  1
  Li  Li38  1  0.71227735  0.82596872  0.19611807  1
  Li  Li39  1  0.73883448  0.22577392  0.24532391  1
  Li  Li40  1  0.72297663  0.40941596  0.26269696  1
  Li  Li41  1  0.72878834  0.63373684  0.16366064  1
  Li  Li42  1  0.70873768  0.02788592  0.21250690  1
  Li  Li43  1  0.24568163  0.52414650  0.22407038  1
  Li  Li44  1  0.16786284  0.76074492  0.11161797  1
  Li  Li45  1  0.20211054  0.13379964  0.16460436  1
  Li  Li46  1  0.24348142  0.31478450  0.18624615  1
  Li  Li47  1  0.23236572  0.71057827  0.22853215  1
  Li  Li48  1  0.22760639  0.94440666  0.13425340  1
  Li  Li49  1  0.25425371  0.25685332  0.13083156  1
  Li  Li50  1  0.37506606  0.63572330  0.19190643  1
  Li  Li51  1  0.27476059  0.03272096  0.22400836  1
  Li  Li52  1  0.23694439  0.42630489  0.14653856  1
  Li  Li53  1  0.27955391  0.80869231  0.17791750  1
  Li  Li54  1  0.28810579  0.18872634  0.22525354  1
  Li  Li55  1  0.03199876  0.23787799  0.22247983  1
  Li  Li56  1  0.99295528  0.63592869  0.24975771  1
  Li  Li57  1  0.01757481  0.85282809  0.17207181  1
  Li  Li58  1  0.98031635  0.21241886  0.15922752  1
  Li  Li59  1  0.04814697  0.61252119  0.18133303  1
  Li  Li60  1  0.01118617  0.99648145  0.23616183  1
  Li  Li61  1  0.54969658  0.49672291  0.22438167  1
  Li  Li62  1  0.52777522  0.72475824  0.12757970  1
  Li  Li63  1  0.49377878  0.08596496  0.17374363  1
  Li  Li64  1  0.50832203  0.39386952  0.18873285  1
  Li  Li65  1  0.49325580  0.77244177  0.23335385  1
  Li  Li66  1  0.51644883  0.98296579  0.13984816  1
  Li  Li67  1  0.75901577  0.50000770  0.34093945  1
  Li  Li68  1  0.77295084  0.86606445  0.39129423  1
  Li  Li69  1  0.79734136  0.11130144  0.30237980  1
  Li  Li70  1  0.87452680  0.64775730  0.34748218  1
  Li  Li71  1  0.77829695  0.04980734  0.38178317  1
  Li  Li72  1  0.86046277  0.26593348  0.30247292  1
  Li  Li73  1  0.73697866  0.62020491  0.29254163  1
  Li  Li74  1  0.68809321  0.96954635  0.33218451  1
  Li  Li75  1  0.92671121  0.37152775  0.41198565  1
  Li  Li76  1  0.70397911  0.57807514  0.39844797  1
  Li  Li77  1  0.74246252  0.78572408  0.30263083  1
  Li  Li78  1  0.69595224  0.18747483  0.35319588  1
  Li  Li79  1  0.23910575  0.68187659  0.36813157  1
  Li  Li80  1  0.20407278  0.90880119  0.25547895  1
  Li  Li81  1  0.24536143  0.29286214  0.31122855  1
  Li  Li82  1  0.23769885  0.48043161  0.31782676  1
  Li  Li83  1  0.20482405  0.86806379  0.38215286  1
  Li  Li84  1  0.24640856  0.09000527  0.27744436  1
  Li  Li85  1  0.37616892  0.40589797  0.28157318  1
  Li  Li86  1  0.35740375  0.79999510  0.32761073  1
  Li  Li87  1  0.15996458  0.15378274  0.34715529  1
  Li  Li88  1  0.25470680  0.59343314  0.27700976  1
  Li  Li89  1  0.27939242  0.95836152  0.31761086  1
  Li  Li90  1  0.28290532  0.35718087  0.36439462  1
  Li  Li91  1  0.01063434  0.40762375  0.34292095  1
  Li  Li92  1  0.01931402  0.77478635  0.40020361  1
  Li  Li93  1  0.02044100  0.00912359  0.31030055  1
  Li  Li94  1  0.04983894  0.38549153  0.27317407  1
  Li  Li95  1  0.05763182  0.77263187  0.32486410  1
  Li  Li96  1  0.98504018  0.13960397  0.40093660  1
  Li  Li97  1  0.54644976  0.65937990  0.35904733  1
  Li  Li98  1  0.52639132  0.87282365  0.26760119  1
  Li  Li99  1  0.53152150  0.25714398  0.30833419  1
  Li  Li100  1  0.49552172  0.55857495  0.32227385  1
  Li  Li101  1  0.52567223  0.89893914  0.37372950  1
  Li  Li102  1  0.52884281  0.14349961  0.27756823  1
  Li  Li103  1  0.76000571  0.25658960  0.44034820  1
  Li  Li104  1  0.72155254  0.76094093  0.43441695  1
  Li  Li105  1  0.70525241  0.44574771  0.44554464  1
  Li  Li106  1  0.92151980  0.76699715  0.48731785  1
  Li  Li107  1  0.83569517  0.12861392  0.49000936  1
  Li  Li108  1  0.68734050  0.98023824  0.44486564  1
  Li  Li109  1  0.82534424  0.32675740  0.49467061  1
  Li  Li110  1  0.20047855  0.06032139  0.39197814  1
  Li  Li111  1  0.21364584  0.47475451  0.41112440  1
  Li  Li112  1  0.20442281  0.63660877  0.46245493  1
  Li  Li113  1  0.28246223  0.23948199  0.39103507  1
  Li  Li114  1  0.36983017  0.57422348  0.41162000  1
  Li  Li115  1  0.40515711  0.95882066  0.48115203  1
  Li  Li116  1  0.30798804  0.32027742  0.49562786  1
  Li  Li117  1  0.36545260  0.76112718  0.40684805  1
  Li  Li118  1  0.28268635  0.06452133  0.47719569  1
  Li  Li119  1  0.40335522  0.50292962  0.46759783  1
  Li  Li120  1  0.17889649  0.20326104  0.44885817  1
  Li  Li121  1  0.02904319  0.54839285  0.42268055  1
  Li  Li122  1  0.93707016  0.93896629  0.42188229  1
  Li  Li123  1  0.50770831  0.00062899  0.40005466  1
  Li  Li124  1  0.51131402  0.34934190  0.45251104  1
  Li  Li125  1  0.48132975  0.73610219  0.48326094  1
  Li  Li126  1  0.42688157  0.13083858  0.42050926  1
  Li  Li127  1  0.66977621  0.35151630  0.38589090  1
  Li  Li128  1  0.37222192  0.71390304  0.55990912  1
  Li  Li129  1  0.31739330  0.32639598  0.61838246  1
  Li  Li130  1  0.53242545  0.06801403  0.50896793  1
  Li  Li131  1  0.36009169  0.53430211  0.57646409  1
  Li  Li132  1  0.22757778  0.18291001  0.61356834  1
  Li  Li133  1  0.34917405  0.60198219  0.52646465  1
  Li  Li134  1  0.38331931  0.22644176  0.55359992  1
  Li  Li135  1  0.39925579  0.85681082  0.59798915  1
  Li  Li136  1  0.22177403  0.65352655  0.60848514  1
  Li  Li137  1  0.21222531  0.43407763  0.52296586  1
  Li  Li138  1  0.15895237  0.04804430  0.53638839  1
  Li  Li139  1  0.75476777  0.51919710  0.58882390  1
  Li  Li140  1  0.97969296  0.91262685  0.51864635  1
  Li  Li141  1  0.74941994  0.75401635  0.54229176  1
  Li  Li142  1  0.83312728  0.36038226  0.59606646  1
  Li  Li143  1  0.71220464  0.83212179  0.49995471  1
  Li  Li144  1  0.86739748  0.42492702  0.54183848  1
  Li  Li145  1  0.78439590  0.01923443  0.58925465  1
  Li  Li146  1  0.73211176  0.63889914  0.48757396  1
  Li  Li147  1  0.68025726  0.22900473  0.53126242  1
  Li  Li148  1  0.80322920  0.86855227  0.58251868  1
  Li  Li149  1  0.06005665  0.81654053  0.57524001  1
  Li  Li150  1  0.10070115  0.41132382  0.61135488  1
  Li  Li151  1  0.99307686  0.20972514  0.55047439  1
  Li  Li152  1  0.06209493  0.51238960  0.57595697  1
  Li  Li153  1  0.08297660  0.04665195  0.60353812  1
  Li  Li154  1  0.48850201  0.62075049  0.63077972  1
  Li  Li155  1  0.57211846  0.41070247  0.52759184  1
  Li  Li156  1  0.43737165  0.00896896  0.57289741  1
  Li  Li157  1  0.61014111  0.63077742  0.56224678  1
  Li  Li158  1  0.57770932  0.30353488  0.59864231  1
  Li  Li159  1  0.33456772  0.55924493  0.70654790  1
  Li  Li160  1  0.22861897  0.14813573  0.74698578  1
  Li  Li161  1  0.20999725  0.91438411  0.65470666  1
  Li  Li162  1  0.22388172  0.40765248  0.71111572  1
  Li  Li163  1  0.31623845  0.00504817  0.74409479  1
  Li  Li164  1  0.33694101  0.77230569  0.65230857  1
  Li  Li165  1  0.35346238  0.43864467  0.65749653  1
  Li  Li166  1  0.42139667  0.09233819  0.69415588  1
  Li  Li167  1  0.36045638  0.67625695  0.74219244  1
  Li  Li168  1  0.36410747  0.49886052  0.76176812  1
  Li  Li169  1  0.42731866  0.24030433  0.66731184  1
  Li  Li170  1  0.38704459  0.88239812  0.70879813  1
  Li  Li171  1  0.85655128  0.37410868  0.72414874  1
  Li  Li172  1  0.93249407  0.13794288  0.61506126  1
  Li  Li173  1  0.73179695  0.73071964  0.67303952  1
  Li  Li174  1  0.84765466  0.58406163  0.68525915  1
  Li  Li175  1  0.88893824  0.18867916  0.73703166  1
  Li  Li176  1  0.89069335  0.95730462  0.64600105  1
  Li  Li177  1  0.85608235  0.64062175  0.62876393  1
  Li  Li178  1  0.72503679  0.26088998  0.69285370  1
  Li  Li179  1  0.82240323  0.86076604  0.72673608  1
  Li  Li180  1  0.85970546  0.47360353  0.64607438  1
  Li  Li181  1  0.71227189  0.07537839  0.65934288  1
  Li  Li182  1  0.85574966  0.70995981  0.72934507  1
  Li  Li183  1  0.10394828  0.64526244  0.70078756  1
  Li  Li184  1  0.11102550  0.26722582  0.75029023  1
  Li  Li185  1  0.06708003  0.05153355  0.67659519  1
  Li  Li186  1  0.04447552  0.74347454  0.66002401  1
  Li  Li187  1  0.05702612  0.28722491  0.68244376  1
  Li  Li188  1  0.08877779  0.89940161  0.73497550  1
  Li  Li189  1  0.54910560  0.40253850  0.72629480  1
  Li  Li190  1  0.57571338  0.17863391  0.62060069  1
  Li  Li191  1  0.60414212  0.83235959  0.67190207  1
  Li  Li192  1  0.59529795  0.50503612  0.68873617  1
  Li  Li193  1  0.57420708  0.15203922  0.73850619  1
  Li  Li194  1  0.55453745  0.93179948  0.64067673  1
  Li  Li195  1  0.34538944  0.39837211  0.83831232  1
  Li  Li196  1  0.34223330  0.03728193  0.89271609  1
  Li  Li197  1  0.32438433  0.79305370  0.79846504  1
  Li  Li198  1  0.22841116  0.25171549  0.84894745  1
  Li  Li199  1  0.32027306  0.85281544  0.87824726  1
  Li  Li200  1  0.24336977  0.63611206  0.79877430  1
  Li  Li201  1  0.36264710  0.27591340  0.79201132  1
  Li  Li202  1  0.43400637  0.94080425  0.83163994  1
  Li  Li203  1  0.15520240  0.52428195  0.92059157  1
  Li  Li204  1  0.39526275  0.32340766  0.89800610  1
  Li  Li205  1  0.37048786  0.11849145  0.80299883  1
  Li  Li206  1  0.39835216  0.71493882  0.84977382  1
  Li  Li207  1  0.86721730  0.21779629  0.87098072  1
  Li  Li208  1  0.92376496  0.99222244  0.75416922  1
  Li  Li209  1  0.87147045  0.60666985  0.80961280  1
  Li  Li210  1  0.86611951  0.41915890  0.81908467  1
  Li  Li211  1  0.91221833  0.03199138  0.88635705  1
  Li  Li212  1  0.92318414  0.81290547  0.78827428  1
  Li  Li213  1  0.72608005  0.49334993  0.78190235  1
  Li  Li214  1  0.74506670  0.10022697  0.83161154  1
  Li  Li215  1  0.85477153  0.71457901  0.84835245  1
  Li  Li216  1  0.84352861  0.30692965  0.77786646  1
  Li  Li217  1  0.82638952  0.94506248  0.81694026  1
  Li  Li218  1  0.81995064  0.54527623  0.86356743  1
  Li  Li219  1  0.09049334  0.49627859  0.84441755  1
  Li  Li220  1  0.09363633  0.12432520  0.90364830  1
  Li  Li221  1  0.09740381  0.89963392  0.81044692  1
  Li  Li222  1  0.05284322  0.51415776  0.77323789  1
  Li  Li223  1  0.04756799  0.13009872  0.82780220  1
  Li  Li224  1  0.11233447  0.75875883  0.88670141  1
  Li  Li225  1  0.55581496  0.24228526  0.86069254  1
  Li  Li226  1  0.58233043  0.03536565  0.76682254  1
  Li  Li227  1  0.57613439  0.64234718  0.80953121  1
  Li  Li228  1  0.60900126  0.33897821  0.82205605  1
  Li  Li229  1  0.59375228  0.99642530  0.87856823  1
  Li  Li230  1  0.59474104  0.73998694  0.77049526  1
  Li  Li231  1  0.34055169  0.64219597  0.93949476  1
  Li  Li232  1  0.44147599  0.16374607  0.93287594  1
  Li  Li233  1  0.39473283  0.45235169  0.94618911  1
  Li  Li234  1  0.18642927  0.14523830  0.98851785  1
  Li  Li235  1  0.26613360  0.77113185  0.99186440  1
  Li  Li236  1  0.44462892  0.92415843  0.94604005  1
  Li  Li237  1  0.27374576  0.57210329  0.99500091  1
  Li  Li238  1  0.90310622  0.83863873  0.88842602  1
  Li  Li239  1  0.88299957  0.42390919  0.91078260  1
  Li  Li240  1  0.90810170  0.26764515  0.96938315  1
  Li  Li241  1  0.85084617  0.65473719  0.90117303  1
  Li  Li242  1  0.72989104  0.32402497  0.91328524  1
  Li  Li243  1  0.69942158  0.97995781  0.01874049  1
  Li  Li244  1  0.78727362  0.57332736  0.99768825  1
  Li  Li245  1  0.75020616  0.13910166  0.91163302  1
  Li  Li246  1  0.78539031  0.90395860  0.96238543  1
  Li  Li247  1  0.69270739  0.39487602  0.96765898  1
  Li  Li248  1  0.95047759  0.74323714  0.95191607  1
  Li  Li249  1  0.07132889  0.35320750  0.92382875  1
  Li  Li250  1  0.18465882  0.95738043  0.91730865  1
  Li  Li251  1  0.57474608  0.88096298  0.89451019  1
  Li  Li252  1  0.58723839  0.54847442  0.95156718  1
  Li  Li253  1  0.63154643  0.16115811  0.99141058  1
  Li  Li254  1  0.67702251  0.76500959  0.91766167  1
  Li  Li255  1  0.40893932  0.54187782  0.88609547  1
  P  P256  1  0.45147086  0.14709742  0.11076743  1
  P  P257  1  0.44102152  0.37133605  0.02392918  1
  P  P258  1  0.43739444  0.77294607  0.06492356  1
  P  P259  1  0.98610467  0.57105738  0.04903895  1
  P  P260  1  0.95237334  0.96841153  0.08209502  1
  P  P261  1  0.47137719  0.30922333  0.24686909  1
  P  P262  1  0.47192204  0.53803604  0.15835391  1
  P  P263  1  0.47565580  0.92374962  0.20269347  1
  P  P264  1  0.96335478  0.34650261  0.14236143  1
  P  P265  1  0.96645034  0.73399681  0.18017230  1
  P  P266  1  0.97392573  0.11645963  0.22754050  1
  P  P267  1  0.48147739  0.46424430  0.38520084  1
  P  P268  1  0.45989955  0.69979029  0.29512607  1
  P  P269  1  0.47447148  0.07909698  0.33903318  1
  P  P270  1  0.96987317  0.50935207  0.27648832  1
  P  P271  1  0.97348801  0.88785648  0.31942051  1
  P  P272  1  0.97041864  0.27334463  0.36726436  1
  P  P273  1  0.47075331  0.85758629  0.43860576  1
  P  P274  1  0.44852795  0.22704135  0.46763457  1
  P  P275  1  0.94351793  0.66269358  0.41673101  1
  P  P276  1  0.97961504  0.03799842  0.45845088  1
  P  P277  1  0.63540914  0.74930428  0.60874377  1
  P  P278  1  0.65474824  0.52770184  0.52336898  1
  P  P279  1  0.66249141  0.12206370  0.56464332  1
  P  P280  1  0.10946005  0.32389133  0.54998767  1
  P  P281  1  0.13506614  0.93324078  0.58575560  1
  P  P282  1  0.63315444  0.59097149  0.74701052  1
  P  P283  1  0.62669850  0.35931810  0.65999205  1
  P  P284  1  0.63297090  0.97869847  0.70499700  1
  P  P285  1  0.13556070  0.55347351  0.64123459  1
  P  P286  1  0.14015240  0.16810087  0.68126500  1
  P  P287  1  0.13790520  0.78374588  0.72670242  1
  P  P288  1  0.61955441  0.43500890  0.88478258  1
  P  P289  1  0.65002945  0.20180236  0.79831430  1
  P  P290  1  0.62896013  0.82495426  0.83490765  1
  P  P291  1  0.13168736  0.39112415  0.77674013  1
  P  P292  1  0.14036163  0.01737968  0.82013615  1
  P  P293  1  0.13998190  0.62500933  0.86440943  1
  P  P294  1  0.64720678  0.04253139  0.94371460  1
  P  P295  1  0.66033000  0.66632003  0.96657719  1
  P  P296  1  0.15979140  0.23927736  0.91854045  1
  P  P297  1  0.13076747  0.85826367  0.95348152  1
  S  S298  1  0.56567049  0.11475027  0.07560975  1
  S  S299  1  0.55821138  0.32771047  0.99490591  1
  S  S300  1  0.56455292  0.74474751  0.03301366  1
  S  S301  1  0.52978829  0.41000021  0.06079985  1
  S  S302  1  0.52710928  0.81326181  0.10108430  1
  S  S303  1  0.06174166  0.30427917  0.10816291  1
  S  S304  1  0.07111350  0.52470631  0.01336393  1
  S  S305  1  0.06786239  0.92253957  0.05374811  1
  S  S306  1  0.09789162  0.59857428  0.08435005  1
  S  S307  1  0.33163347  0.19966081  0.08788056  1
  S  S308  1  0.35047987  0.43238267  0.99953437  1
  S  S309  1  0.31108543  0.82094659  0.04288172  1
  S  S310  1  0.30885828  0.31820953  0.04099804  1
  S  S311  1  0.34375124  0.70569951  0.08454161  1
  S  S312  1  0.86067733  0.40631487  0.11981428  1
  S  S313  1  0.91169744  0.63740500  0.02733612  1
  S  S314  1  0.84480901  0.02476061  0.05740221  1
  S  S315  1  0.84957724  0.51900211  0.06657638  1
  S  S316  1  0.83947032  0.91536191  0.10718322  1
  S  S317  1  0.20812715  0.07147413  0.02873196  1
  S  S318  1  0.18878260  0.44834754  0.09422731  1
  S  S319  1  0.67152383  0.27467340  0.08137834  1
  S  S320  1  0.68548889  0.65891781  0.10990036  1
  S  S321  1  0.73901816  0.88948302  0.01731388  1
  S  S322  1  0.58872538  0.27840809  0.21315990  1
  S  S323  1  0.57930387  0.50271374  0.12431387  1
  S  S324  1  0.58508058  0.89180455  0.16761337  1
  S  S325  1  0.54427113  0.18135217  0.14823929  1
  S  S326  1  0.57063860  0.57939180  0.19264678  1
  S  S327  1  0.57712102  0.95888155  0.23859319  1
  S  S328  1  0.06609378  0.46853676  0.24149688  1
  S  S329  1  0.06187461  0.69132830  0.14634326  1
  S  S330  1  0.07220172  0.07071703  0.19560579  1
  S  S331  1  0.07137765  0.37980121  0.17679315  1
  S  S332  1  0.07746844  0.77696290  0.21072345  1
  S  S333  1  0.06559623  0.01399409  0.11115414  1
  S  S334  1  0.34969269  0.36501167  0.22779210  1
  S  S335  1  0.34514379  0.59105462  0.13901410  1
  S  S336  1  0.35695653  0.97969803  0.18185400  1
  S  S337  1  0.37340724  0.47832316  0.18315971  1
  S  S338  1  0.36603512  0.86377789  0.22373225  1
  S  S339  1  0.34260425  0.08568405  0.12905691  1
  S  S340  1  0.84274018  0.55933640  0.25430849  1
  S  S341  1  0.84705996  0.78637564  0.15707072  1
  S  S342  1  0.85986067  0.17282152  0.20456132  1
  S  S343  1  0.83733081  0.29127670  0.16141488  1
  S  S344  1  0.86279313  0.67586334  0.20481478  1
  S  S345  1  0.85718759  0.06470357  0.25235329  1
  S  S346  1  0.18448924  0.22386737  0.18032823  1
  S  S347  1  0.19476395  0.61730364  0.22538644  1
  S  S348  1  0.18361692  0.85032022  0.13439316  1
  S  S349  1  0.70319306  0.43077449  0.20914545  1
  S  S350  1  0.68887296  0.81172136  0.25032499  1
  S  S351  1  0.68592557  0.04109608  0.15770603  1
  S  S352  1  0.60653693  0.43105267  0.35456421  1
  S  S353  1  0.56733400  0.66351403  0.26120633  1
  S  S354  1  0.59249530  0.04851794  0.30534161  1
  S  S355  1  0.56497493  0.34700806  0.28352055  1
  S  S356  1  0.55879143  0.74218138  0.32884971  1
  S  S357  1  0.57870118  0.11119248  0.37560382  1
  S  S358  1  0.05112340  0.62399821  0.38300335  1
  S  S359  1  0.08063155  0.84715161  0.28740989  1
  S  S360  1  0.05648961  0.23681790  0.32927939  1
  S  S361  1  0.07937163  0.55086463  0.30760395  1
  S  S362  1  0.07837492  0.93297958  0.35123834  1
  S  S363  1  0.08688215  0.15885623  0.25829635  1
  S  S364  1  0.35621296  0.51672399  0.36346250  1
  S  S365  1  0.33419848  0.75280124  0.27491126  1
  S  S366  1  0.36242286  0.13720920  0.31811159  1
  S  S367  1  0.35905388  0.64114160  0.31997325  1
  S  S368  1  0.36102034  0.01964374  0.35839706  1
  S  S369  1  0.36721399  0.24776737  0.26744797  1
  S  S370  1  0.82497440  0.71317306  0.39207166  1
  S  S371  1  0.85549614  0.94238761  0.29672358  1
  S  S372  1  0.85165939  0.33250009  0.34960295  1
  S  S373  1  0.87140620  0.44905706  0.30080757  1
  S  S374  1  0.87159755  0.82917097  0.34310851  1
  S  S375  1  0.85693797  0.21855029  0.39102008  1
  S  S376  1  0.20067311  0.38714947  0.31533109  1
  S  S377  1  0.20650121  0.77666043  0.36772711  1
  S  S378  1  0.18860064  0.99875314  0.27160372  1
  S  S379  1  0.69272664  0.58927808  0.34389393  1
  S  S380  1  0.70845541  0.95837735  0.38796019  1
  S  S381  1  0.70247687  0.19798409  0.29793083  1
  S  S382  1  0.57262882  0.81555706  0.40412739  1
  S  S383  1  0.58617569  0.19390594  0.44079009  1
  S  S384  1  0.56616794  0.50989631  0.42075692  1
  S  S385  1  0.58318618  0.89720598  0.47083441  1
  S  S386  1  0.51864719  0.27820475  0.50203396  1
  S  S387  1  0.11766038  0.00210809  0.43174943  1
  S  S388  1  0.05207497  0.70713937  0.44728846  1
  S  S389  1  0.05627544  0.09095954  0.49022421  1
  S  S390  1  0.09679299  0.30750832  0.39764971  1
  S  S391  1  0.36761695  0.91593491  0.41504666  1
  S  S392  1  0.33627248  0.28059744  0.44228112  1
  S  S393  1  0.35118717  0.80470572  0.45926324  1
  S  S394  1  0.33067585  0.16792213  0.48395711  1
  S  S395  1  0.38082277  0.40517625  0.40774532  1
  S  S396  1  0.84780471  0.08479892  0.43449559  1
  S  S397  1  0.84642536  0.60246148  0.44042525  1
  S  S398  1  0.87811110  0.97410079  0.47684270  1
  S  S399  1  0.22315798  0.54524096  0.44842858  1
  S  S400  1  0.20653043  0.15141496  0.40161055  1
  S  S401  1  0.70146607  0.73553034  0.48760675  1
  S  S402  1  0.73830583  0.35273389  0.44061186  1
  S  S403  1  0.53015076  0.78391284  0.57296517  1
  S  S404  1  0.53950982  0.57221909  0.49445666  1
  S  S405  1  0.52964187  0.15440309  0.53575209  1
  S  S406  1  0.56236270  0.49089008  0.56048435  1
  S  S407  1  0.58232342  0.08261624  0.60246129  1
  S  S408  1  0.03816276  0.59380961  0.60625428  1
  S  S409  1  0.02689606  0.37147158  0.51455017  1
  S  S410  1  0.01534713  0.98094644  0.55928211  1
  S  S411  1  0.99400310  0.29436952  0.58384840  1
  S  S412  1  0.74973757  0.69260086  0.58728007  1
  S  S413  1  0.74149093  0.46479139  0.49958801  1
  S  S414  1  0.76017327  0.06893383  0.53688104  1
  S  S415  1  0.78764557  0.57988851  0.54064030  1
  S  S416  1  0.77051647  0.18549637  0.58261824  1
  S  S417  1  0.23895531  0.49331721  0.61909503  1
  S  S418  1  0.18600561  0.25839114  0.52725869  1
  S  S419  1  0.23060733  0.87854755  0.55896344  1
  S  S420  1  0.24587868  0.37385673  0.56940611  1
  S  S421  1  0.25505682  0.98220413  0.61130226  1
  S  S422  1  0.89263231  0.82789604  0.53444388  1
  S  S423  1  0.90690180  0.44949679  0.59404200  1
  S  S424  1  0.40330717  0.62713535  0.57924206  1
  S  S425  1  0.41040463  0.24088691  0.61030495  1
  S  S426  1  0.35627825  0.01642642  0.52182348  1
  S  S427  1  0.51893436  0.62241256  0.71287267  1
  S  S428  1  0.51325552  0.39194651  0.62576152  1
  S  S429  1  0.52999284  0.01574348  0.66991344  1
  S  S430  1  0.53237663  0.71536210  0.64503336  1
  S  S431  1  0.53058306  0.31895351  0.69485579  1
  S  S432  1  0.52089138  0.94493489  0.73901413  1
  S  S433  1  0.03402474  0.43107310  0.74161497  1
  S  S434  1  0.03534875  0.20831039  0.64822358  1
  S  S435  1  0.02842709  0.82641337  0.69537679  1
  S  S436  1  0.02616583  0.52126123  0.67583600  1
  S  S437  1  0.03903575  0.12648977  0.71500746  1
  S  S438  1  0.02318900  0.89052860  0.61776277  1
  S  S439  1  0.75325057  0.53425862  0.72826396  1
  S  S440  1  0.74720712  0.30537067  0.63917118  1
  S  S441  1  0.73559379  0.91747602  0.68272830  1
  S  S442  1  0.72724926  0.41988385  0.68324488  1
  S  S443  1  0.74958478  0.03532935  0.72466738  1
  S  S444  1  0.75138006  0.80484164  0.62980077  1
  S  S445  1  0.26072234  0.34153667  0.75476374  1
  S  S446  1  0.24984508  0.11288443  0.65759443  1
  S  S447  1  0.24079559  0.72777118  0.70076521  1
  S  S448  1  0.25994352  0.60855455  0.66099603  1
  S  S449  1  0.24798647  0.22453908  0.70517021  1
  S  S450  1  0.25806151  0.83728938  0.74894873  1
  S  S451  1  0.90657189  0.67436066  0.67919015  1
  S  S452  1  0.90633570  0.28040582  0.72622519  1
  S  S453  1  0.90621589  0.04938757  0.63650709  1
  S  S454  1  0.39985735  0.46892246  0.70917501  1
  S  S455  1  0.40729988  0.09214004  0.75004825  1
  S  S456  1  0.40324202  0.86306318  0.65480085  1
  S  S457  1  0.49411863  0.46706576  0.85385305  1
  S  S458  1  0.54973964  0.24128552  0.76459140  1
  S  S459  1  0.51012087  0.85963931  0.80365863  1
  S  S460  1  0.53956259  0.55393373  0.78390352  1
  S  S461  1  0.54652799  0.15982134  0.83143785  1
  S  S462  1  0.52702879  0.78915444  0.87122145  1
  S  S463  1  0.05221748  0.27651390  0.88429100  1
  S  S464  1  0.02882992  0.05783616  0.78870222  1
  S  S465  1  0.05123494  0.66486536  0.82800885  1
  S  S466  1  0.02311025  0.34892002  0.80771971  1
  S  S467  1  0.03545509  0.97098016  0.85144458  1
  S  S468  1  0.03632126  0.74252455  0.75995143  1
  S  S469  1  0.74527573  0.38152687  0.86397387  1
  S  S470  1  0.76239316  0.14488678  0.77687856  1
  S  S471  1  0.74110147  0.76957288  0.81154861  1
  S  S472  1  0.75507320  0.25836533  0.82351084  1
  S  S473  1  0.74276709  0.88214546  0.85686314  1
  S  S474  1  0.73938035  0.65233819  0.76755063  1
  S  S475  1  0.28024764  0.18829126  0.89461479  1
  S  S476  1  0.25951029  0.96485425  0.79664380  1
  S  S477  1  0.25899172  0.56866583  0.84461588  1
  S  S478  1  0.22791045  0.45194290  0.80088087  1
  S  S479  1  0.23997582  0.07598694  0.84444620  1
  S  S480  1  0.24831733  0.67979684  0.88930926  1
  S  S481  1  0.90094775  0.51239473  0.81525142  1
  S  S482  1  0.90185850  0.12355224  0.87112546  1
  S  S483  1  0.92246638  0.90262595  0.77211563  1
  S  S484  1  0.40931692  0.30924934  0.84349042  1
  S  S485  1  0.40182573  0.94279537  0.88862515  1
  S  S486  1  0.40724287  0.70250574  0.79493450  1
  S  S487  1  0.54569960  0.08338793  0.90864885  1
  S  S488  1  0.52800485  0.69764797  0.93715307  1
  S  S489  1  0.53491205  0.38985608  0.92066245  1
  S  S490  1  0.53358887  0.00460093  0.97643392  1
  S  S491  1  0.58039176  0.61885098  0.00173613  1
  S  S492  1  0.99477258  0.89803217  0.92750907  1
  S  S493  1  0.05030530  0.19554324  0.94936720  1
  S  S494  1  0.05128599  0.80837886  0.98677889  1
  S  S495  1  0.01546997  0.58685774  0.89410168  1
  S  S496  1  0.74995373  0.98399485  0.92022622  1
  S  S497  1  0.77184656  0.60927559  0.94481233  1
  S  S498  1  0.76450565  0.09631152  0.96458178  1
  S  S499  1  0.77132520  0.72764282  0.98351229  1
  S  S500  1  0.71857341  0.49526352  0.90650886  1
  S  S501  1  0.24654308  0.80823594  0.92796150  1
  S  S502  1  0.25660925  0.30009895  0.94153859  1
  S  S503  1  0.23953530  0.91849605  0.97322990  1
  S  S504  1  0.87715316  0.35510803  0.94942495  1
  S  S505  1  0.89383763  0.74785956  0.89890843  1
  S  S506  1  0.41047812  0.16825666  0.98766640  1
  S  S507  1  0.35607254  0.54483196  0.94108033  1
  Cl  Cl508  1  0.89325257  0.16186098  0.11135129  1
  Cl  Cl509  1  0.88558731  0.36934198  0.03654374  1
  Cl  Cl510  1  0.98970555  0.76521207  0.07273909  1
  Cl  Cl511  1  0.80314350  0.21214941  0.01097465  1
  Cl  Cl512  1  0.39227485  0.55794162  0.04900441  1
  Cl  Cl513  1  0.40631522  0.95774872  0.09369863  1
  Cl  Cl514  1  0.91747390  0.30782740  0.25241690  1
  Cl  Cl515  1  0.90435373  0.54087922  0.15877060  1
  Cl  Cl516  1  0.91928687  0.92521913  0.20367012  1
  Cl  Cl517  1  0.39835577  0.33704889  0.14053602  1
  Cl  Cl518  1  0.42153833  0.73082550  0.18401646  1
  Cl  Cl519  1  0.41656575  0.10955575  0.22866831  1
  Cl  Cl520  1  0.99618476  0.45847284  0.39462524  1
  Cl  Cl521  1  0.90003753  0.69559518  0.29556730  1
  Cl  Cl522  1  0.95032062  0.08402596  0.34507164  1
  Cl  Cl523  1  0.40781923  0.50618013  0.27412892  1
  Cl  Cl524  1  0.44874277  0.88980117  0.32076446  1
  Cl  Cl525  1  0.41267519  0.27999360  0.35367992  1
  Cl  Cl526  1  0.91939203  0.84364009  0.43147770  1
  Cl  Cl527  1  0.85717825  0.22725073  0.49587441  1
  Cl  Cl528  1  0.42039058  0.66641423  0.40586468  1
  Cl  Cl529  1  0.49692147  0.04305569  0.44912323  1
  Cl  Cl530  1  0.39653439  0.41207570  0.49172504  1
  Cl  Cl531  1  0.17350627  0.74723677  0.61101957  1
  Cl  Cl532  1  0.20716935  0.52507884  0.53478890  1
  Cl  Cl533  1  0.10875418  0.13048232  0.57465764  1
  Cl  Cl534  1  0.30905649  0.68823624  0.50503491  1
  Cl  Cl535  1  0.69750147  0.34111116  0.55068149  1
  Cl  Cl536  1  0.64785647  0.93874175  0.59018912  1
  Cl  Cl537  1  0.19404044  0.58807615  0.74989753  1
  Cl  Cl538  1  0.17713754  0.36405962  0.65990748  1
  Cl  Cl539  1  0.15929321  0.97227459  0.70348437  1
  Cl  Cl540  1  0.69533064  0.55947034  0.64005002  1
  Cl  Cl541  1  0.60996100  0.16992182  0.68061818  1
  Cl  Cl542  1  0.68334065  0.78122470  0.72042539  1
  Cl  Cl543  1  0.10218866  0.44098051  0.89633858  1
  Cl  Cl544  1  0.18733676  0.20466559  0.79593010  1
  Cl  Cl545  1  0.16665222  0.82048889  0.84022634  1
  Cl  Cl546  1  0.69490652  0.39244678  0.77469133  1
  Cl  Cl547  1  0.64906550  0.01161054  0.82287300  1
  Cl  Cl548  1  0.72198332  0.63229929  0.85354217  1
  Cl  Cl549  1  0.18719720  0.05123339  0.93221919  1
  Cl  Cl550  1  0.24171009  0.67195814  0.99525647  1
  Cl  Cl551  1  0.66832470  0.23146133  0.90905963  1
  Cl  Cl552  1  0.60741783  0.85074955  0.94468633  1
  Cl  Cl553  1  0.69620022  0.48310775  0.99129430  1
