# generated using pymatgen
data_Li132P21S107Cl23
_symmetry_space_group_name_H-M   'P 1'
_cell_length_a   10.60410300
_cell_length_b   25.21121900
_cell_length_c   43.58148418
_cell_angle_alpha   90.00000000
_cell_angle_beta   90.00000000
_cell_angle_gamma   90.00000000
_symmetry_Int_Tables_number   1
_chemical_formula_structural   Li132P21S107Cl23
_chemical_formula_sum   'Li264 P42 S214 Cl46'
_cell_volume   11651.17696595
_cell_formula_units_Z   2
loop_
 _symmetry_equiv_pos_site_id
 _symmetry_equiv_pos_as_xyz
  1  'x, y, z'
loop_
 _atom_site_type_symbol
 _atom_site_label
 _atom_site_symmetry_multiplicity
 _atom_site_fract_x
 _atom_site_fract_y
 _atom_site_fract_z
 _atom_site_occupancy
  Li  Li0  1  0.71928058  0.26037984  0.03604319  1
  Li  Li1  1  0.76121518  0.92191497  0.08126655  1
  Li  Li2  1  0.81215601  0.52167721  0.13445871  1
  Li  Li3  1  0.78379076  0.66678011  0.06778222  1
  Li  Li4  1  0.73135997  0.19042740  0.09207581  1
  Li  Li5  1  0.79961004  0.55940735  0.04073987  1
  Li  Li6  1  0.71148358  0.04827912  0.08612128  1
  Li  Li7  1  0.80452664  0.64651984  0.98985018  1
  Li  Li8  1  0.81692504  0.35713231  0.06756836  1
  Li  Li9  1  0.91762492  0.14967255  0.01513814  1
  Li  Li10  1  0.43928218  0.72234200  0.05669869  1
  Li  Li11  1  0.19528644  0.35135121  0.02752477  1
  Li  Li12  1  0.41160244  0.84821657  0.05043276  1
  Li  Li13  1  0.28016753  0.47012468  0.09883531  1
  Li  Li14  1  0.31333992  0.00907842  0.10684094  1
  Li  Li15  1  0.22867786  0.80146827  0.01253426  1
  Li  Li16  1  0.44619458  0.39004447  0.10131799  1
  Li  Li17  1  0.41055589  0.11906446  0.06134399  1
  Li  Li18  1  0.35824935  0.96521447  0.99999528  1
  Li  Li19  1  0.13331060  0.49937417  0.01392664  1
  Li  Li20  1  0.95725100  0.22351500  0.12785813  1
  Li  Li21  1  0.09065347  0.81047808  0.09842449  1
  Li  Li22  1  0.97557970  0.59021520  0.08442295  1
  Li  Li23  1  0.09826910  0.71921864  0.04553591  1
  Li  Li24  1  0.03714782  0.39018449  0.11738580  1
  Li  Li25  1  0.61124634  0.04919994  0.01400007  1
  Li  Li26  1  0.51905458  0.60552664  0.09262064  1
  Li  Li27  1  0.48494717  0.38018395  0.02674956  1
  Li  Li28  1  0.51651657  0.98685489  0.05805523  1
  Li  Li29  1  0.63388836  0.49094824  0.08621741  1
  Li  Li30  1  0.87934750  0.12955275  0.16203970  1
  Li  Li31  1  0.82442536  0.73888162  0.19898523  1
  Li  Li32  1  0.90836997  0.36573615  0.24669055  1
  Li  Li33  1  0.82788147  0.89729081  0.15699790  1
  Li  Li34  1  0.92295314  0.48659910  0.21641155  1
  Li  Li35  1  0.74046697  0.28667001  0.12450324  1
  Li  Li36  1  0.79572265  0.03649748  0.21780380  1
  Li  Li37  1  0.79035963  0.80754148  0.12147824  1
  Li  Li38  1  0.74611445  0.40805670  0.17858297  1
  Li  Li39  1  0.74566376  0.84172975  0.22665011  1
  Li  Li40  1  0.69331484  0.63188918  0.14099795  1
  Li  Li41  1  0.70761285  0.23577445  0.19605257  1
  Li  Li42  1  0.26221027  0.91567076  0.16632695  1
  Li  Li43  1  0.20946382  0.53496425  0.20890465  1
  Li  Li44  1  0.25993294  0.29788682  0.12159876  1
  Li  Li45  1  0.27122303  0.09826655  0.14606585  1
  Li  Li46  1  0.21428797  0.71969165  0.19853126  1
  Li  Li47  1  0.24929413  0.33287945  0.24794777  1
  Li  Li48  1  0.34123384  0.85488105  0.23888539  1
  Li  Li49  1  0.32925331  0.63013316  0.15342225  1
  Li  Li50  1  0.30385700  0.24149101  0.20128750  1
  Li  Li51  1  0.41122346  0.01063950  0.19637227  1
  Li  Li52  1  0.32318365  0.76145918  0.11666008  1
  Li  Li53  1  0.41623902  0.38620982  0.16705342  1
  Li  Li54  1  0.09537531  0.03647528  0.19803611  1
  Li  Li55  1  0.06571042  0.64575669  0.23989201  1
  Li  Li56  1  0.17433497  0.43716938  0.17122107  1
  Li  Li57  1  0.04174067  0.98583130  0.13236573  1
  Li  Li58  1  0.05828745  0.60332674  0.16936790  1
  Li  Li59  1  0.04146898  0.20363096  0.23452094  1
  Li  Li60  1  0.56744086  0.88027066  0.17790650  1
  Li  Li61  1  0.59541951  0.49936249  0.22580935  1
  Li  Li62  1  0.51750133  0.23490011  0.14593553  1
  Li  Li63  1  0.59238251  0.12337274  0.14407524  1
  Li  Li64  1  0.54992665  0.76690028  0.16762358  1
  Li  Li65  1  0.58943558  0.36185057  0.23456581  1
  Li  Li66  1  0.91605032  0.98328849  0.27972091  1
  Li  Li67  1  0.95392691  0.63436692  0.32324302  1
  Li  Li68  1  0.77502587  0.18675650  0.38121305  1
  Li  Li69  1  0.83337462  0.74009115  0.28327818  1
  Li  Li70  1  0.80337033  0.36371542  0.34589655  1
  Li  Li71  1  0.80328784  0.12713449  0.25478172  1
  Li  Li72  1  0.77745297  0.88246605  0.34648379  1
  Li  Li73  1  0.70916584  0.62497787  0.26042096  1
  Li  Li74  1  0.80411873  0.27273142  0.31046347  1
  Li  Li75  1  0.72602592  0.69653792  0.35953695  1
  Li  Li76  1  0.74584680  0.45647018  0.28179676  1
  Li  Li77  1  0.77071157  0.04651233  0.32306221  1
  Li  Li78  1  0.25639698  0.75899981  0.29552614  1
  Li  Li79  1  0.26839585  0.37594668  0.35948005  1
  Li  Li80  1  0.27504883  0.15275209  0.27275865  1
  Li  Li81  1  0.26980556  0.94225172  0.27879839  1
  Li  Li82  1  0.20377456  0.55234494  0.33799610  1
  Li  Li83  1  0.25833217  0.17174032  0.37831089  1
  Li  Li84  1  0.42033606  0.70379238  0.38201039  1
  Li  Li85  1  0.42271721  0.46614458  0.30937393  1
  Li  Li86  1  0.32816610  0.08460148  0.33490676  1
  Li  Li87  1  0.34177505  0.84644005  0.33719456  1
  Li  Li88  1  0.35571299  0.61421017  0.24924613  1
  Li  Li89  1  0.45825584  0.23094258  0.26963898  1
  Li  Li90  1  0.07255186  0.87587034  0.32270760  1
  Li  Li91  1  0.99362105  0.51591741  0.40843065  1
  Li  Li92  1  0.09689730  0.26407909  0.29381880  1
  Li  Li93  1  0.06685650  0.82632597  0.25601391  1
  Li  Li94  1  0.05063006  0.44770213  0.32795362  1
  Li  Li95  1  0.06047918  0.05027606  0.34854795  1
  Li  Li96  1  0.57832705  0.73204623  0.30753110  1
  Li  Li97  1  0.53502825  0.32151165  0.38024981  1
  Li  Li98  1  0.53990430  0.08336124  0.27950059  1
  Li  Li99  1  0.59353107  0.96926213  0.26747663  1
  Li  Li100  1  0.58339028  0.60064365  0.31645743  1
  Li  Li101  1  0.53718345  0.23283628  0.34453126  1
  Li  Li102  1  0.82940015  0.81496841  0.41527196  1
  Li  Li103  1  0.79148958  0.59020440  0.39560301  1
  Li  Li104  1  0.54615146  0.12265447  0.54325559  1
  Li  Li105  1  0.82530098  0.97606912  0.38283253  1
  Li  Li106  1  0.84090605  0.80599887  0.49572739  1
  Li  Li107  1  0.72763945  0.47857305  0.39850242  1
  Li  Li108  1  0.81082569  0.17656702  0.53459630  1
  Li  Li109  1  0.77525141  0.28493786  0.41962117  1
  Li  Li110  1  0.76254516  0.92948930  0.44919789  1
  Li  Li111  1  0.30099669  0.61144110  0.45194526  1
  Li  Li112  1  0.26490594  0.99311639  0.39798596  1
  Li  Li113  1  0.23389283  0.79233189  0.42186911  1
  Li  Li114  1  0.50232196  0.39444893  0.46562548  1
  Li  Li115  1  0.54862795  0.09505089  0.45735053  1
  Li  Li116  1  0.45440506  0.55468987  0.51011804  1
  Li  Li117  1  0.24330784  0.36523057  0.44057168  1
  Li  Li118  1  0.32556433  0.94437800  0.46359682  1
  Li  Li119  1  0.46132103  0.70402966  0.44840869  1
  Li  Li120  1  0.30486733  0.46938806  0.39607538  1
  Li  Li121  1  0.28001735  0.08461601  0.43467708  1
  Li  Li122  1  0.04930143  0.71626741  0.43016563  1
  Li  Li123  1  0.01745511  0.11501252  0.40380774  1
  Li  Li124  1  0.18245681  0.65673762  0.37686488  1
  Li  Li125  1  0.96943725  0.26234188  0.37722749  1
  Li  Li126  1  0.04177690  0.88198058  0.47598293  1
  Li  Li127  1  0.59921653  0.54282378  0.45442252  1
  Li  Li128  1  0.55355825  0.95611198  0.40271754  1
  Li  Li129  1  0.55424772  0.84021136  0.39311944  1
  Li  Li130  1  0.77756932  0.45249550  0.46514826  1
  Li  Li131  1  0.74919852  0.17430426  0.45383506  1
  Li  Li132  1  0.96667206  0.94509214  0.53409497  1
  Li  Li133  1  0.95440590  0.28490443  0.57846498  1
  Li  Li134  1  0.88182206  0.69045517  0.63309863  1
  Li  Li135  1  0.90393567  0.53820879  0.57070748  1
  Li  Li136  1  0.96552687  0.01422226  0.59204139  1
  Li  Li137  1  0.90056591  0.64273763  0.54084871  1
  Li  Li138  1  0.01567381  0.16657330  0.59006603  1
  Li  Li139  1  0.87872462  0.55832376  0.48906487  1
  Li  Li140  1  0.84993098  0.85493591  0.56611675  1
  Li  Li141  1  0.79899242  0.06258804  0.51396394  1
  Li  Li142  1  0.24918240  0.49074732  0.57077781  1
  Li  Li143  1  0.51195732  0.85018936  0.52229039  1
  Li  Li144  1  0.30061369  0.36400746  0.55129041  1
  Li  Li145  1  0.39612981  0.72539722  0.60613959  1
  Li  Li146  1  0.40043148  0.19072605  0.59646215  1
  Li  Li147  1  0.38418806  0.44780515  0.51203137  1
  Li  Li148  1  0.39401779  0.82010303  0.57868144  1
  Li  Li149  1  0.27286558  0.07792114  0.56412559  1
  Li  Li150  1  0.48400450  0.18580755  0.49798325  1
  Li  Li151  1  0.55094648  0.69785624  0.51687425  1
  Li  Li152  1  0.73364289  0.99573237  0.62877469  1
  Li  Li153  1  0.60108919  0.39622983  0.59992046  1
  Li  Li154  1  0.71548006  0.61446133  0.58686857  1
  Li  Li155  1  0.61740999  0.47603876  0.54578789  1
  Li  Li156  1  0.66196103  0.80181507  0.62038582  1
  Li  Li157  1  0.12874160  0.15411339  0.51487826  1
  Li  Li158  1  0.16631781  0.59734384  0.59602268  1
  Li  Li159  1  0.14632021  0.82778225  0.54940677  1
  Li  Li160  1  0.21855952  0.22911875  0.54978225  1
  Li  Li161  1  0.06783377  0.71153425  0.58920389  1
  Li  Li162  1  0.88748832  0.07929858  0.67152494  1
  Li  Li163  1  0.87689149  0.46037494  0.70046111  1
  Li  Li164  1  0.78929366  0.83629307  0.74542309  1
  Li  Li165  1  0.87709709  0.30435252  0.65719117  1
  Li  Li166  1  0.86151806  0.69731798  0.70856136  1
  Li  Li167  1  0.93149224  0.91939273  0.62421038  1
  Li  Li168  1  0.90436785  0.16500038  0.72251387  1
  Li  Li169  1  0.90917926  0.39601434  0.62371315  1
  Li  Li170  1  0.93828768  0.79556832  0.67955625  1
  Li  Li171  1  0.94438755  0.35715307  0.72945111  1
  Li  Li172  1  0.98039477  0.57819829  0.64394994  1
  Li  Li173  1  0.00828806  0.96436671  0.69595873  1
  Li  Li174  1  0.44456608  0.28705377  0.66229951  1
  Li  Li175  1  0.43011309  0.66156087  0.71715828  1
  Li  Li176  1  0.47820763  0.89893081  0.63151605  1
  Li  Li177  1  0.41518890  0.10780590  0.64293467  1
  Li  Li178  1  0.47328179  0.47979313  0.70013225  1
  Li  Li179  1  0.44320978  0.86899470  0.74681401  1
  Li  Li180  1  0.36253041  0.33854097  0.74005794  1
  Li  Li181  1  0.37362109  0.56989293  0.65581433  1
  Li  Li182  1  0.38811835  0.96233110  0.70350831  1
  Li  Li183  1  0.37363310  0.19673975  0.70539640  1
  Li  Li184  1  0.37167690  0.44152500  0.61997922  1
  Li  Li185  1  0.23650979  0.82881421  0.64540243  1
  Li  Li186  1  0.63684342  0.16338325  0.68890315  1
  Li  Li187  1  0.62983069  0.55028493  0.74143349  1
  Li  Li188  1  0.51039152  0.76563047  0.67595368  1
  Li  Li189  1  0.67064183  0.22345707  0.63070522  1
  Li  Li190  1  0.64516535  0.60494557  0.67745348  1
  Li  Li191  1  0.66058762  0.99438027  0.73462907  1
  Li  Li192  1  0.13394959  0.31658721  0.67920473  1
  Li  Li193  1  0.14611318  0.72680271  0.73933250  1
  Li  Li194  1  0.18305220  0.96165664  0.64448485  1
  Li  Li195  1  0.12149966  0.07355713  0.64566378  1
  Li  Li196  1  0.14852585  0.43416853  0.67084260  1
  Li  Li197  1  0.11007279  0.84431220  0.73151633  1
  Li  Li198  1  0.87908600  0.23251758  0.79142306  1
  Li  Li199  1  0.77897039  0.59345074  0.82201986  1
  Li  Li200  1  0.90463442  0.00981330  0.88728440  1
  Li  Li201  1  0.86113695  0.45969684  0.78601574  1
  Li  Li202  1  0.88639253  0.83743394  0.84599490  1
  Li  Li203  1  0.89945653  0.06970494  0.75592920  1
  Li  Li204  1  0.91767674  0.31648095  0.84768024  1
  Li  Li205  1  0.96516337  0.56768678  0.75786672  1
  Li  Li206  1  0.90196613  0.92749825  0.81071446  1
  Li  Li207  1  0.94932460  0.51397071  0.85999615  1
  Li  Li208  1  0.92839874  0.75925253  0.78347149  1
  Li  Li209  1  0.93830696  0.13632522  0.82456114  1
  Li  Li210  1  0.40930721  0.43039497  0.80394114  1
  Li  Li211  1  0.43850043  0.82146077  0.85292163  1
  Li  Li212  1  0.42533985  0.04865834  0.77196158  1
  Li  Li213  1  0.43584551  0.25038497  0.78179148  1
  Li  Li214  1  0.48647165  0.64255443  0.83994179  1
  Li  Li215  1  0.44197095  0.02058678  0.88358784  1
  Li  Li216  1  0.36649217  0.50108987  0.86949014  1
  Li  Li217  1  0.37753837  0.72300663  0.79013603  1
  Li  Li218  1  0.37982681  0.10909321  0.83868350  1
  Li  Li219  1  0.39492055  0.34228246  0.84172646  1
  Li  Li220  1  0.35212160  0.57887746  0.75456030  1
  Li  Li221  1  0.26718949  0.95834031  0.78408315  1
  Li  Li222  1  0.65935694  0.31406078  0.80935420  1
  Li  Li223  1  0.70358105  0.68655521  0.90994201  1
  Li  Li224  1  0.60830957  0.93413488  0.79399731  1
  Li  Li225  1  0.62173145  0.37637319  0.75489590  1
  Li  Li226  1  0.65919220  0.74829981  0.83185146  1
  Li  Li227  1  0.64175993  0.14535374  0.85595369  1
  Li  Li228  1  0.11835626  0.46936319  0.81104607  1
  Li  Li229  1  0.15497358  0.87151442  0.87243437  1
  Li  Li230  1  0.16470721  0.10833155  0.78154115  1
  Li  Li231  1  0.13849769  0.21822080  0.76682699  1
  Li  Li232  1  0.11545205  0.60617701  0.81383262  1
  Li  Li233  1  0.14166133  0.98421571  0.85779589  1
  Li  Li234  1  0.91085861  0.38978480  0.91330030  1
  Li  Li235  1  0.90433703  0.61350659  0.89904313  1
  Li  Li236  1  0.20544403  0.06195397  0.00200743  1
  Li  Li237  1  0.87856751  0.22400207  0.88265728  1
  Li  Li238  1  0.85943676  0.38766801  0.00075077  1
  Li  Li239  1  0.97401985  0.72204005  0.89967831  1
  Li  Li240  1  0.91804604  0.03655063  0.03791093  1
  Li  Li241  1  0.92842605  0.90010860  0.91826026  1
  Li  Li242  1  0.90529861  0.29319751  0.94926509  1
  Li  Li243  1  0.48439968  0.56273997  0.95999615  1
  Li  Li244  1  0.41380788  0.19987576  0.90279396  1
  Li  Li245  1  0.37071832  0.41398642  0.90863458  1
  Li  Li246  1  0.28233136  0.73954722  0.95198181  1
  Li  Li247  1  0.01234698  0.11397806  0.94358305  1
  Li  Li248  1  0.25460249  0.64792478  0.00321139  1
  Li  Li249  1  0.38723350  0.86960225  0.92887813  1
  Li  Li250  1  0.37001129  0.25177933  0.97310908  1
  Li  Li251  1  0.23439075  0.51387004  0.93794353  1
  Li  Li252  1  0.38527602  0.72915890  0.89022998  1
  Li  Li253  1  0.39178297  0.11085472  0.93953688  1
  Li  Li254  1  0.62255578  0.43267940  0.92452078  1
  Li  Li255  1  0.65892342  0.08426869  0.91886715  1
  Li  Li256  1  0.61130557  0.52848531  0.88602792  1
  Li  Li257  1  0.72171013  0.93552695  0.87907168  1
  Li  Li258  1  0.65816101  0.30766174  0.97932760  1
  Li  Li259  1  0.08822554  0.64889283  0.95540619  1
  Li  Li260  1  0.13739908  0.23932551  0.90743584  1
  Li  Li261  1  0.16576073  0.34719588  0.89384982  1
  Li  Li262  1  0.93196714  0.75193565  0.96571019  1
  Li  Li263  1  0.91186710  0.00444999  0.96557194  1
  P  P264  1  0.43575061  0.24973849  0.06943885  1
  P  P265  1  0.50752498  0.88703026  0.11165638  1
  P  P266  1  0.53584270  0.64154086  0.01300568  1
  P  P267  1  0.97691282  0.08680686  0.10156586  1
  P  P268  1  0.97338679  0.45499760  0.06246088  1
  P  P269  1  0.49971788  0.12461026  0.20975112  1
  P  P270  1  0.52067374  0.73611133  0.24128054  1
  P  P271  1  0.50253625  0.50524560  0.15925241  1
  P  P272  1  0.01776516  0.92810351  0.22366968  1
  P  P273  1  0.01608804  0.70073297  0.13073302  1
  P  P274  1  0.00420947  0.31252029  0.18660165  1
  P  P275  1  0.50854651  0.96657139  0.33542683  1
  P  P276  1  0.50737231  0.58671122  0.38199336  1
  P  P277  1  0.51414719  0.35302843  0.29967941  1
  P  P278  1  0.01605820  0.77172252  0.35331383  1
  P  P279  1  0.00970973  0.54227629  0.27099005  1
  P  P280  1  0.00660906  0.15644904  0.31976699  1
  P  P281  1  0.52684154  0.81922843  0.46095594  1
  P  P282  1  0.49650430  0.20186285  0.42555222  1
  P  P283  1  0.99385085  0.39553220  0.41000570  1
  P  P284  1  0.00194548  0.01639975  0.45516995  1
  P  P285  1  0.24108085  0.93644036  0.57794459  1
  P  P286  1  0.19593530  0.31682214  0.61155664  1
  P  P287  1  0.16027016  0.55729069  0.51865916  1
  P  P288  1  0.73343850  0.12126351  0.59776108  1
  P  P289  1  0.71343064  0.74816952  0.56234364  1
  P  P290  1  0.19388740  0.07726505  0.71099545  1
  P  P291  1  0.17635840  0.45992596  0.74432897  1
  P  P292  1  0.17722863  0.69305938  0.66430615  1
  P  P293  1  0.67491448  0.26944331  0.72463587  1
  P  P294  1  0.67777482  0.50365774  0.63438840  1
  P  P295  1  0.70024481  0.89233456  0.68799899  1
  P  P296  1  0.18260672  0.22816628  0.83760342  1
  P  P297  1  0.17607950  0.61479356  0.88035468  1
  P  P298  1  0.17989067  0.84482463  0.79895575  1
  P  P299  1  0.67551212  0.42423069  0.85504549  1
  P  P300  1  0.67540470  0.65829012  0.76977711  1
  P  P301  1  0.68744290  0.04058080  0.82188531  1
  P  P302  1  0.19253578  0.37947096  0.96325723  1
  P  P303  1  0.18975191  0.99008343  0.92803990  1
  P  P304  1  0.68351053  0.80436150  0.91165997  1
  P  P305  1  0.69622648  0.18497108  0.95529232  1
  S  S306  1  0.56536459  0.19512414  0.05385269  1
  S  S307  1  0.61238774  0.83679621  0.08465435  1
  S  S308  1  0.64312146  0.57551563  0.00275884  1
  S  S309  1  0.64430043  0.70441483  0.02740948  1
  S  S310  1  0.51801883  0.29979921  0.10290064  1
  S  S311  1  0.09349174  0.03451886  0.08030023  1
  S  S312  1  0.12544365  0.63860691  0.11593998  1
  S  S313  1  0.04261097  0.37944588  0.06232265  1
  S  S314  1  0.07222343  0.14115455  0.12803205  1
  S  S315  1  0.10603457  0.51156949  0.07277540  1
  S  S316  1  0.37255543  0.29162077  0.03159408  1
  S  S317  1  0.38006956  0.92514766  0.08352755  1
  S  S318  1  0.44513101  0.65616379  0.97255468  1
  S  S319  1  0.29340201  0.21209502  0.09152387  1
  S  S320  1  0.39434246  0.04384173  0.02867641  1
  S  S321  1  0.39992603  0.62814190  0.04647832  1
  S  S322  1  0.86159725  0.12288170  0.06922093  1
  S  S323  1  0.91905512  0.73614430  0.09464194  1
  S  S324  1  0.90202887  0.47756240  0.02082452  1
  S  S325  1  0.83750566  0.44599555  0.09645089  1
  S  S326  1  0.26282980  0.77925093  0.06522805  1
  S  S327  1  0.25448166  0.39139676  0.12931787  1
  S  S328  1  0.68940784  0.34854067  0.02616171  1
  S  S329  1  0.72779394  0.98898027  0.04483474  1
  S  S330  1  0.73889378  0.58269601  0.09391947  1
  S  S331  1  0.60658829  0.06781483  0.18823807  1
  S  S332  1  0.62888863  0.68316159  0.21768557  1
  S  S333  1  0.59120335  0.43959670  0.13949891  1
  S  S334  1  0.62078958  0.94026701  0.13372242  1
  S  S335  1  0.64217637  0.55185150  0.17699254  1
  S  S336  1  0.60613499  0.17751663  0.23476505  1
  S  S337  1  0.13140917  0.87090022  0.20518797  1
  S  S338  1  0.11163650  0.48374087  0.25019421  1
  S  S339  1  0.11978013  0.25848977  0.16507512  1
  S  S340  1  0.11169243  0.98706524  0.24723935  1
  S  S341  1  0.12723524  0.75884005  0.14968863  1
  S  S342  1  0.09955544  0.37125776  0.21003921  1
  S  S343  1  0.40051964  0.16423928  0.17499341  1
  S  S344  1  0.40144529  0.77473055  0.21093632  1
  S  S345  1  0.39347343  0.54390419  0.12746734  1
  S  S346  1  0.37363484  0.08595378  0.23725233  1
  S  S347  1  0.40339264  0.84455190  0.14421619  1
  S  S348  1  0.39311032  0.47557925  0.19502255  1
  S  S349  1  0.91749422  0.96708951  0.18963741  1
  S  S350  1  0.89679701  0.57840291  0.23814366  1
  S  S351  1  0.89093886  0.34771236  0.15343406  1
  S  S352  1  0.85400671  0.04770017  0.13074328  1
  S  S353  1  0.89162574  0.67031438  0.16292002  1
  S  S354  1  0.89348974  0.27614217  0.21926935  1
  S  S355  1  0.24162093  0.00755200  0.15931325  1
  S  S356  1  0.23049595  0.62652654  0.20303938  1
  S  S357  1  0.24085362  0.23977792  0.25310227  1
  S  S358  1  0.73213166  0.19981104  0.14635609  1
  S  S359  1  0.73880866  0.81702392  0.17541031  1
  S  S360  1  0.74874804  0.42873912  0.23015722  1
  S  S361  1  0.60650784  0.91022997  0.31211218  1
  S  S362  1  0.63430337  0.53910513  0.35953213  1
  S  S363  1  0.62386991  0.29754794  0.27709012  1
  S  S364  1  0.62812540  0.79153228  0.26440979  1
  S  S365  1  0.61974229  0.40996078  0.32192399  1
  S  S366  1  0.61115973  0.02097444  0.36018304  1
  S  S367  1  0.11512286  0.71273420  0.33137379  1
  S  S368  1  0.10489133  0.33340025  0.39505802  1
  S  S369  1  0.11712632  0.09932186  0.30016254  1
  S  S370  1  0.13099555  0.82840660  0.37225549  1
  S  S371  1  0.12969786  0.59951068  0.28885000  1
  S  S372  1  0.10967063  0.21395929  0.34213861  1
  S  S373  1  0.40426537  0.00845219  0.30288791  1
  S  S374  1  0.38422746  0.61825072  0.34969516  1
  S  S375  1  0.40993687  0.39346520  0.26737568  1
  S  S376  1  0.38795516  0.92898658  0.36607553  1
  S  S377  1  0.41279786  0.69777634  0.27429815  1
  S  S378  1  0.40295980  0.31276233  0.33035957  1
  S  S379  1  0.90205493  0.81020095  0.32161890  1
  S  S380  1  0.90829521  0.43534805  0.37330442  1
  S  S381  1  0.90799967  0.19629402  0.28578934  1
  S  S382  1  0.89686561  0.89358851  0.25505415  1
  S  S383  1  0.90215774  0.51323519  0.30608539  1
  S  S384  1  0.88560973  0.11864268  0.34995793  1
  S  S385  1  0.24104808  0.85150700  0.28830576  1
  S  S386  1  0.25545521  0.46372021  0.34382403  1
  S  S387  1  0.21718350  0.08083396  0.38287381  1
  S  S388  1  0.74030863  0.04136138  0.27032949  1
  S  S389  1  0.74426685  0.66634665  0.30958503  1
  S  S390  1  0.74164840  0.27657888  0.36365965  1
  S  S391  1  0.62112402  0.76950516  0.43195872  1
  S  S392  1  0.61039969  0.14229896  0.40891827  1
  S  S393  1  0.60576511  0.65046829  0.40043215  1
  S  S394  1  0.59911083  0.25459536  0.45156089  1
  S  S395  1  0.65138339  0.86967086  0.48262686  1
  S  S396  1  0.11515851  0.95328184  0.44008639  1
  S  S397  1  0.11272572  0.44638209  0.43273575  1
  S  S398  1  0.10921965  0.07609510  0.47245026  1
  S  S399  1  0.39564276  0.86243803  0.43553194  1
  S  S400  1  0.58423386  0.47035403  0.49118043  1
  S  S401  1  0.40389639  0.24071351  0.39068711  1
  S  S402  1  0.42814682  0.77652767  0.49295029  1
  S  S403  1  0.41710751  0.54763608  0.41668262  1
  S  S404  1  0.36463508  0.16676220  0.45342865  1
  S  S405  1  0.88806658  0.04233712  0.42010899  1
  S  S406  1  0.90301469  0.73567438  0.38602772  1
  S  S407  1  0.85350683  0.36999661  0.43894161  1
  S  S408  1  0.87847887  0.98431260  0.48719882  1
  S  S409  1  0.26215307  0.69674050  0.42208369  1
  S  S410  1  0.73586914  0.89705903  0.39911441  1
  S  S411  1  0.81177984  0.53336778  0.43832032  1
  S  S412  1  0.67213967  0.13019810  0.49818320  1
  S  S413  1  0.13908683  0.99611327  0.55695393  1
  S  S414  1  0.09072984  0.36841790  0.58565954  1
  S  S415  1  0.05234482  0.61846981  0.50177658  1
  S  S416  1  0.05526662  0.49689424  0.53744147  1
  S  S417  1  0.12814799  0.88378540  0.60240226  1
  S  S418  1  0.64983270  0.18615981  0.57751132  1
  S  S419  1  0.57191738  0.56708534  0.62059806  1
  S  S420  1  0.63147635  0.82238863  0.56355834  1
  S  S421  1  0.59715520  0.06686410  0.60823728  1
  S  S422  1  0.58371928  0.69229243  0.57571454  1
  S  S423  1  0.32313605  0.89224423  0.54359377  1
  S  S424  1  0.33303539  0.28433144  0.58365014  1
  S  S425  1  0.26427812  0.52631379  0.48331519  1
  S  S426  1  0.36430973  0.97107837  0.60761644  1
  S  S427  1  0.34055885  0.15374361  0.53716066  1
  S  S428  1  0.29157311  0.58220102  0.55097169  1
  S  S429  1  0.86538040  0.08925444  0.56774682  1
  S  S430  1  0.77727848  0.46871726  0.59836285  1
  S  S431  1  0.77774691  0.72292874  0.52055788  1
  S  S432  1  0.85795784  0.76175496  0.59310861  1
  S  S433  1  0.43118147  0.43500565  0.56765441  1
  S  S434  1  0.44346995  0.80816468  0.63105956  1
  S  S435  1  0.97521597  0.85739998  0.52374070  1
  S  S436  1  0.00617817  0.21667248  0.54350481  1
  S  S437  1  0.94978432  0.62316637  0.59573270  1
  S  S438  1  0.08029685  0.13119908  0.68896903  1
  S  S439  1  0.07412858  0.51324142  0.71927210  1
  S  S440  1  0.08075595  0.75389999  0.64210904  1
  S  S441  1  0.08270704  0.26090154  0.63169019  1
  S  S442  1  0.04644353  0.64417072  0.68358971  1
  S  S443  1  0.09726473  0.02252575  0.73658244  1
  S  S444  1  0.56941368  0.32874642  0.70531882  1
  S  S445  1  0.56197788  0.71461207  0.75099366  1
  S  S446  1  0.58936149  0.95125385  0.66910961  1
  S  S447  1  0.57100921  0.20877424  0.74265772  1
  S  S448  1  0.56706244  0.44411301  0.65226080  1
  S  S449  1  0.60081200  0.83431027  0.71092697  1
  S  S450  1  0.29813669  0.03920972  0.67675628  1
  S  S451  1  0.29578601  0.42068455  0.71438798  1
  S  S452  1  0.28737381  0.65362602  0.63263210  1
  S  S453  1  0.31813665  0.11711542  0.73902193  1
  S  S454  1  0.29451511  0.35715541  0.64597877  1
  S  S455  1  0.29377960  0.72819364  0.69634605  1
  S  S456  1  0.79504323  0.23593666  0.69255793  1
  S  S457  1  0.78590580  0.62100759  0.73651745  1
  S  S458  1  0.80163229  0.85609767  0.65310464  1
  S  S459  1  0.83631839  0.15038635  0.63411031  1
  S  S460  1  0.80232147  0.53170692  0.66721879  1
  S  S461  1  0.81936086  0.92492101  0.72001904  1
  S  S462  1  0.47420926  0.19572048  0.65521373  1
  S  S463  1  0.46265693  0.57222450  0.70634157  1
  S  S464  1  0.46083989  0.96050794  0.75477905  1
  S  S465  1  0.96793736  0.00293901  0.64630338  1
  S  S466  1  0.96319013  0.38188554  0.67792791  1
  S  S467  1  0.95322723  0.77478694  0.73101621  1
  S  S468  1  0.08183872  0.28146533  0.81181903  1
  S  S469  1  0.04339673  0.66118831  0.85899221  1
  S  S470  1  0.07742673  0.90224712  0.77608788  1
  S  S471  1  0.06486394  0.40667457  0.76802302  1
  S  S472  1  0.07442245  0.79172641  0.82314502  1
  S  S473  1  0.07891679  0.17473099  0.86264788  1
  S  S474  1  0.56929125  0.48201761  0.83428647  1
  S  S475  1  0.57765948  0.86551808  0.89280061  1
  S  S476  1  0.57818278  0.09925966  0.80359388  1
  S  S477  1  0.57290149  0.36860702  0.87815455  1
  S  S478  1  0.57370572  0.59827261  0.79071652  1
  S  S479  1  0.58346638  0.98193970  0.84310950  1
  S  S480  1  0.29643478  0.18643787  0.80708762  1
  S  S481  1  0.29799515  0.58525082  0.84743684  1
  S  S482  1  0.28208809  0.80538207  0.76486178  1
  S  S483  1  0.29852521  0.26735100  0.86872680  1
  S  S484  1  0.28499643  0.49744392  0.77743642  1
  S  S485  1  0.29964646  0.88588944  0.82750533  1
  S  S486  1  0.79410490  0.38884398  0.82329868  1
  S  S487  1  0.78972902  0.76762607  0.87650737  1
  S  S488  1  0.78717300  0.00227713  0.78721422  1
  S  S489  1  0.78730478  0.30469420  0.75858961  1
  S  S490  1  0.79515053  0.68831495  0.80277519  1
  S  S491  1  0.80898090  0.07589217  0.85268364  1
  S  S492  1  0.46139841  0.34191920  0.78980624  1
  S  S493  1  0.45039517  0.73324266  0.83989593  1
  S  S494  1  0.47573945  0.11270506  0.88808610  1
  S  S495  1  0.97070285  0.15392574  0.77318261  1
  S  S496  1  0.95415224  0.53661501  0.80888219  1
  S  S497  1  0.94932617  0.92273665  0.86495659  1
  S  S498  1  0.11697318  0.42907940  0.93052130  1
  S  S499  1  0.09912528  0.04877434  0.90324246  1
  S  S500  1  0.08086675  0.55106965  0.89968787  1
  S  S501  1  0.07721784  0.93971426  0.95242014  1
  S  S502  1  0.06329166  0.33064061  0.98399960  1
  S  S503  1  0.57498471  0.24335122  0.93998729  1
  S  S504  1  0.56310087  0.75049590  0.93054133  1
  S  S505  1  0.59619434  0.12218752  0.97220094  1
  S  S506  1  0.32356449  0.33403218  0.93960628  1
  S  S507  1  0.13035886  0.72814985  0.99009871  1
  S  S508  1  0.29333577  0.94691259  0.89582614  1
  S  S509  1  0.28201628  0.42335629  0.99651160  1
  S  S510  1  0.27057071  0.65282899  0.91465308  1
  S  S511  1  0.31869528  0.02365765  0.95718472  1
  S  S512  1  0.81224023  0.15770972  0.91997195  1
  S  S513  1  0.78939131  0.46335788  0.88712385  1
  S  S514  1  0.80851664  0.83195617  0.94368625  1
  S  S515  1  0.81375014  0.22333963  0.98660139  1
  S  S516  1  0.45417831  0.49828421  0.92075898  1
  S  S517  1  0.97216225  0.30291406  0.89856399  1
  S  S518  1  0.88260494  0.67118378  0.94045540  1
  S  S519  1  0.99256425  0.07610664  0.99177978  1
  Cl  Cl520  1  0.86812394  0.26540089  0.08189258  1
  Cl  Cl521  1  0.94731172  0.88645773  0.11053322  1
  Cl  Cl522  1  0.94831338  0.63293813  0.03521937  1
  Cl  Cl523  1  0.48945424  0.07516903  0.10590109  1
  Cl  Cl524  1  0.36776835  0.87025680  0.99582883  1
  Cl  Cl525  1  0.45395090  0.45257036  0.06268996  1
  Cl  Cl526  1  0.95673900  0.11567484  0.21251880  1
  Cl  Cl527  1  0.99181317  0.73804989  0.24112848  1
  Cl  Cl528  1  0.01571492  0.50797975  0.16679950  1
  Cl  Cl529  1  0.48223939  0.92848457  0.22260722  1
  Cl  Cl530  1  0.49255475  0.68974277  0.12961463  1
  Cl  Cl531  1  0.50386267  0.30738079  0.18985566  1
  Cl  Cl532  1  0.95392135  0.96792835  0.33496268  1
  Cl  Cl533  1  0.02028717  0.59062298  0.37431197  1
  Cl  Cl534  1  0.96255657  0.34407546  0.30073677  1
  Cl  Cl535  1  0.49238992  0.77689768  0.35184055  1
  Cl  Cl536  1  0.52962547  0.55309374  0.26937373  1
  Cl  Cl537  1  0.45561017  0.15840179  0.31145207  1
  Cl  Cl538  1  0.99997051  0.79990133  0.45120814  1
  Cl  Cl539  1  0.92865162  0.20310795  0.42116763  1
  Cl  Cl540  1  0.50805134  0.63081608  0.48126421  1
  Cl  Cl541  1  0.43957514  0.38981775  0.41220368  1
  Cl  Cl542  1  0.44586681  0.01199016  0.44174138  1
  Cl  Cl543  1  0.80833705  0.94573242  0.58174294  1
  Cl  Cl544  1  0.75537658  0.31827616  0.61168177  1
  Cl  Cl545  1  0.74165988  0.57093891  0.53685906  1
  Cl  Cl546  1  0.21824417  0.12312303  0.60893196  1
  Cl  Cl547  1  0.32330804  0.36260467  0.49267461  1
  Cl  Cl548  1  0.24813923  0.74901318  0.56508326  1
  Cl  Cl549  1  0.74709176  0.08448392  0.71306215  1
  Cl  Cl550  1  0.71389763  0.46097310  0.74279375  1
  Cl  Cl551  1  0.70419175  0.70032777  0.66683919  1
  Cl  Cl552  1  0.22674837  0.26734476  0.72359341  1
  Cl  Cl553  1  0.20721743  0.50883463  0.63015680  1
  Cl  Cl554  1  0.19389579  0.89636890  0.68754988  1
  Cl  Cl555  1  0.74727998  0.23338389  0.83685193  1
  Cl  Cl556  1  0.69343509  0.61147546  0.87416590  1
  Cl  Cl557  1  0.74355894  0.85261674  0.80028958  1
  Cl  Cl558  1  0.25344743  0.41955431  0.85323036  1
  Cl  Cl559  1  0.21746375  0.65241249  0.77007655  1
  Cl  Cl560  1  0.24228719  0.03871815  0.81606714  1
  Cl  Cl561  1  0.76140593  0.37659551  0.95136126  1
  Cl  Cl562  1  0.75129858  0.99505612  0.92511095  1
  Cl  Cl563  1  0.17436296  0.56851630  0.98060691  1
  Cl  Cl564  1  0.24352069  0.80309472  0.90922057  1
  Cl  Cl565  1  0.24639919  0.18590566  0.94460196  1
