# generated using pymatgen
data_Li128P21S105Cl23
_symmetry_space_group_name_H-M   'P 1'
_cell_length_a   10.60410300
_cell_length_b   25.21121900
_cell_length_c   42.87300770
_cell_angle_alpha   90.00000000
_cell_angle_beta   90.00000000
_cell_angle_gamma   90.00000000
_symmetry_Int_Tables_number   1
_chemical_formula_structural   Li128P21S105Cl23
_chemical_formula_sum   'Li256 P42 S210 Cl46'
_cell_volume   11461.77119005
_cell_formula_units_Z   2
loop_
 _symmetry_equiv_pos_site_id
 _symmetry_equiv_pos_as_xyz
  1  'x, y, z'
loop_
 _atom_site_type_symbol
 _atom_site_label
 _atom_site_symmetry_multiplicity
 _atom_site_fract_x
 _atom_site_fract_y
 _atom_site_fract_z
 _atom_site_occupancy
  Li  Li0  1  0.78775999  0.26383210  0.03589595  1
  Li  Li1  1  0.77162277  0.92864386  0.08127841  1
  Li  Li2  1  0.80354383  0.51251490  0.11978243  1
  Li  Li3  1  0.80392079  0.66556424  0.07187902  1
  Li  Li4  1  0.78697478  0.28632059  0.11601993  1
  Li  Li5  1  0.74852904  0.17116939  0.08871085  1
  Li  Li6  1  0.75853096  0.56929743  0.04111821  1
  Li  Li7  1  0.91593201  0.03141281  0.04031427  1
  Li  Li8  1  0.84428555  0.65613503  0.98269376  1
  Li  Li9  1  0.68978624  0.39101266  0.06460273  1
  Li  Li10  1  0.29977697  0.68573363  0.08180110  1
  Li  Li11  1  0.27797393  0.38608017  0.04999201  1
  Li  Li12  1  0.31678276  0.85755100  0.04957705  1
  Li  Li13  1  0.26087353  0.47740930  0.10094991  1
  Li  Li14  1  0.30334970  0.00902502  0.10748328  1
  Li  Li15  1  0.42100261  0.76530885  0.02810396  1
  Li  Li16  1  0.44620955  0.39797400  0.10928457  1
  Li  Li17  1  0.30057821  0.14930456  0.08435591  1
  Li  Li18  1  0.32201790  0.77693795  0.11811665  1
  Li  Li19  1  0.31232140  0.51758126  0.03039159  1
  Li  Li20  1  0.97039829  0.20988523  0.12740420  1
  Li  Li21  1  0.07411508  0.81116132  0.10056920  1
  Li  Li22  1  0.05090178  0.56250979  0.01668579  1
  Li  Li23  1  0.06534962  0.71511287  0.05802207  1
  Li  Li24  1  0.01933487  0.36121264  0.08563217  1
  Li  Li25  1  0.58421877  0.01186796  0.07774089  1
  Li  Li26  1  0.55242951  0.65069867  0.08940571  1
  Li  Li27  1  0.49912012  0.35068562  0.00578140  1
  Li  Li28  1  0.53430230  0.15293263  0.13385519  1
  Li  Li29  1  0.57147259  0.91389687  0.03363009  1
  Li  Li30  1  0.52839509  0.53991497  0.08655746  1
  Li  Li31  1  0.79296968  0.11723880  0.15998856  1
  Li  Li32  1  0.82889730  0.74474736  0.19887289  1
  Li  Li33  1  0.80875343  0.35441535  0.25368353  1
  Li  Li34  1  0.80469249  0.90462759  0.15940169  1
  Li  Li35  1  0.80570824  0.50641508  0.20598917  1
  Li  Li36  1  0.80966909  0.13109723  0.25290901  1
  Li  Li37  1  0.76496888  0.03708497  0.21967037  1
  Li  Li38  1  0.77287239  0.81349852  0.12268358  1
  Li  Li39  1  0.72486710  0.40304945  0.17858560  1
  Li  Li40  1  0.75483621  0.84011883  0.23055341  1
  Li  Li41  1  0.71541148  0.61425329  0.14666123  1
  Li  Li42  1  0.76933175  0.21079542  0.19469655  1
  Li  Li43  1  0.25107578  0.91870809  0.16821173  1
  Li  Li44  1  0.22688371  0.53388219  0.20980672  1
  Li  Li45  1  0.21617429  0.29400637  0.11924968  1
  Li  Li46  1  0.28926919  0.09293825  0.15005610  1
  Li  Li47  1  0.22968386  0.71978890  0.19654258  1
  Li  Li48  1  0.23203048  0.33689092  0.24620979  1
  Li  Li49  1  0.28756709  0.85622924  0.23860273  1
  Li  Li50  1  0.29434863  0.62867647  0.15230658  1
  Li  Li51  1  0.30452427  0.24670393  0.20337233  1
  Li  Li52  1  0.29482022  0.00776188  0.21120655  1
  Li  Li53  1  0.33321720  0.61855230  0.25199906  1
  Li  Li54  1  0.29009771  0.38268229  0.16944270  1
  Li  Li55  1  0.02837099  0.04735545  0.17590187  1
  Li  Li56  1  0.05369853  0.65531640  0.24247331  1
  Li  Li57  1  0.03746972  0.42533588  0.14466580  1
  Li  Li58  1  0.04378977  0.97696985  0.12504091  1
  Li  Li59  1  0.01585898  0.59723101  0.18377792  1
  Li  Li60  1  0.02768375  0.21273572  0.23323693  1
  Li  Li61  1  0.52756533  0.86398245  0.18762896  1
  Li  Li62  1  0.53715187  0.49066763  0.23246053  1
  Li  Li63  1  0.54167212  0.26387646  0.14641371  1
  Li  Li64  1  0.52874892  0.00874746  0.26300284  1
  Li  Li65  1  0.56243626  0.75300880  0.17218821  1
  Li  Li66  1  0.54132663  0.36746299  0.23024462  1
  Li  Li67  1  0.78473683  0.96959325  0.28891069  1
  Li  Li68  1  0.90291466  0.61010346  0.32543739  1
  Li  Li69  1  0.90919271  0.22690835  0.37174648  1
  Li  Li70  1  0.81488163  0.74281347  0.28968012  1
  Li  Li71  1  0.81247104  0.35622602  0.34072490  1
  Li  Li72  1  0.81392006  0.98615174  0.38455051  1
  Li  Li73  1  0.79882693  0.89598742  0.34630359  1
  Li  Li74  1  0.72491564  0.63877033  0.25878028  1
  Li  Li75  1  0.71333778  0.24805706  0.31327741  1
  Li  Li76  1  0.73706588  0.68552294  0.36343349  1
  Li  Li77  1  0.73681918  0.45611787  0.28231119  1
  Li  Li78  1  0.77504368  0.06182681  0.32512639  1
  Li  Li79  1  0.28455931  0.77502313  0.30537637  1
  Li  Li80  1  0.28675290  0.39118476  0.35906484  1
  Li  Li81  1  0.25808202  0.15393514  0.26239803  1
  Li  Li82  1  0.31307901  0.94217174  0.27612363  1
  Li  Li83  1  0.21017694  0.56814302  0.33829077  1
  Li  Li84  1  0.21675229  0.18770817  0.38655379  1
  Li  Li85  1  0.31535031  0.71206107  0.37126485  1
  Li  Li86  1  0.30507793  0.48092166  0.29452027  1
  Li  Li87  1  0.31855704  0.09736414  0.33938552  1
  Li  Li88  1  0.28146205  0.86632901  0.34374572  1
  Li  Li89  1  0.29408657  0.47748185  0.39950023  1
  Li  Li90  1  0.32070445  0.24101803  0.30515344  1
  Li  Li91  1  0.06107728  0.92907171  0.29698864  1
  Li  Li92  1  0.03805838  0.50087788  0.38049015  1
  Li  Li93  1  0.05130583  0.27492656  0.29043940  1
  Li  Li94  1  0.02986857  0.82281550  0.27483042  1
  Li  Li95  1  0.02787650  0.44134991  0.32389163  1
  Li  Li96  1  0.03876521  0.06177968  0.36939838  1
  Li  Li97  1  0.55357241  0.72757176  0.31174909  1
  Li  Li98  1  0.56581307  0.34949309  0.36915755  1
  Li  Li99  1  0.55324748  0.11660381  0.28006000  1
  Li  Li100  1  0.54312583  0.86190534  0.38069520  1
  Li  Li101  1  0.56439525  0.59487875  0.31733288  1
  Li  Li102  1  0.54151489  0.22224667  0.37007852  1
  Li  Li103  1  0.76985918  0.81706905  0.41169412  1
  Li  Li104  1  0.76244690  0.57720410  0.40613460  1
  Li  Li105  1  0.61070731  0.20010490  0.49952001  1
  Li  Li106  1  0.89067273  0.80331590  0.50329986  1
  Li  Li107  1  0.85017534  0.45018063  0.43888363  1
  Li  Li108  1  0.98422548  0.15265805  0.49589726  1
  Li  Li109  1  0.75495551  0.29153100  0.41934507  1
  Li  Li110  1  0.78212792  0.90974368  0.44993342  1
  Li  Li111  1  0.25636495  0.62703483  0.45016005  1
  Li  Li112  1  0.28219076  0.00656841  0.40592688  1
  Li  Li113  1  0.30438682  0.79856829  0.41409200  1
  Li  Li114  1  0.58967901  0.10071527  0.46661161  1
  Li  Li115  1  0.41730979  0.33248130  0.44794160  1
  Li  Li116  1  0.41263717  0.94739300  0.48381978  1
  Li  Li117  1  0.45004414  0.71202341  0.44585228  1
  Li  Li118  1  0.31131441  0.09632754  0.44396521  1
  Li  Li119  1  0.05684791  0.77168659  0.42663072  1
  Li  Li120  1  0.06324149  0.11692144  0.42384584  1
  Li  Li121  1  0.07347193  0.67556695  0.38830564  1
  Li  Li122  1  0.07831060  0.28895265  0.43340620  1
  Li  Li123  1  0.03872334  0.90184850  0.47241107  1
  Li  Li124  1  0.53846167  0.55892691  0.46670873  1
  Li  Li125  1  0.56509777  0.96868555  0.40916302  1
  Li  Li126  1  0.58399736  0.48822136  0.41399732  1
  Li  Li127  1  0.79917004  0.14931358  0.43812515  1
  Li  Li128  1  0.96606080  0.93751992  0.53530676  1
  Li  Li129  1  0.97530820  0.27090090  0.57961976  1
  Li  Li130  1  0.95381339  0.68950527  0.61984406  1
  Li  Li131  1  0.94932381  0.53498712  0.57092440  1
  Li  Li132  1  0.97080084  0.91518492  0.61774423  1
  Li  Li133  1  0.00666903  0.02703443  0.58900160  1
  Li  Li134  1  0.99248562  0.63339581  0.54107146  1
  Li  Li135  1  0.83252184  0.16880362  0.54026454  1
  Li  Li136  1  0.90718096  0.54404136  0.48323366  1
  Li  Li137  1  0.05763853  0.81384378  0.56559976  1
  Li  Li138  1  0.44592721  0.51279650  0.58079401  1
  Li  Li139  1  0.47494281  0.81420959  0.55060934  1
  Li  Li140  1  0.43653228  0.34157019  0.54796099  1
  Li  Li141  1  0.48987073  0.72328487  0.60132063  1
  Li  Li142  1  0.44877859  0.19137923  0.60750863  1
  Li  Li143  1  0.32563710  0.43366273  0.52767071  1
  Li  Li144  1  0.30507986  0.80247738  0.60933348  1
  Li  Li145  1  0.45042467  0.05252475  0.58475414  1
  Li  Li146  1  0.42158505  0.42103568  0.61667020  1
  Li  Li147  1  0.44225249  0.68581457  0.53049765  1
  Li  Li148  1  0.78235247  0.99068631  0.62673489  1
  Li  Li149  1  0.67555245  0.38902123  0.59947070  1
  Li  Li150  1  0.70067067  0.63911190  0.51728444  1
  Li  Li151  1  0.68277312  0.48587570  0.55660533  1
  Li  Li152  1  0.73402921  0.84042839  0.58747580  1
  Li  Li153  1  0.16417297  0.18749735  0.57712424  1
  Li  Li154  1  0.19870641  0.55134177  0.59049881  1
  Li  Li155  1  0.25379206  0.84729901  0.50571170  1
  Li  Li156  1  0.20093329  0.06029279  0.63901167  1
  Li  Li157  1  0.18243136  0.28322531  0.53200811  1
  Li  Li158  1  0.22147317  0.66156947  0.58645271  1
  Li  Li159  1  0.95058180  0.08325766  0.66252202  1
  Li  Li160  1  0.83274890  0.43512444  0.68664332  1
  Li  Li161  1  0.93746113  0.84546765  0.75370547  1
  Li  Li162  1  0.94648302  0.29639468  0.65682140  1
  Li  Li163  1  0.95403889  0.69114303  0.70713710  1
  Li  Li164  1  0.95265196  0.06954269  0.75608843  1
  Li  Li165  1  0.98396081  0.16339277  0.72053225  1
  Li  Li166  1  0.97882068  0.38714730  0.61987313  1
  Li  Li167  1  0.02122458  0.79498582  0.67820806  1
  Li  Li168  1  0.98770245  0.37114510  0.72940094  1
  Li  Li169  1  0.02400609  0.58846769  0.64661464  1
  Li  Li170  1  0.98669117  0.98926520  0.69569111  1
  Li  Li171  1  0.47959261  0.28057182  0.67124479  1
  Li  Li172  1  0.50089700  0.66187743  0.71913290  1
  Li  Li173  1  0.52785092  0.90516973  0.62082622  1
  Li  Li174  1  0.46554612  0.10728857  0.65045742  1
  Li  Li175  1  0.49998980  0.48226224  0.69170653  1
  Li  Li176  1  0.51604102  0.86518327  0.74474162  1
  Li  Li177  1  0.43474389  0.33741971  0.74048674  1
  Li  Li178  1  0.45517913  0.57341753  0.65008058  1
  Li  Li179  1  0.45116523  0.95530011  0.70305501  1
  Li  Li180  1  0.45143412  0.19068407  0.71116517  1
  Li  Li181  1  0.33127747  0.57266259  0.73410333  1
  Li  Li182  1  0.46208307  0.81602695  0.66999682  1
  Li  Li183  1  0.72068307  0.15627319  0.67854460  1
  Li  Li184  1  0.67265310  0.54322338  0.74246794  1
  Li  Li185  1  0.71593162  0.77402110  0.64483174  1
  Li  Li186  1  0.70463916  0.22402072  0.62610136  1
  Li  Li187  1  0.72396997  0.60575589  0.68359665  1
  Li  Li188  1  0.72971612  0.98862878  0.73492783  1
  Li  Li189  1  0.21066576  0.33635933  0.68592192  1
  Li  Li190  1  0.22965380  0.72345150  0.73630054  1
  Li  Li191  1  0.21702903  0.94412377  0.64770059  1
  Li  Li192  1  0.21572198  0.20658826  0.76540391  1
  Li  Li193  1  0.17199916  0.45061764  0.67373276  1
  Li  Li194  1  0.20461943  0.83886355  0.73014262  1
  Li  Li195  1  0.95452477  0.23351499  0.78836472  1
  Li  Li196  1  0.85368744  0.58801637  0.82600910  1
  Li  Li197  1  0.81605093  0.94912350  0.87242227  1
  Li  Li198  1  0.93367726  0.45429846  0.79065531  1
  Li  Li199  1  0.94311577  0.83949987  0.84015371  1
  Li  Li200  1  0.82976725  0.23413949  0.89261562  1
  Li  Li201  1  0.98485882  0.29848444  0.84822858  1
  Li  Li202  1  0.00661218  0.55362513  0.75783588  1
  Li  Li203  1  0.05640171  0.95970147  0.81702102  1
  Li  Li204  1  0.02161645  0.50934925  0.86307818  1
  Li  Li205  1  0.01687252  0.74337941  0.78128192  1
  Li  Li206  1  0.95651523  0.14497936  0.82613761  1
  Li  Li207  1  0.48260512  0.42833072  0.80571081  1
  Li  Li208  1  0.51360287  0.81591572  0.85039629  1
  Li  Li209  1  0.50307107  0.04848334  0.76024736  1
  Li  Li210  1  0.50103146  0.25001165  0.78334432  1
  Li  Li211  1  0.55476506  0.63258350  0.83977869  1
  Li  Li212  1  0.54646268  0.01040279  0.89039867  1
  Li  Li213  1  0.44908679  0.49312083  0.86883439  1
  Li  Li214  1  0.43898343  0.71586302  0.79430724  1
  Li  Li215  1  0.29067349  0.08510631  0.87384425  1
  Li  Li216  1  0.45078484  0.33688092  0.84192963  1
  Li  Li217  1  0.45411034  0.72803060  0.89649383  1
  Li  Li218  1  0.42068890  0.96110531  0.80474668  1
  Li  Li219  1  0.72977962  0.31038392  0.80930817  1
  Li  Li220  1  0.72138016  0.70565245  0.87834462  1
  Li  Li221  1  0.69737153  0.92610011  0.79088067  1
  Li  Li222  1  0.68935076  0.37420491  0.75570889  1
  Li  Li223  1  0.70827850  0.75029825  0.80829874  1
  Li  Li224  1  0.52863839  0.12794383  0.83779264  1
  Li  Li225  1  0.20818836  0.47289894  0.81137875  1
  Li  Li226  1  0.18450964  0.84254192  0.86929431  1
  Li  Li227  1  0.21626748  0.10067758  0.78795812  1
  Li  Li228  1  0.22919617  0.30740583  0.90625012  1
  Li  Li229  1  0.18580054  0.60420043  0.81465922  1
  Li  Li230  1  0.21657243  0.96357670  0.87207906  1
  Li  Li231  1  0.98357447  0.37564183  0.91043143  1
  Li  Li232  1  0.98810407  0.62304432  0.90520144  1
  Li  Li233  1  0.14162291  0.99759008  0.00095300  1
  Li  Li234  1  0.85906703  0.39927668  0.00272085  1
  Li  Li235  1  0.91166066  0.75182317  0.93952443  1
  Li  Li236  1  0.76302138  0.04373038  0.99496470  1
  Li  Li237  1  0.00585877  0.90535357  0.92076347  1
  Li  Li238  1  0.97517496  0.29051645  0.95397131  1
  Li  Li239  1  0.49719730  0.57412045  0.94876269  1
  Li  Li240  1  0.46251860  0.19158590  0.90717487  1
  Li  Li241  1  0.43670031  0.40466202  0.90761963  1
  Li  Li242  1  0.16053456  0.09592388  0.96771978  1
  Li  Li243  1  0.33533086  0.86386303  0.95009442  1
  Li  Li244  1  0.33308414  0.25102363  0.98115384  1
  Li  Li245  1  0.29902105  0.49006709  0.94285438  1
  Li  Li246  1  0.46135657  0.10102295  0.94579729  1
  Li  Li247  1  0.68774391  0.42464959  0.92681986  1
  Li  Li248  1  0.72198639  0.09409729  0.89544085  1
  Li  Li249  1  0.68831912  0.52345164  0.88947232  1
  Li  Li250  1  0.67066510  0.91344744  0.93415727  1
  Li  Li251  1  0.71678144  0.29812336  0.97298648  1
  Li  Li252  1  0.21607805  0.64078530  0.96523913  1
  Li  Li253  1  0.08933412  0.19711038  0.91244638  1
  Li  Li254  1  0.16470752  0.71157855  0.91321742  1
  Li  Li255  1  0.94158081  0.04913215  0.93776827  1
  P  P256  1  0.49143403  0.26521920  0.07340144  1
  P  P257  1  0.51079428  0.89801877  0.10807837  1
  P  P258  1  0.50767073  0.65320632  0.02009060  1
  P  P259  1  0.00682935  0.08559514  0.09633981  1
  P  P260  1  0.98353382  0.46380166  0.05198669  1
  P  P261  1  0.50853537  0.12555623  0.20817437  1
  P  P262  1  0.51063815  0.74400682  0.24289469  1
  P  P263  1  0.49356561  0.50657334  0.16212876  1
  P  P264  1  0.01116429  0.93422390  0.22567442  1
  P  P265  1  0.01225497  0.70429267  0.13196124  1
  P  P266  1  0.99726005  0.31737879  0.18501960  1
  P  P267  1  0.50745016  0.97686175  0.33880051  1
  P  P268  1  0.49463627  0.59673740  0.38476909  1
  P  P269  1  0.50520296  0.35812127  0.29972771  1
  P  P270  1  0.01131701  0.78034109  0.35567142  1
  P  P271  1  0.00551426  0.54615116  0.27127189  1
  P  P272  1  0.01086325  0.16413965  0.31796396  1
  P  P273  1  0.47555543  0.83615133  0.46393397  1
  P  P274  1  0.49005924  0.21180694  0.43962444  1
  P  P275  1  0.01067016  0.39262050  0.40735925  1
  P  P276  1  0.99454354  0.01853875  0.45198900  1
  P  P277  1  0.26434821  0.93541459  0.57353273  1
  P  P278  1  0.23806603  0.30180178  0.60658063  1
  P  P279  1  0.24332084  0.54738226  0.52082744  1
  P  P280  1  0.74763666  0.11552318  0.59757394  1
  P  P281  1  0.76822745  0.73833733  0.55234110  1
  P  P282  1  0.24248223  0.07378150  0.70967065  1
  P  P283  1  0.24815489  0.45599316  0.74340443  1
  P  P284  1  0.25914519  0.69252413  0.66240155  1
  P  P285  1  0.74343586  0.26679497  0.72528323  1
  P  P286  1  0.73626850  0.49799366  0.63066444  1
  P  P287  1  0.75476176  0.88329008  0.68517454  1
  P  P288  1  0.25709598  0.21908268  0.83923191  1
  P  P289  1  0.25910762  0.60457354  0.88296080  1
  P  P290  1  0.24666799  0.84088728  0.79950069  1
  P  P291  1  0.75063986  0.41849130  0.85662445  1
  P  P292  1  0.75269968  0.65037002  0.77185838  1
  P  P293  1  0.74963583  0.03595549  0.81837372  1
  P  P294  1  0.27824385  0.36612927  0.96453981  1
  P  P295  1  0.26901225  0.98522243  0.94090312  1
  P  P296  1  0.75486738  0.81060486  0.90822592  1
  P  P297  1  0.76271744  0.17888602  0.95507003  1
  S  S298  1  0.60359461  0.20999936  0.05310882  1
  S  S299  1  0.61430408  0.84457147  0.08282375  1
  S  S300  1  0.62787453  0.60268103  0.99601865  1
  S  S301  1  0.60808231  0.70846164  0.04550155  1
  S  S302  1  0.58597064  0.32407549  0.09976273  1
  S  S303  1  0.10981444  0.02469619  0.07603930  1
  S  S304  1  0.11511654  0.64614032  0.11094103  1
  S  S305  1  0.05763545  0.39661383  0.03324965  1
  S  S306  1  0.12406073  0.13846823  0.11975473  1
  S  S307  1  0.11365052  0.51982641  0.06601804  1
  S  S308  1  0.36667545  0.29442043  0.04132137  1
  S  S309  1  0.39526981  0.93700068  0.07622800  1
  S  S310  1  0.39082835  0.69325628  0.99128658  1
  S  S311  1  0.38461188  0.22874296  0.10846118  1
  S  S312  1  0.40199225  0.60949643  0.05308667  1
  S  S313  1  0.91083097  0.12377833  0.06282967  1
  S  S314  1  0.90270294  0.74202634  0.09782461  1
  S  S315  1  0.87398618  0.49771795  0.01757450  1
  S  S316  1  0.87436479  0.43890085  0.08961216  1
  S  S317  1  0.23960225  0.77455354  0.06633182  1
  S  S318  1  0.22103037  0.38791540  0.11537899  1
  S  S319  1  0.70269870  0.34395667  0.02036505  1
  S  S320  1  0.71935267  0.98255550  0.03830102  1
  S  S321  1  0.71726752  0.58832869  0.09472047  1
  S  S322  1  0.60681402  0.07156345  0.18230068  1
  S  S323  1  0.61742706  0.69122777  0.21763691  1
  S  S324  1  0.60524251  0.45275673  0.13853050  1
  S  S325  1  0.62397403  0.95333820  0.12842294  1
  S  S326  1  0.60379776  0.55879167  0.18663150  1
  S  S327  1  0.61170328  0.17937317  0.23333172  1
  S  S328  1  0.10634829  0.87456069  0.20379210  1
  S  S329  1  0.12044222  0.48994503  0.25337023  1
  S  S330  1  0.10603045  0.25739431  0.16615358  1
  S  S331  1  0.11692221  0.98879077  0.24948403  1
  S  S332  1  0.11777152  0.76308989  0.15250495  1
  S  S333  1  0.10308210  0.37700643  0.20383685  1
  S  S334  1  0.39163110  0.16621146  0.17787121  1
  S  S335  1  0.39905922  0.78423324  0.21027625  1
  S  S336  1  0.38007581  0.54570099  0.13044852  1
  S  S337  1  0.39419154  0.08531083  0.23986449  1
  S  S338  1  0.39728117  0.85964819  0.14078733  1
  S  S339  1  0.37860173  0.46723149  0.19343659  1
  S  S340  1  0.89634191  0.97229418  0.19366553  1
  S  S341  1  0.89339840  0.58186605  0.23667540  1
  S  S342  1  0.88481521  0.35213009  0.15117006  1
  S  S343  1  0.88873254  0.04933114  0.12854070  1
  S  S344  1  0.89064990  0.67199014  0.16483973  1
  S  S345  1  0.88268766  0.28379737  0.21863700  1
  S  S346  1  0.22007935  0.00707257  0.15913527  1
  S  S347  1  0.21370381  0.62738216  0.20450303  1
  S  S348  1  0.22019620  0.24515036  0.25504088  1
  S  S349  1  0.73431232  0.20219887  0.14042483  1
  S  S350  1  0.72438340  0.82112398  0.17726984  1
  S  S351  1  0.71331468  0.43072017  0.23023562  1
  S  S352  1  0.60461651  0.92170368  0.31324543  1
  S  S353  1  0.61079002  0.54097983  0.36522587  1
  S  S354  1  0.60662028  0.30440205  0.27383211  1
  S  S355  1  0.61649312  0.79588638  0.26860561  1
  S  S356  1  0.61606507  0.41127247  0.32346941  1
  S  S357  1  0.61083533  0.03213099  0.36287991  1
  S  S358  1  0.11893932  0.72236667  0.33510824  1
  S  S359  1  0.12860190  0.33933195  0.38720896  1
  S  S360  1  0.12352064  0.10786881  0.29930589  1
  S  S361  1  0.11240110  0.83539838  0.38019548  1
  S  S362  1  0.10290446  0.60833975  0.29183178  1
  S  S363  1  0.10814458  0.22616404  0.33915658  1
  S  S364  1  0.38660670  0.01605844  0.30863051  1
  S  S365  1  0.38303763  0.62799175  0.34962056  1
  S  S366  1  0.38747516  0.39822357  0.26900264  1
  S  S367  1  0.39547326  0.93792780  0.37207897  1
  S  S368  1  0.39154710  0.70555767  0.27343336  1
  S  S369  1  0.39827021  0.31944197  0.33295575  1
  S  S370  1  0.89652849  0.81593474  0.32287646  1
  S  S371  1  0.88484528  0.42723639  0.37616530  1
  S  S372  1  0.89649444  0.20203418  0.28467690  1
  S  S373  1  0.89266868  0.89904531  0.25893346  1
  S  S374  1  0.88784387  0.51623225  0.30518242  1
  S  S375  1  0.89203819  0.13296561  0.35090319  1
  S  S376  1  0.22212769  0.86163670  0.29108923  1
  S  S377  1  0.21575441  0.47709794  0.34626357  1
  S  S378  1  0.23199305  0.09559173  0.39035295  1
  S  S379  1  0.72112559  0.05308977  0.27216822  1
  S  S380  1  0.72407888  0.66433795  0.31109882  1
  S  S381  1  0.72467940  0.27982831  0.36519268  1
  S  S382  1  0.54111523  0.79450708  0.42529093  1
  S  S383  1  0.59013029  0.16007309  0.41241980  1
  S  S384  1  0.60130911  0.65556113  0.40463134  1
  S  S385  1  0.59756450  0.27182187  0.45974229  1
  S  S386  1  0.59750268  0.88999919  0.48230263  1
  S  S387  1  0.09874049  0.96307582  0.42885553  1
  S  S388  1  0.09548755  0.45549429  0.42981652  1
  S  S389  1  0.10597186  0.07543063  0.47361122  1
  S  S390  1  0.31619899  0.87772287  0.44996442  1
  S  S391  1  0.36106502  0.25206774  0.41191769  1
  S  S392  1  0.41159136  0.78019487  0.49489716  1
  S  S393  1  0.39005834  0.56003954  0.41968919  1
  S  S394  1  0.40659934  0.17032091  0.47539746  1
  S  S395  1  0.88598999  0.05846317  0.41789557  1
  S  S396  1  0.89497668  0.74138556  0.38774030  1
  S  S397  1  0.90882852  0.35400570  0.44192966  1
  S  S398  1  0.87955573  0.97972690  0.48271567  1
  S  S399  1  0.23149956  0.70877993  0.42314058  1
  S  S400  1  0.72749313  0.90523638  0.39704487  1
  S  S401  1  0.73517899  0.52301337  0.45012548  1
  S  S402  1  0.76502854  0.14065306  0.49036497  1
  S  S403  1  0.15223351  0.99045731  0.55293671  1
  S  S404  1  0.13692992  0.35530382  0.58078437  1
  S  S405  1  0.12259824  0.59732870  0.49649469  1
  S  S406  1  0.14398682  0.49201804  0.54650908  1
  S  S407  1  0.16934361  0.87761608  0.60059856  1
  S  S408  1  0.64493926  0.17606500  0.57684612  1
  S  S409  1  0.62967505  0.55420645  0.60939082  1
  S  S410  1  0.69551755  0.80638950  0.53454043  1
  S  S411  1  0.62863265  0.06201316  0.61986112  1
  S  S412  1  0.63819855  0.68218077  0.56634766  1
  S  S413  1  0.38676552  0.90475828  0.54133168  1
  S  S414  1  0.35565718  0.26261007  0.57533928  1
  S  S415  1  0.36021370  0.50705669  0.49208647  1
  S  S416  1  0.37242105  0.97220884  0.60794525  1
  S  S417  1  0.34846807  0.59139594  0.55355619  1
  S  S418  1  0.84757438  0.07810584  0.56445633  1
  S  S419  1  0.84544165  0.45971378  0.59672061  1
  S  S420  1  0.87567656  0.70447126  0.51753552  1
  S  S421  1  0.87882993  0.76219846  0.58997415  1
  S  S422  1  0.51021125  0.42475662  0.56568232  1
  S  S423  1  0.53097957  0.81187558  0.61619605  1
  S  S424  1  0.04999098  0.85730074  0.52029209  1
  S  S425  1  0.03004904  0.21668878  0.53726453  1
  S  S426  1  0.03213767  0.61274449  0.59447162  1
  S  S427  1  0.14313963  0.12772626  0.68338477  1
  S  S428  1  0.14987364  0.51325896  0.71907724  1
  S  S429  1  0.14798044  0.74720234  0.63931590  1
  S  S430  1  0.12234612  0.24696905  0.62662590  1
  S  S431  1  0.14967593  0.63919073  0.68616621  1
  S  S432  1  0.14008448  0.01999646  0.73437065  1
  S  S433  1  0.63827593  0.32662585  0.70510404  1
  S  S434  1  0.63858839  0.70942980  0.75555223  1
  S  S435  1  0.64672997  0.94301840  0.66597374  1
  S  S436  1  0.64215337  0.20823539  0.74623002  1
  S  S437  1  0.63415489  0.43754801  0.65193849  1
  S  S438  1  0.64974128  0.82360759  0.70432678  1
  S  S439  1  0.35739875  0.03426742  0.67806317  1
  S  S440  1  0.34861697  0.41409161  0.70947972  1
  S  S441  1  0.37025983  0.65490884  0.62963079  1
  S  S442  1  0.35690802  0.11477803  0.74074737  1
  S  S443  1  0.34790419  0.33999705  0.64001789  1
  S  S444  1  0.37730395  0.73092846  0.69341773  1
  S  S445  1  0.86011354  0.23138505  0.69286246  1
  S  S446  1  0.85282337  0.61511737  0.73539022  1
  S  S447  1  0.86663513  0.84847496  0.65126711  1
  S  S448  1  0.86122941  0.15189923  0.63063678  1
  S  S449  1  0.85283973  0.52821597  0.66468505  1
  S  S450  1  0.86925891  0.91686297  0.71885764  1
  S  S451  1  0.52899352  0.19407698  0.65939337  1
  S  S452  1  0.52400427  0.57266473  0.70300218  1
  S  S453  1  0.53165021  0.95647487  0.75529953  1
  S  S454  1  0.01685658  0.00012799  0.64157983  1
  S  S455  1  0.01509052  0.38122937  0.67512338  1
  S  S456  1  0.03855167  0.77097639  0.73008297  1
  S  S457  1  0.15903693  0.27320698  0.81310109  1
  S  S458  1  0.13853744  0.65894393  0.86376202  1
  S  S459  1  0.14327031  0.89570648  0.77532306  1
  S  S460  1  0.13770973  0.40486886  0.76840736  1
  S  S461  1  0.13936659  0.78555430  0.82247968  1
  S  S462  1  0.14976068  0.16111139  0.86052015  1
  S  S463  1  0.65145545  0.47781749  0.83489510  1
  S  S464  1  0.65277159  0.86674554  0.88436908  1
  S  S465  1  0.65023595  0.09269901  0.79521834  1
  S  S466  1  0.64059575  0.36345221  0.87894022  1
  S  S467  1  0.65693693  0.58982459  0.79324113  1
  S  S468  1  0.63567769  0.97767481  0.83837930  1
  S  S469  1  0.37414873  0.17968723  0.80776282  1
  S  S470  1  0.37105378  0.57540049  0.84732871  1
  S  S471  1  0.36369775  0.80158430  0.76786423  1
  S  S472  1  0.37002756  0.25831655  0.87111083  1
  S  S473  1  0.37126676  0.49469203  0.77240394  1
  S  S474  1  0.35581906  0.87882171  0.83285154  1
  S  S475  1  0.87186615  0.38150001  0.82580609  1
  S  S476  1  0.88798191  0.77333410  0.88064319  1
  S  S477  1  0.86404393  0.99528577  0.78664721  1
  S  S478  1  0.85838409  0.30547509  0.75787540  1
  S  S479  1  0.87539633  0.68099625  0.80444837  1
  S  S480  1  0.86243465  0.06724540  0.85200775  1
  S  S481  1  0.53114329  0.34058979  0.79039024  1
  S  S482  1  0.54417114  0.72515637  0.84391196  1
  S  S483  1  0.50071109  0.10229408  0.88982382  1
  S  S484  1  0.03226412  0.15125467  0.77338150  1
  S  S485  1  0.02959146  0.53304980  0.81075702  1
  S  S486  1  0.02716987  0.91428231  0.86626799  1
  S  S487  1  0.20515838  0.40421281  0.92570522  1
  S  S488  1  0.16071707  0.03291491  0.91206989  1
  S  S489  1  0.15468444  0.54512699  0.90320343  1
  S  S490  1  0.16039752  0.92654771  0.96138302  1
  S  S491  1  0.15878464  0.31248921  0.98451435  1
  S  S492  1  0.65431327  0.23339720  0.93058683  1
  S  S493  1  0.65242210  0.75071311  0.92817922  1
  S  S494  1  0.65019954  0.12463828  0.97651804  1
  S  S495  1  0.43043490  0.32230898  0.94783955  1
  S  S496  1  0.39950351  0.94469399  0.91389902  1
  S  S497  1  0.34965209  0.42070483  0.99471772  1
  S  S498  1  0.36380200  0.64202209  0.91754814  1
  S  S499  1  0.34729610  0.02948509  0.97594299  1
  S  S500  1  0.88242708  0.14487364  0.92117614  1
  S  S501  1  0.86231958  0.45657207  0.88987981  1
  S  S502  1  0.84355498  0.84937095  0.94481193  1
  S  S503  1  0.87326391  0.22112097  0.98552158  1
  S  S504  1  0.52013937  0.49137093  0.92174008  1
  S  S505  1  0.01817430  0.28387112  0.90081261  1
  S  S506  1  0.01661617  0.67570046  0.94989290  1
  S  S507  1  0.98432748  0.05453704  0.98973288  1
  Cl  Cl508  1  0.95486035  0.27011101  0.08223253  1
  Cl  Cl509  1  0.94535776  0.89026361  0.11245405  1
  Cl  Cl510  1  0.94744898  0.64532635  0.03141117  1
  Cl  Cl511  1  0.44761940  0.08384357  0.10001757  1
  Cl  Cl512  1  0.43628624  0.85334991  0.00283398  1
  Cl  Cl513  1  0.44713904  0.45905291  0.06388610  1
  Cl  Cl514  1  0.93233258  0.12969349  0.20558683  1
  Cl  Cl515  1  0.96003081  0.74302479  0.24551653  1
  Cl  Cl516  1  0.95444464  0.51105120  0.16296814  1
  Cl  Cl517  1  0.43772833  0.93414809  0.22731931  1
  Cl  Cl518  1  0.44804093  0.69857149  0.13099641  1
  Cl  Cl519  1  0.44851895  0.31835002  0.18686752  1
  Cl  Cl520  1  0.93142114  0.97993879  0.33477036  1
  Cl  Cl521  1  0.97066911  0.59299237  0.37922957  1
  Cl  Cl522  1  0.95619515  0.36024131  0.29708207  1
  Cl  Cl523  1  0.43694535  0.78519227  0.34851391  1
  Cl  Cl524  1  0.46432880  0.54898265  0.27339990  1
  Cl  Cl525  1  0.46382092  0.17131166  0.32122218  1
  Cl  Cl526  1  0.91022573  0.82748860  0.45170464  1
  Cl  Cl527  1  0.98823297  0.20642690  0.42369982  1
  Cl  Cl528  1  0.51804283  0.64614298  0.48511353  1
  Cl  Cl529  1  0.45991167  0.40549888  0.40836507  1
  Cl  Cl530  1  0.45833575  0.02234537  0.44980312  1
  Cl  Cl531  1  0.80765127  0.93093374  0.58233485  1
  Cl  Cl532  1  0.80391149  0.31087458  0.61085062  1
  Cl  Cl533  1  0.80221504  0.55610036  0.53124121  1
  Cl  Cl534  1  0.30270962  0.11747206  0.60066671  1
  Cl  Cl535  1  0.31657221  0.34565884  0.50138166  1
  Cl  Cl536  1  0.30496872  0.74213329  0.56385116  1
  Cl  Cl537  1  0.81963342  0.07258525  0.70861607  1
  Cl  Cl538  1  0.79176693  0.45616597  0.74298473  1
  Cl  Cl539  1  0.80717208  0.68938442  0.66316855  1
  Cl  Cl540  1  0.30484637  0.26588742  0.72260537  1
  Cl  Cl541  1  0.30323531  0.50053213  0.63142360  1
  Cl  Cl542  1  0.30803104  0.88320928  0.68729623  1
  Cl  Cl543  1  0.81930592  0.23113353  0.83438616  1
  Cl  Cl544  1  0.77603214  0.60912289  0.87899740  1
  Cl  Cl545  1  0.79019360  0.83852656  0.79748841  1
  Cl  Cl546  1  0.33050792  0.42028302  0.84890402  1
  Cl  Cl547  1  0.28962645  0.65080035  0.76961398  1
  Cl  Cl548  1  0.25848583  0.02306623  0.82543887  1
  Cl  Cl549  1  0.84222832  0.37047115  0.95150044  1
  Cl  Cl550  1  0.75000305  0.99724696  0.92118070  1
  Cl  Cl551  1  0.23329761  0.55336281  0.98410931  1
  Cl  Cl552  1  0.28333269  0.79379898  0.91137457  1
  Cl  Cl553  1  0.28204186  0.17403540  0.94920888  1
