# generated using pymatgen
data_Na2S
_symmetry_space_group_name_H-M   'P 1'
_cell_length_a   6.55295200
_cell_length_b   6.55295200
_cell_length_c   46.02969856
_cell_angle_alpha   90.00000000
_cell_angle_beta   90.00000000
_cell_angle_gamma   90.00000000
_symmetry_Int_Tables_number   1
_chemical_formula_structural   Na2S
_chemical_formula_sum   'Na56 S28'
_cell_volume   1976.56956711
_cell_formula_units_Z   28
loop_
 _symmetry_equiv_pos_site_id
 _symmetry_equiv_pos_as_xyz
  1  'x, y, z'
loop_
 _atom_site_type_symbol
 _atom_site_label
 _atom_site_symmetry_multiplicity
 _atom_site_fract_x
 _atom_site_fract_y
 _atom_site_fract_z
 _atom_site_occupancy
  Na  Na0  1  0.75002597  0.74996831  0.07140804  1
  Na  Na1  1  0.25002536  0.24996757  0.07140856  1
  Na  Na2  1  0.75001731  0.24997389  0.07134288  1
  Na  Na3  1  0.25000704  0.74999240  0.99992217  1
  Na  Na4  1  0.75000648  0.24999278  0.99992223  1
  Na  Na5  1  0.25001679  0.74997452  0.07134302  1
  Na  Na6  1  0.25001914  0.24997209  0.14281524  1
  Na  Na7  1  0.75000697  0.74999448  0.21426710  1
  Na  Na8  1  0.25000698  0.24999367  0.21426734  1
  Na  Na9  1  0.75001942  0.74997306  0.14281550  1
  Na  Na10  1  0.75000283  0.24999607  0.21424910  1
  Na  Na11  1  0.25001724  0.74997353  0.14276113  1
  Na  Na12  1  0.75001745  0.24997264  0.14276125  1
  Na  Na13  1  0.25000283  0.74999679  0.21424916  1
  Na  Na14  1  0.25000253  0.24999843  0.28573262  1
  Na  Na15  1  0.75000271  0.74999880  0.35718596  1
  Na  Na16  1  0.25000313  0.24999871  0.35718596  1
  Na  Na17  1  0.75000298  0.74999910  0.28573258  1
  Na  Na18  1  0.75000268  0.24999868  0.35724054  1
  Na  Na19  1  0.25000278  0.74999890  0.28575154  1
  Na  Na20  1  0.75000328  0.24999819  0.28575150  1
  Na  Na21  1  0.25000325  0.74999880  0.35724053  1
  Na  Na22  1  0.25000255  0.24999896  0.42859348  1
  Na  Na23  1  0.75000204  0.74999919  0.42859350  1
  Na  Na24  1  0.74999849  0.25000419  0.50006955  1
  Na  Na25  1  0.25000291  0.74999894  0.42865914  1
  Na  Na26  1  0.75000247  0.24999885  0.42865917  1
  Na  Na27  1  0.24999791  0.75000345  0.50006960  1
  Na  Na28  1  0.24997356  0.75002024  0.57143704  1
  Na  Na29  1  0.74997845  0.25002527  0.57143720  1
  Na  Na30  1  0.24997913  0.25001757  0.57137438  1
  Na  Na31  1  0.75000356  0.74999758  0.49997297  1
  Na  Na32  1  0.25000027  0.25000089  0.49997283  1
  Na  Na33  1  0.74995858  0.75003791  0.57137385  1
  Na  Na34  1  0.74997318  0.25003085  0.64282761  1
  Na  Na35  1  0.24999167  0.75001945  0.71427293  1
  Na  Na36  1  0.74998655  0.25001421  0.71427311  1
  Na  Na37  1  0.24996927  0.75002643  0.64282790  1
  Na  Na38  1  0.24999244  0.25001335  0.71425490  1
  Na  Na39  1  0.74997738  0.75002196  0.64277452  1
  Na  Na40  1  0.24996722  0.25003199  0.64277516  1
  Na  Na41  1  0.74999278  0.75001204  0.71425434  1
  Na  Na42  1  0.75000112  0.25000255  0.78573765  1
  Na  Na43  1  0.25000215  0.74999932  0.85717952  1
  Na  Na44  1  0.75000287  0.24999982  0.85717951  1
  Na  Na45  1  0.25000102  0.75000262  0.78573759  1
  Na  Na46  1  0.25000323  0.24999908  0.85723148  1
  Na  Na47  1  0.74999844  0.75000449  0.78575470  1
  Na  Na48  1  0.24999852  0.25000423  0.78575512  1
  Na  Na49  1  0.75000395  0.74999850  0.85723122  1
  Na  Na50  1  0.75000284  0.24999911  0.92855571  1
  Na  Na51  1  0.25000268  0.74999857  0.92855571  1
  Na  Na52  1  0.25001613  0.24998543  0.00001809  1
  Na  Na53  1  0.75000226  0.74999884  0.92861898  1
  Na  Na54  1  0.25000212  0.24999942  0.92861902  1
  Na  Na55  1  0.75001549  0.74998510  0.00001826  1
  S  S56  1  0.00001398  0.99997604  0.10704852  1
  S  S57  1  0.50000998  0.99998500  0.03567682  1
  S  S58  1  0.00001262  0.49998523  0.03567681  1
  S  S59  1  0.50001273  0.49997921  0.10704831  1
  S  S60  1  0.00000455  0.99999916  0.24999830  1
  S  S61  1  0.50000964  0.99998954  0.17853807  1
  S  S62  1  0.00001109  0.49998645  0.17853784  1
  S  S63  1  0.50000262  0.49999557  0.24999763  1
  S  S64  1  0.00000314  0.99999849  0.39294980  1
  S  S65  1  0.49999952  0.99999789  0.32145777  1
  S  S66  1  0.00000424  0.50000135  0.32145766  1
  S  S67  1  0.50000124  0.50000144  0.39294991  1
  S  S68  1  0.50000092  0.00000110  0.46432088  1
  S  S69  1  0.00000131  0.49999754  0.46432067  1
  S  S70  1  0.99997741  0.50001944  0.60706176  1
  S  S71  1  0.49999007  0.50000887  0.53571461  1
  S  S72  1  0.99999083  0.00000794  0.53571448  1
  S  S73  1  0.49997517  0.00002404  0.60706225  1
  S  S74  1  0.99999475  0.50000724  0.75000402  1
  S  S75  1  0.49998932  0.50001181  0.67854712  1
  S  S76  1  0.99996066  0.00004155  0.67854642  1
  S  S77  1  0.49999657  0.00000645  0.75000450  1
  S  S78  1  -0.00000020  0.49999862  0.89293586  1
  S  S79  1  0.50000322  0.50000274  0.82145858  1
  S  S80  1  0.00000247  -0.00000079  0.82145866  1
  S  S81  1  0.50000328  0.00000110  0.89293581  1
  S  S82  1  0.50000627  0.49999845  0.96427916  1
  S  S83  1  0.00000420  0.99999678  0.96427812  1
