# generated using pymatgen
data_Na2S
_symmetry_space_group_name_H-M   'P 1'
_cell_length_a   6.55295200
_cell_length_b   9.26727300
_cell_length_c   55.80828819
_cell_angle_alpha   90.00000000
_cell_angle_beta   90.00000000
_cell_angle_gamma   90.00000000
_symmetry_Int_Tables_number   1
_chemical_formula_structural   Na2S
_chemical_formula_sum   'Na96 S48'
_cell_volume   3389.12545375
_cell_formula_units_Z   48
loop_
 _symmetry_equiv_pos_site_id
 _symmetry_equiv_pos_as_xyz
  1  'x, y, z'
loop_
 _atom_site_type_symbol
 _atom_site_label
 _atom_site_symmetry_multiplicity
 _atom_site_fract_x
 _atom_site_fract_y
 _atom_site_fract_z
 _atom_site_occupancy
  Na  Na0  1  0.75026559  0.62499647  0.02084247  1
  Na  Na1  1  0.24973460  0.12499643  0.02084236  1
  Na  Na2  1  0.74979044  0.37508216  0.06252268  1
  Na  Na3  1  0.25020933  0.87508213  0.06252271  1
  Na  Na4  1  0.75026561  0.12499644  0.02084246  1
  Na  Na5  1  0.24973456  0.62499643  0.02084237  1
  Na  Na6  1  0.74979047  0.87508213  0.06252268  1
  Na  Na7  1  0.25020931  0.37508216  0.06252272  1
  Na  Na8  1  0.75028365  0.12499722  0.10420023  1
  Na  Na9  1  0.24971578  0.62499724  0.10420017  1
  Na  Na10  1  0.74975920  0.87500270  0.14588714  1
  Na  Na11  1  0.25024000  0.37500268  0.14588722  1
  Na  Na12  1  0.75028360  0.62499725  0.10420022  1
  Na  Na13  1  0.24971579  0.12499723  0.10420018  1
  Na  Na14  1  0.74975919  0.37500268  0.14588715  1
  Na  Na15  1  0.25023998  0.87500268  0.14588722  1
  Na  Na16  1  0.75017699  0.62492879  0.18754298  1
  Na  Na17  1  0.24982222  0.12492874  0.18754293  1
  Na  Na18  1  0.74980466  0.37500512  0.22918308  1
  Na  Na19  1  0.25019494  0.87500514  0.22918320  1
  Na  Na20  1  0.75017700  0.12492874  0.18754298  1
  Na  Na21  1  0.24982221  0.62492876  0.18754292  1
  Na  Na22  1  0.74980466  0.87500513  0.22918308  1
  Na  Na23  1  0.25019495  0.37500515  0.22918320  1
  Na  Na24  1  0.75019530  0.12499484  0.27081691  1
  Na  Na25  1  0.24980506  0.62499482  0.27081679  1
  Na  Na26  1  0.74982289  0.87507119  0.31245701  1
  Na  Na27  1  0.25017780  0.37507125  0.31245706  1
  Na  Na28  1  0.75019529  0.62499483  0.27081690  1
  Na  Na29  1  0.24980508  0.12499483  0.27081679  1
  Na  Na30  1  0.74982291  0.37507125  0.31245701  1
  Na  Na31  1  0.25017781  0.87507122  0.31245707  1
  Na  Na32  1  0.75024075  0.62499728  0.35411285  1
  Na  Na33  1  0.24976008  0.12499730  0.35411277  1
  Na  Na34  1  0.74971633  0.37500275  0.39579977  1
  Na  Na35  1  0.25028426  0.87500270  0.39579982  1
  Na  Na36  1  0.75024077  0.12499729  0.35411285  1
  Na  Na37  1  0.24976006  0.62499730  0.35411277  1
  Na  Na38  1  0.74971630  0.87500270  0.39579977  1
  Na  Na39  1  0.25028423  0.37500274  0.39579983  1
  Na  Na40  1  0.75020954  0.12491783  0.43747732  1
  Na  Na41  1  0.24979071  0.62491786  0.43747727  1
  Na  Na42  1  0.74973440  0.87500361  0.47915754  1
  Na  Na43  1  0.25026546  0.37500350  0.47915763  1
  Na  Na44  1  0.75020952  0.62491786  0.43747731  1
  Na  Na45  1  0.24979072  0.12491784  0.43747728  1
  Na  Na46  1  0.74973444  0.37500347  0.47915753  1
  Na  Na47  1  0.25026546  0.87500364  0.47915763  1
  Na  Na48  1  0.24973453  0.62499644  0.52084238  1
  Na  Na49  1  0.75026566  0.12499650  0.52084247  1
  Na  Na50  1  0.25020925  0.87508210  0.56252274  1
  Na  Na51  1  0.74979055  0.37508221  0.56252270  1
  Na  Na52  1  0.24973450  0.12499646  0.52084238  1
  Na  Na53  1  0.75026567  0.62499645  0.52084247  1
  Na  Na54  1  0.25020926  0.37508220  0.56252274  1
  Na  Na55  1  0.74979052  0.87508210  0.56252270  1
  Na  Na56  1  0.24971568  0.12499726  0.60420020  1
  Na  Na57  1  0.75028370  0.62499733  0.60420025  1
  Na  Na58  1  0.25023994  0.37500269  0.64588725  1
  Na  Na59  1  0.74975920  0.87500274  0.64588717  1
  Na  Na60  1  0.24971575  0.62499731  0.60420020  1
  Na  Na61  1  0.75028367  0.12499725  0.60420025  1
  Na  Na62  1  0.25023994  0.87500273  0.64588725  1
  Na  Na63  1  0.74975925  0.37500271  0.64588717  1
  Na  Na64  1  0.24982217  0.62492877  0.68754295  1
  Na  Na65  1  0.75017703  0.12492879  0.68754301  1
  Na  Na66  1  0.25019499  0.87500515  0.72918321  1
  Na  Na67  1  0.74980469  0.37500513  0.72918309  1
  Na  Na68  1  0.24982216  0.12492877  0.68754295  1
  Na  Na69  1  0.75017706  0.62492878  0.68754301  1
  Na  Na70  1  0.25019499  0.37500515  0.72918321  1
  Na  Na71  1  0.74980468  0.87500513  0.72918310  1
  Na  Na72  1  0.24980508  0.12499479  0.77081679  1
  Na  Na73  1  0.75019528  0.62499488  0.77081691  1
  Na  Na74  1  0.25017776  0.37507125  0.81245706  1
  Na  Na75  1  0.74982296  0.87507121  0.81245700  1
  Na  Na76  1  0.24980506  0.62499487  0.77081679  1
  Na  Na77  1  0.75019527  0.12499481  0.77081691  1
  Na  Na78  1  0.25017774  0.87507122  0.81245706  1
  Na  Na79  1  0.74982297  0.37507123  0.81245700  1
  Na  Na80  1  0.24976002  0.62499731  0.85411276  1
  Na  Na81  1  0.75024085  0.12499725  0.85411283  1
  Na  Na82  1  0.25028426  0.87500272  0.89579981  1
  Na  Na83  1  0.74971641  0.37500275  0.89579976  1
  Na  Na84  1  0.24976003  0.12499727  0.85411276  1
  Na  Na85  1  0.75024086  0.62499731  0.85411284  1
  Na  Na86  1  0.25028420  0.37500274  0.89579981  1
  Na  Na87  1  0.74971635  0.87500271  0.89579976  1
  Na  Na88  1  0.24979068  0.12491788  0.93747727  1
  Na  Na89  1  0.75020958  0.62491783  0.93747731  1
  Na  Na90  1  0.25026544  0.37500353  0.97915762  1
  Na  Na91  1  0.74973437  0.87500358  0.97915753  1
  Na  Na92  1  0.24979067  0.62491784  0.93747727  1
  Na  Na93  1  0.75020958  0.12491787  0.93747732  1
  Na  Na94  1  0.25026549  0.87500361  0.97915763  1
  Na  Na95  1  0.74973438  0.37500350  0.97915753  1
  S  S96  1  0.99999994  0.62544212  0.06252577  1
  S  S97  1  0.99999995  0.12544199  0.06252577  1
  S  S98  1  0.49999994  0.87496171  0.02088873  1
  S  S99  1  0.50000007  0.37496172  0.02088873  1
  S  S100  1  0.99999973  0.12504597  0.14591753  1
  S  S101  1  0.99999979  0.62504591  0.14591752  1
  S  S102  1  0.49999994  0.37497725  0.10415005  1
  S  S103  1  0.49999969  0.87497715  0.10415005  1
  S  S104  1  0.99999993  0.62503676  0.22913051  1
  S  S105  1  0.99999986  0.12503683  0.22913051  1
  S  S106  1  0.49999974  0.87464773  0.18755703  1
  S  S107  1  0.49999974  0.37464780  0.18755701  1
  S  S108  1  0.00000024  0.12535214  0.31244295  1
  S  S109  1  0.00000024  0.62535224  0.31244297  1
  S  S110  1  0.50000023  0.37496327  0.27086947  1
  S  S111  1  0.50000017  0.87496335  0.27086947  1
  S  S112  1  0.00000022  0.62502289  0.39584996  1
  S  S113  1  0.00000011  0.12502283  0.39584994  1
  S  S114  1  0.50000027  0.87495410  0.35408247  1
  S  S115  1  0.50000029  0.37495397  0.35408245  1
  S  S116  1  0.99999990  0.12503829  0.47911126  1
  S  S117  1  0.00000004  0.62503835  0.47911126  1
  S  S118  1  0.50000010  0.37455796  0.43747423  1
  S  S119  1  0.50000013  0.87455789  0.43747423  1
  S  S120  1  0.99999982  0.62544213  0.56252578  1
  S  S121  1  0.99999990  0.12544214  0.56252578  1
  S  S122  1  0.49999999  0.37496164  0.52088874  1
  S  S123  1  0.50000003  0.87496166  0.52088874  1
  S  S124  1  0.99999984  0.12504593  0.64591754  1
  S  S125  1  0.99999963  0.62504593  0.64591755  1
  S  S126  1  0.49999990  0.87497715  0.60415006  1
  S  S127  1  0.49999972  0.37497707  0.60415007  1
  S  S128  1  0.99999983  0.62503678  0.72913053  1
  S  S129  1  0.99999983  0.12503681  0.72913052  1
  S  S130  1  0.49999984  0.37464776  0.68755705  1
  S  S131  1  0.49999982  0.87464778  0.68755704  1
  S  S132  1  0.00000025  0.12535213  0.81244296  1
  S  S133  1  0.00000026  0.62535222  0.81244296  1
  S  S134  1  0.50000009  0.87496323  0.77086949  1
  S  S135  1  0.50000012  0.37496319  0.77086948  1
  S  S136  1  0.00000012  0.62502287  0.89584994  1
  S  S137  1  0.00000017  0.12502295  0.89584994  1
  S  S138  1  0.50000009  0.37495409  0.85408245  1
  S  S139  1  0.50000020  0.87495414  0.85408248  1
  S  S140  1  0.99999999  0.12503829  0.97911128  1
  S  S141  1  0.00000004  0.62503838  0.97911127  1
  S  S142  1  0.50000008  0.87455785  0.93747421  1
  S  S143  1  0.50000019  0.37455802  0.93747423  1
