# generated using pymatgen
data_Na2S
_symmetry_space_group_name_H-M   'P 1'
_cell_length_a   9.26727300
_cell_length_b   9.26727339
_cell_length_c   53.22197789
_cell_angle_alpha   90.00000000
_cell_angle_beta   90.00000000
_cell_angle_gamma   59.99999781
_symmetry_Int_Tables_number   1
_chemical_formula_structural   Na2S
_chemical_formula_sum   'Na112 S56'
_cell_volume   3958.45365119
_cell_formula_units_Z   56
loop_
 _symmetry_equiv_pos_site_id
 _symmetry_equiv_pos_as_xyz
  1  'x, y, z'
loop_
 _atom_site_type_symbol
 _atom_site_label
 _atom_site_symmetry_multiplicity
 _atom_site_fract_x
 _atom_site_fract_y
 _atom_site_fract_z
 _atom_site_occupancy
  Na  Na0  1  0.66664550  0.16665632  0.01792928  1
  Na  Na1  1  0.99998763  0.49999479  0.05427282  1
  Na  Na2  1  0.49998835  0.99998979  0.05427322  1
  Na  Na3  1  0.16664874  0.66664799  0.01792963  1
  Na  Na4  1  0.16665229  0.16665067  0.01792886  1
  Na  Na5  1  0.49999065  0.49999065  0.05427232  1
  Na  Na6  1  0.99998731  0.99999570  0.05427221  1
  Na  Na7  1  0.66664585  0.66665813  0.01792886  1
  Na  Na8  1  0.33333345  0.83333463  0.08920225  1
  Na  Na9  1  0.66666458  0.16666422  0.12527090  1
  Na  Na10  1  0.16666466  0.66666430  0.12527081  1
  Na  Na11  1  0.83333502  0.33333491  0.08920144  1
  Na  Na12  1  0.83333319  0.83333485  0.08920236  1
  Na  Na13  1  0.16666459  0.16666412  0.12527093  1
  Na  Na14  1  0.66666446  0.66666421  0.12527099  1
  Na  Na15  1  0.33333352  0.33333277  0.08920321  1
  Na  Na16  1  0.00000235  0.50000239  0.16094807  1
  Na  Na17  1  0.33333270  0.83333233  0.19670416  1
  Na  Na18  1  0.83333261  0.33333241  0.19670417  1
  Na  Na19  1  0.50000274  0.00000207  0.16094810  1
  Na  Na20  1  0.50000302  0.50000238  0.16094802  1
  Na  Na21  1  0.83333252  0.83333220  0.19670413  1
  Na  Na22  1  0.33333257  0.33333223  0.19670414  1
  Na  Na23  1  0.00000262  0.00000258  0.16094806  1
  Na  Na24  1  0.66667155  0.16667146  0.23229028  1
  Na  Na25  1  0.00000824  0.50000770  0.26800575  1
  Na  Na26  1  0.50000833  0.00000760  0.26800570  1
  Na  Na27  1  0.16667161  0.66667129  0.23229026  1
  Na  Na28  1  0.16667146  0.16667141  0.23229028  1
  Na  Na29  1  0.50000829  0.50000771  0.26800574  1
  Na  Na30  1  0.00000833  0.00000769  0.26800571  1
  Na  Na31  1  0.66667159  0.66667125  0.23229027  1
  Na  Na32  1  0.33337903  0.83337664  0.30353711  1
  Na  Na33  1  0.66671864  0.16671376  0.33918866  1
  Na  Na34  1  0.16671796  0.66671331  0.33918875  1
  Na  Na35  1  0.83337907  0.33337668  0.30353708  1
  Na  Na36  1  0.83337898  0.83337664  0.30353710  1
  Na  Na37  1  0.16671882  0.16671330  0.33918866  1
  Na  Na38  1  0.66671838  0.66671330  0.33918876  1
  Na  Na39  1  0.33337902  0.33337668  0.30353711  1
  Na  Na40  1  0.00004815  0.50003743  0.37476165  1
  Na  Na41  1  0.33337735  0.83336704  0.41039633  1
  Na  Na42  1  0.83337804  0.33336708  0.41039615  1
  Na  Na43  1  0.50004879  0.00003723  0.37476149  1
  Na  Na44  1  0.50004770  0.50003809  0.37476160  1
  Na  Na45  1  0.83337715  0.83336747  0.41039627  1
  Na  Na46  1  0.33337821  0.33336700  0.41039618  1
  Na  Na47  1  0.00004862  0.00003720  0.37476150  1
  Na  Na48  1  0.66671506  0.16671016  0.44625593  1
  Na  Na49  1  0.00004205  0.50003895  0.48131870  1
  Na  Na50  1  0.50004194  0.00003958  0.48131873  1
  Na  Na51  1  0.16671419  0.66670984  0.44625614  1
  Na  Na52  1  0.16671510  0.16670979  0.44625595  1
  Na  Na53  1  0.50004217  0.50003900  0.48131873  1
  Na  Na54  1  0.00004184  0.00003969  0.48131875  1
  Na  Na55  1  0.66671433  0.66670991  0.44625609  1
  Na  Na56  1  0.33334449  0.33334399  0.51792758  1
  Na  Na57  1  0.00000509  0.00000479  0.55427119  1
  Na  Na58  1  0.50000515  0.50000466  0.55427121  1
  Na  Na59  1  0.83334470  0.83334367  0.51792759  1
  Na  Na60  1  0.83334465  0.33334388  0.51792759  1
  Na  Na61  1  0.50000521  0.00000492  0.55427114  1
  Na  Na62  1  0.00000529  0.50000486  0.55427120  1
  Na  Na63  1  0.33334452  0.83334369  0.51792763  1
  Na  Na64  1  0.66666586  0.66666551  0.58920089  1
  Na  Na65  1  0.33333656  0.33333624  0.62527070  1
  Na  Na66  1  0.83333659  0.83333613  0.62527070  1
  Na  Na67  1  0.16666581  0.16666552  0.58920088  1
  Na  Na68  1  0.16666593  0.66666548  0.58920101  1
  Na  Na69  1  0.83333665  0.33333632  0.62527063  1
  Na  Na70  1  0.33333664  0.83333628  0.62527068  1
  Na  Na71  1  0.66666582  0.16666551  0.58920097  1
  Na  Na72  1  0.99999865  0.99999836  0.66094795  1
  Na  Na73  1  0.66666888  0.66666849  0.69670414  1
  Na  Na74  1  0.16666884  0.16666852  0.69670415  1
  Na  Na75  1  0.49999870  0.49999828  0.66094795  1
  Na  Na76  1  0.49999869  0.99999830  0.66094799  1
  Na  Na77  1  0.16666884  0.66666846  0.69670411  1
  Na  Na78  1  0.66666886  0.16666846  0.69670410  1
  Na  Na79  1  0.99999865  0.49999823  0.66094795  1
  Na  Na80  1  0.33332980  0.33332931  0.73229024  1
  Na  Na81  1  0.99999309  0.99999324  0.76800570  1
  Na  Na82  1  0.49999314  0.49999306  0.76800568  1
  Na  Na83  1  0.83332977  0.83332944  0.73229025  1
  Na  Na84  1  0.83332992  0.33332934  0.73229026  1
  Na  Na85  1  0.49999306  0.99999297  0.76800568  1
  Na  Na86  1  0.99999320  0.49999292  0.76800566  1
  Na  Na87  1  0.33332975  0.83332954  0.73229028  1
  Na  Na88  1  0.66662216  0.66662354  0.80353705  1
  Na  Na89  1  0.33328369  0.33328500  0.83918861  1
  Na  Na90  1  0.83328368  0.83328574  0.83918864  1
  Na  Na91  1  0.16662213  0.16662352  0.80353705  1
  Na  Na92  1  0.16662232  0.66662326  0.80353705  1
  Na  Na93  1  0.83328214  0.33328734  0.83918857  1
  Na  Na94  1  0.33328183  0.83328606  0.83918857  1
  Na  Na95  1  0.66662231  0.16662347  0.80353705  1
  Na  Na96  1  0.99995205  0.99996178  0.87476150  1
  Na  Na97  1  0.66662300  0.66663150  0.91039618  1
  Na  Na98  1  0.16662353  0.16663090  0.91039612  1
  Na  Na99  1  0.49995266  0.49996044  0.87476146  1
  Na  Na100  1  0.49995370  0.99995916  0.87476148  1
  Na  Na101  1  0.16662413  0.66662977  0.91039618  1
  Na  Na102  1  0.66662380  0.16663054  0.91039629  1
  Na  Na103  1  0.99995382  0.49996011  0.87476153  1
  Na  Na104  1  0.33328684  0.33328821  0.94625604  1
  Na  Na105  1  0.99995973  0.99996187  0.98131934  1
  Na  Na106  1  0.49996203  0.49996203  0.98131840  1
  Na  Na107  1  0.83328708  0.83328903  0.94625622  1
  Na  Na108  1  0.83328658  0.33328996  0.94625614  1
  Na  Na109  1  0.49996009  0.99995950  0.98131896  1
  Na  Na110  1  0.99995673  0.49995903  0.98131923  1
  Na  Na111  1  0.33328551  0.83329012  0.94625592  1
  S  S112  1  0.33332470  0.83332564  0.03530383  1
  S  S113  1  0.83332425  0.83332931  0.03530392  1
  S  S114  1  0.33332599  0.33332679  0.03530469  1
  S  S115  1  0.83332385  0.33332957  0.03530297  1
  S  S116  1  0.99999854  0.49999967  0.10747525  1
  S  S117  1  0.50000030  0.49999946  0.10747492  1
  S  S118  1  0.99999930  0.00000001  0.10747485  1
  S  S119  1  0.49999963  0.99999783  0.10747543  1
  S  S120  1  0.66666741  0.16666659  0.17887267  1
  S  S121  1  0.16666744  0.16666688  0.17887261  1
  S  S122  1  0.66666704  0.66666720  0.17887270  1
  S  S123  1  0.16666745  0.66666746  0.17887267  1
  S  S124  1  0.33333822  0.83333745  0.25023661  1
  S  S125  1  0.83333790  0.83333820  0.25023664  1
  S  S126  1  0.33333799  0.33333787  0.25023664  1
  S  S127  1  0.83333751  0.33333800  0.25023663  1
  S  S128  1  0.00008923  0.50008623  0.32137015  1
  S  S129  1  0.50008917  0.50008717  0.32137006  1
  S  S130  1  0.00008966  0.00008655  0.32137008  1
  S  S131  1  0.50008969  0.00008672  0.32137003  1
  S  S132  1  0.66669733  0.16669014  0.39266278  1
  S  S133  1  0.16669733  0.16668940  0.39266273  1
  S  S134  1  0.66669657  0.66669018  0.39266285  1
  S  S135  1  0.16669666  0.66668996  0.39266279  1
  S  S136  1  0.33336366  0.83336130  0.46400140  1
  S  S137  1  0.83336374  0.83336136  0.46400136  1
  S  S138  1  0.33336384  0.33336085  0.46400134  1
  S  S139  1  0.83336396  0.33336122  0.46400133  1
  S  S140  1  0.66667024  0.66666998  0.53530309  1
  S  S141  1  0.16667046  0.66666979  0.53530315  1
  S  S142  1  0.66667055  0.16666999  0.53530313  1
  S  S143  1  0.16667050  0.16666989  0.53530311  1
  S  S144  1  0.00000091  0.00000014  0.60747435  1
  S  S145  1  0.50000026  0.00000048  0.60747436  1
  S  S146  1  0.00000061  0.50000039  0.60747430  1
  S  S147  1  0.50000040  0.50000060  0.60747433  1
  S  S148  1  0.33333374  0.33333313  0.67887259  1
  S  S149  1  0.83333369  0.33333310  0.67887252  1
  S  S150  1  0.33333324  0.83333353  0.67887255  1
  S  S151  1  0.83333381  0.83333327  0.67887261  1
  S  S152  1  0.66666277  0.66666264  0.75023660  1
  S  S153  1  0.16666291  0.66666223  0.75023662  1
  S  S154  1  0.66666313  0.16666198  0.75023661  1
  S  S155  1  0.16666315  0.16666221  0.75023664  1
  S  S156  1  0.99991146  0.99993831  0.82136598  1
  S  S157  1  0.49991129  0.99991272  0.82137004  1
  S  S158  1  0.99991191  0.49991310  0.82137004  1
  S  S159  1  0.49991113  0.49993869  0.82136596  1
  S  S160  1  0.33330407  0.33330778  0.89266264  1
  S  S161  1  0.83330375  0.33330892  0.89266278  1
  S  S162  1  0.33330339  0.83330869  0.89266269  1
  S  S163  1  0.83330436  0.83330819  0.89266278  1
  S  S164  1  0.66663601  0.66663946  0.96400158  1
  S  S165  1  0.16663684  0.66663728  0.96400194  1
  S  S166  1  0.66663632  0.16663796  0.96400184  1
  S  S167  1  0.16663749  0.16663774  0.96400166  1
