# generated using pymatgen
data_Na2S
_symmetry_space_group_name_H-M   'P 1'
_cell_length_a   9.26727300
_cell_length_b   9.26727339
_cell_length_c   45.62813727
_cell_angle_alpha   90.00000000
_cell_angle_beta   90.00000000
_cell_angle_gamma   59.99999781
_symmetry_Int_Tables_number   1
_chemical_formula_structural   Na2S
_chemical_formula_sum   'Na96 S48'
_cell_volume   3393.65190345
_cell_formula_units_Z   48
loop_
 _symmetry_equiv_pos_site_id
 _symmetry_equiv_pos_as_xyz
  1  'x, y, z'
loop_
 _atom_site_type_symbol
 _atom_site_label
 _atom_site_symmetry_multiplicity
 _atom_site_fract_x
 _atom_site_fract_y
 _atom_site_fract_z
 _atom_site_occupancy
  Na  Na0  1  0.91194457  0.04407472  0.02162077  1
  Na  Na1  1  0.41194475  0.54407400  0.02162054  1
  Na  Na2  1  0.41194377  0.04407469  0.02162073  1
  Na  Na3  1  0.91194710  0.54406927  0.02162139  1
  Na  Na4  1  0.58049382  0.70978110  0.10425131  1
  Na  Na5  1  0.24592413  0.37708078  0.06245772  1
  Na  Na6  1  0.74592345  0.87708151  0.06245782  1
  Na  Na7  1  0.08049352  0.20978133  0.10425133  1
  Na  Na8  1  0.08049338  0.70978104  0.10425134  1
  Na  Na9  1  0.74592363  0.37708085  0.06245769  1
  Na  Na10  1  0.24592374  0.87708118  0.06245761  1
  Na  Na11  1  0.58049347  0.20978118  0.10425134  1
  Na  Na12  1  0.24903100  0.37550361  0.18745099  1
  Na  Na13  1  0.91454269  0.04275521  0.14591966  1
  Na  Na14  1  0.41454274  0.54275506  0.14591967  1
  Na  Na15  1  0.74903093  0.87550366  0.18745101  1
  Na  Na16  1  0.74903089  0.37550365  0.18745101  1
  Na  Na17  1  0.41454279  0.04275528  0.14591967  1
  Na  Na18  1  0.91454286  0.54275512  0.14591966  1
  Na  Na19  1  0.24903095  0.87550364  0.18745102  1
  Na  Na20  1  0.91617170  0.04193946  0.27073284  1
  Na  Na21  1  0.58271780  0.70866634  0.22916122  1
  Na  Na22  1  0.08271790  0.20866627  0.22916122  1
  Na  Na23  1  0.41617185  0.54193931  0.27073284  1
  Na  Na24  1  0.41617180  0.04193940  0.27073284  1
  Na  Na25  1  0.08271790  0.70866642  0.22916120  1
  Na  Na26  1  0.58271784  0.20866642  0.22916121  1
  Na  Na27  1  0.91617172  0.54193941  0.27073283  1
  Na  Na28  1  0.58180621  0.70913064  0.35402305  1
  Na  Na29  1  0.24932773  0.37536994  0.31243509  1
  Na  Na30  1  0.74932770  0.87537008  0.31243506  1
  Na  Na31  1  0.08180620  0.20913057  0.35402307  1
  Na  Na32  1  0.08180626  0.70913084  0.35402298  1
  Na  Na33  1  0.74932802  0.37537002  0.31243512  1
  Na  Na34  1  0.24932809  0.87536997  0.31243511  1
  Na  Na35  1  0.58180612  0.20913103  0.35402297  1
  Na  Na36  1  0.24590227  0.37711078  0.43681330  1
  Na  Na37  1  0.91435728  0.04286885  0.39607838  1
  Na  Na38  1  0.41435728  0.54286875  0.39607839  1
  Na  Na39  1  0.74590219  0.87711093  0.43681329  1
  Na  Na40  1  0.74590235  0.37711084  0.43681328  1
  Na  Na41  1  0.41435739  0.04286889  0.39607838  1
  Na  Na42  1  0.91435743  0.54286899  0.39607839  1
  Na  Na43  1  0.24590236  0.87711077  0.43681325  1
  Na  Na44  1  0.57706822  0.71150772  0.47914653  1
  Na  Na45  1  0.07706825  0.21150759  0.47914652  1
  Na  Na46  1  0.07706823  0.71150769  0.47914651  1
  Na  Na47  1  0.57706821  0.21150762  0.47914651  1
  Na  Na48  1  0.23808886  0.88092510  0.52178449  1
  Na  Na49  1  0.73808884  0.38092521  0.52178449  1
  Na  Na50  1  0.73808899  0.88092508  0.52178456  1
  Na  Na51  1  0.23808888  0.38092522  0.52178454  1
  Na  Na52  1  0.56877746  0.21555724  0.60439923  1
  Na  Na53  1  0.90401854  0.54795078  0.56261459  1
  Na  Na54  1  0.40401854  0.04795078  0.56261457  1
  Na  Na55  1  0.06877750  0.71555721  0.60439925  1
  Na  Na56  1  0.06877750  0.21555732  0.60439924  1
  Na  Na57  1  0.40401864  0.54795080  0.56261460  1
  Na  Na58  1  0.90401862  0.04795085  0.56261458  1
  Na  Na59  1  0.56877752  0.71555722  0.60439923  1
  Na  Na60  1  0.90088072  0.54952215  0.68745118  1
  Na  Na61  1  0.23476547  0.88256242  0.64596302  1
  Na  Na62  1  0.73476543  0.38256251  0.64596302  1
  Na  Na63  1  0.40088072  0.04952225  0.68745121  1
  Na  Na64  1  0.40088091  0.54952212  0.68745120  1
  Na  Na65  1  0.73476544  0.88256247  0.64596301  1
  Na  Na66  1  0.23476551  0.38256248  0.64596301  1
  Na  Na67  1  0.90088071  0.04952234  0.68745120  1
  Na  Na68  1  0.23413618  0.88291038  0.77059986  1
  Na  Na69  1  0.56739694  0.21626813  0.72906624  1
  Na  Na70  1  0.06739670  0.71626816  0.72906623  1
  Na  Na71  1  0.73413623  0.38291016  0.77059990  1
  Na  Na72  1  0.73413616  0.88291015  0.77059994  1
  Na  Na73  1  0.06739651  0.21626833  0.72906624  1
  Na  Na74  1  0.56739697  0.71626791  0.72906626  1
  Na  Na75  1  0.23413625  0.38291013  0.77059985  1
  Na  Na76  1  0.56826695  0.21584596  0.85385106  1
  Na  Na77  1  0.90099512  0.54947842  0.81227648  1
  Na  Na78  1  0.40099428  0.04947915  0.81227643  1
  Na  Na79  1  0.06826644  0.71584627  0.85385115  1
  Na  Na80  1  0.06826688  0.21584598  0.85385104  1
  Na  Na81  1  0.40099442  0.54947919  0.81227646  1
  Na  Na82  1  0.90099516  0.04947889  0.81227641  1
  Na  Na83  1  0.56826695  0.71584618  0.85385108  1
  Na  Na84  1  0.90426618  0.54784755  0.93664281  1
  Na  Na85  1  0.23568765  0.88213505  0.89589536  1
  Na  Na86  1  0.73568755  0.38213513  0.89589536  1
  Na  Na87  1  0.40426423  0.04784592  0.93664237  1
  Na  Na88  1  0.40426925  0.54784156  0.93664305  1
  Na  Na89  1  0.73568554  0.88213828  0.89589433  1
  Na  Na90  1  0.23568745  0.38213490  0.89589535  1
  Na  Na91  1  0.90426960  0.04784584  0.93664237  1
  Na  Na92  1  0.57307367  0.21346232  0.97894485  1
  Na  Na93  1  0.07307002  0.71346110  0.97894426  1
  Na  Na94  1  0.07307718  0.21345555  0.97894495  1
  Na  Na95  1  0.57307860  0.71346107  0.97894429  1
  S  S96  1  0.57877318  0.71063980  0.04180043  1
  S  S97  1  0.07877151  0.71063975  0.04180030  1
  S  S98  1  0.57877279  0.21063925  0.04180053  1
  S  S99  1  0.07877267  0.21063878  0.04180070  1
  S  S100  1  0.24754772  0.37624403  0.12496321  1
  S  S101  1  0.74754819  0.37624386  0.12496315  1
  S  S102  1  0.24754817  0.87624388  0.12496315  1
  S  S103  1  0.74754765  0.87624352  0.12496321  1
  S  S104  1  0.91589945  0.04206537  0.20824550  1
  S  S105  1  0.41589863  0.04206503  0.20824545  1
  S  S106  1  0.91589884  0.54206526  0.20824539  1
  S  S107  1  0.41589851  0.54206603  0.20824541  1
  S  S108  1  0.58271964  0.70865951  0.29151716  1
  S  S109  1  0.08271988  0.70865941  0.29151722  1
  S  S110  1  0.58271968  0.20865948  0.29151724  1
  S  S111  1  0.08271977  0.20865964  0.29151719  1
  S  S112  1  0.24818831  0.37593156  0.37483713  1
  S  S113  1  0.74818831  0.37593223  0.37483719  1
  S  S114  1  0.24818823  0.87593217  0.37483719  1
  S  S115  1  0.74818825  0.87593216  0.37483714  1
  S  S116  1  0.91210466  0.04398285  0.45894740  1
  S  S117  1  0.41210471  0.04398269  0.45894740  1
  S  S118  1  0.91210467  0.54398303  0.45894741  1
  S  S119  1  0.41210476  0.54398269  0.45894743  1
  S  S120  1  0.57159103  0.21414544  0.54200249  1
  S  S121  1  0.07159094  0.21414581  0.54200245  1
  S  S122  1  0.57159081  0.71414554  0.54200247  1
  S  S123  1  0.07159093  0.71414540  0.54200244  1
  S  S124  1  0.90168471  0.54911225  0.62503754  1
  S  S125  1  0.40168496  0.54911224  0.62503752  1
  S  S126  1  0.90168489  0.04911235  0.62503755  1
  S  S127  1  0.40168462  0.04911238  0.62503759  1
  S  S128  1  0.23412384  0.88291814  0.70824863  1
  S  S129  1  0.73412304  0.88291861  0.70824861  1
  S  S130  1  0.23412371  0.38291791  0.70824862  1
  S  S131  1  0.73412302  0.38291851  0.70824870  1
  S  S132  1  0.56769134  0.21614118  0.79139665  1
  S  S133  1  0.06769069  0.21614194  0.79139666  1
  S  S134  1  0.56769124  0.71614123  0.79139673  1
  S  S135  1  0.06769135  0.71614143  0.79139676  1
  S  S136  1  0.90179199  0.54909167  0.87466108  1
  S  S137  1  0.40179168  0.54909171  0.87466117  1
  S  S138  1  0.90179258  0.04909255  0.87466084  1
  S  S139  1  0.40179065  0.04909266  0.87466074  1
  S  S140  1  0.23824648  0.88080540  0.95876271  1
  S  S141  1  0.73823644  0.88084417  0.95876113  1
  S  S142  1  0.23824320  0.38080962  0.95876278  1
  S  S143  1  0.73824733  0.38080825  0.95876276  1
