# generated using pymatgen
data_Na2S
_symmetry_space_group_name_H-M   'P 1'
_cell_length_a   6.55295200
_cell_length_b   14.65284600
_cell_length_c   57.79475214
_cell_angle_alpha   90.00000000
_cell_angle_beta   90.00000000
_cell_angle_gamma   90.00000000
_symmetry_Int_Tables_number   1
_chemical_formula_structural   Na2S
_chemical_formula_sum   'Na152 S76'
_cell_volume   5549.41722106
_cell_formula_units_Z   76
loop_
 _symmetry_equiv_pos_site_id
 _symmetry_equiv_pos_as_xyz
  1  'x, y, z'
loop_
 _atom_site_type_symbol
 _atom_site_label
 _atom_site_symmetry_multiplicity
 _atom_site_fract_x
 _atom_site_fract_y
 _atom_site_fract_z
 _atom_site_occupancy
  Na  Na0  1  0.72333236  0.75854767  0.05600770  1
  Na  Na1  1  0.22527244  0.06496021  0.02817706  1
  Na  Na2  1  0.26464258  0.45387093  0.08387795  1
  Na  Na3  1  0.77685728  0.25853222  0.05601131  1
  Na  Na4  1  0.23552431  0.95387161  0.08388391  1
  Na  Na5  1  0.27497522  0.56503848  0.02819470  1
  Na  Na6  1  0.70835223  0.04497438  0.03841783  1
  Na  Na7  1  0.76669470  0.44812797  0.08530981  1
  Na  Na8  1  0.37728496  0.36430451  0.01702695  1
  Na  Na9  1  0.23722614  0.74609774  0.06073996  1
  Na  Na10  1  0.73352341  0.94815085  0.08531562  1
  Na  Na11  1  0.79185013  0.54500223  0.03841146  1
  Na  Na12  1  0.26291223  0.24607241  0.06072869  1
  Na  Na13  1  0.12319215  0.86427274  0.01703455  1
  Na  Na14  1  0.75030815  0.15279193  0.10898660  1
  Na  Na15  1  0.75102965  0.55386768  0.16050439  1
  Na  Na16  1  0.24534068  0.85304943  0.13508342  1
  Na  Na17  1  0.25045221  0.25365086  0.18616082  1
  Na  Na18  1  0.74885440  0.05384340  0.16050073  1
  Na  Na19  1  0.74973989  0.65277400  0.10899283  1
  Na  Na20  1  0.24923418  0.75367396  0.18618181  1
  Na  Na21  1  0.25462397  0.35304550  0.13507632  1
  Na  Na22  1  0.74678588  0.85234420  0.13577861  1
  Na  Na23  1  0.75117671  0.25316247  0.18630086  1
  Na  Na24  1  0.25028395  0.15192566  0.10998557  1
  Na  Na25  1  0.25040106  0.55296954  0.16089897  1
  Na  Na26  1  0.74842977  0.75323203  0.18632973  1
  Na  Na27  1  0.75321102  0.35236115  0.13577685  1
  Na  Na28  1  0.24947008  0.05295876  0.16088826  1
  Na  Na29  1  0.24980412  0.65189879  0.10998932  1
  Na  Na30  1  0.74954893  0.95395601  0.21159848  1
  Na  Na31  1  0.74985278  0.35387116  0.26246202  1
  Na  Na32  1  0.24929910  0.65378294  0.23717993  1
  Na  Na33  1  0.24968425  0.05357216  0.28807929  1
  Na  Na34  1  0.74913563  0.85392298  0.26250254  1
  Na  Na35  1  0.75001940  0.45397849  0.21159689  1
  Na  Na36  1  0.24930171  0.55358242  0.28807600  1
  Na  Na37  1  0.24998493  0.15372627  0.23715007  1
  Na  Na38  1  0.74959887  0.65378069  0.23718826  1
  Na  Na39  1  0.74987379  0.05370809  0.28799671  1
  Na  Na40  1  0.24922343  0.95382854  0.21164395  1
  Na  Na41  1  0.24962603  0.35384597  0.26246847  1
  Na  Na42  1  0.74903238  0.55374633  0.28800038  1
  Na  Na43  1  0.74972849  0.15372956  0.23717619  1
  Na  Na44  1  0.24934727  0.85386896  0.26250341  1
  Na  Na45  1  0.25036670  0.45376717  0.21163166  1
  Na  Na46  1  0.74861889  0.75353129  0.31345283  1
  Na  Na47  1  0.75219633  0.15303318  0.36433742  1
  Na  Na48  1  0.24883222  0.45237104  0.33910372  1
  Na  Na49  1  0.24737453  0.85089916  0.39114093  1
  Na  Na50  1  0.74715570  0.65301060  0.36435036  1
  Na  Na51  1  0.75027849  0.25351141  0.31340981  1
  Na  Na52  1  0.25223438  0.35090470  0.39112187  1
  Na  Na53  1  0.25015131  0.95237807  0.33913648  1
  Na  Na54  1  0.74891064  0.45322152  0.33859744  1
  Na  Na55  1  0.74728508  0.85164948  0.38960320  1
  Na  Na56  1  0.24845862  0.75386507  0.31338931  1
  Na  Na57  1  0.25259855  0.15378847  0.36397133  1
  Na  Na58  1  0.75216125  0.35156399  0.38957241  1
  Na  Na59  1  0.75007821  0.95319534  0.33861449  1
  Na  Na60  1  0.24675259  0.65378638  0.36400540  1
  Na  Na61  1  0.25035467  0.25389544  0.31335744  1
  Na  Na62  1  0.73289211  0.54956637  0.41410700  1
  Na  Na63  1  0.75484220  0.95011373  0.46777701  1
  Na  Na64  1  0.25043804  0.24053534  0.44649281  1
  Na  Na65  1  0.74515232  0.45009499  0.46776823  1
  Na  Na66  1  0.76703072  0.04961005  0.41409832  1
  Na  Na67  1  0.24952026  0.74053269  0.44649850  1
  Na  Na68  1  0.75648840  0.25360460  0.43924797  1
  Na  Na69  1  0.81052350  0.67394385  0.48802684  1
  Na  Na70  1  0.23676947  0.55604321  0.41382329  1
  Na  Na71  1  0.29399460  0.95196309  0.46170501  1
  Na  Na72  1  0.68952792  0.17396105  0.48801823  1
  Na  Na73  1  0.74347642  0.75360739  0.43926181  1
  Na  Na74  1  0.20598094  0.45194247  0.46169947  1
  Na  Na75  1  0.26301853  0.05609238  0.41383880  1
  Na  Na76  1  0.77674703  0.04115554  0.55608776  1
  Na  Na77  1  0.27437507  0.73434375  0.52805703  1
  Na  Na78  1  0.23620026  0.34597981  0.58382146  1
  Na  Na79  1  0.72346359  0.54118050  0.55608981  1
  Na  Na80  1  0.26397425  0.84594166  0.58381353  1
  Na  Na81  1  0.22579523  0.23434858  0.52806297  1
  Na  Na82  1  0.79099674  0.75421920  0.53842484  1
  Na  Na83  1  0.73397903  0.35155442  0.58526886  1
  Na  Na84  1  0.12309608  0.43487204  0.51715136  1
  Na  Na85  1  0.26265070  0.05353605  0.56067935  1
  Na  Na86  1  0.76617315  0.85153381  0.58526665  1
  Na  Na87  1  0.70912632  0.25423447  0.53842730  1
  Na  Na88  1  0.23748844  0.55354603  0.56068244  1
  Na  Na89  1  0.37710193  0.93486698  0.51714916  1
  Na  Na90  1  0.74946592  0.64703359  0.60895135  1
  Na  Na91  1  0.74907250  0.24582956  0.66049718  1
  Na  Na92  1  0.25472807  0.94649493  0.63499774  1
  Na  Na93  1  0.24935679  0.54600718  0.68611786  1
  Na  Na94  1  0.75103684  0.74581751  0.66049247  1
  Na  Na95  1  0.75066572  0.14702776  0.60895411  1
  Na  Na96  1  0.25077504  0.04599514  0.68611484  1
  Na  Na97  1  0.24543419  0.44653182  0.63499772  1
  Na  Na98  1  0.75319126  0.94731503  0.63569633  1
  Na  Na99  1  0.74880733  0.54646335  0.68626461  1
  Na  Na100  1  0.24952203  0.64782484  0.60994966  1
  Na  Na101  1  0.24960524  0.24656851  0.66084960  1
  Na  Na102  1  0.75132083  0.04646690  0.68626565  1
  Na  Na103  1  0.74695575  0.44733686  0.63569695  1
  Na  Na104  1  0.25052867  0.74658201  0.66084681  1
  Na  Na105  1  0.25061221  0.14781170  0.60995547  1
  Na  Na106  1  0.75042004  0.84606529  0.71159829  1
  Na  Na107  1  0.74980239  0.44659091  0.76247738  1
  Na  Na108  1  0.25037684  0.14651670  0.73714920  1
  Na  Na109  1  0.25000435  0.74693896  0.78808701  1
  Na  Na110  1  0.75037972  0.94660054  0.76246688  1
  Na  Na111  1  0.74974909  0.34606885  0.71160292  1
  Na  Na112  1  0.25021367  0.24692609  0.78808277  1
  Na  Na113  1  0.24977876  0.64650267  0.73715397  1
  Na  Na114  1  0.75022699  0.14647872  0.73715066  1
  Na  Na115  1  0.74987184  0.74675277  0.78797004  1
  Na  Na116  1  0.25067145  0.84621908  0.71161972  1
  Na  Na117  1  0.24999985  0.44658749  0.76248005  1
  Na  Na118  1  0.75033199  0.24677630  0.78796481  1
  Na  Na119  1  0.74999898  0.64644328  0.73716148  1
  Na  Na120  1  0.25021505  0.94660500  0.76247077  1
  Na  Na121  1  0.24947955  0.34622394  0.71162456  1
  Na  Na122  1  0.75070941  0.04702587  0.81341364  1
  Na  Na123  1  0.74798051  0.64737111  0.86429412  1
  Na  Na124  1  0.25065375  0.34813885  0.83910542  1
  Na  Na125  1  0.25254199  0.94953960  0.89107505  1
  Na  Na126  1  0.75246134  0.14726902  0.86430410  1
  Na  Na127  1  0.74948172  0.54701260  0.81341896  1
  Na  Na128  1  0.24801606  0.44952661  0.89105033  1
  Na  Na129  1  0.24955923  0.84815247  0.83910873  1
  Na  Na130  1  0.75062817  0.34728369  0.83855627  1
  Na  Na131  1  0.75246460  0.94868853  0.88951926  1
  Na  Na132  1  0.25080849  0.04664592  0.81333861  1
  Na  Na133  1  0.24761096  0.64672321  0.86394986  1
  Na  Na134  1  0.74800919  0.44861167  0.88949901  1
  Na  Na135  1  0.74962787  0.84730562  0.83856659  1
  Na  Na136  1  0.25275593  0.14668510  0.86395989  1
  Na  Na137  1  0.24941505  0.54662690  0.81335369  1
  Na  Na138  1  0.76761814  0.25059351  0.91403557  1
  Na  Na139  1  0.74490942  0.84973985  0.96760230  1
  Na  Na140  1  0.25050628  0.55964889  0.94654324  1
  Na  Na141  1  0.75618242  0.34985822  0.96762549  1
  Na  Na142  1  0.73328651  0.75064761  0.91403269  1
  Na  Na143  1  0.25044482  0.05974904  0.94659023  1
  Na  Na144  1  0.74437452  0.54645102  0.93913664  1
  Na  Na145  1  0.69086380  0.12607477  0.98803031  1
  Na  Na146  1  0.26361387  0.24400456  0.91379970  1
  Na  Na147  1  0.20583940  0.84809521  0.96155886  1
  Na  Na148  1  0.81010479  0.62598863  0.98798986  1
  Na  Na149  1  0.75653901  0.04643595  0.93917686  1
  Na  Na150  1  0.29514797  0.34814615  0.96155260  1
  Na  Na151  1  0.23733776  0.74405875  0.91377833  1
  S  S152  1  0.04443347  0.40298512  0.04567835  1
  S  S153  1  0.99050427  0.80276620  0.09762444  1
  S  S154  1  0.99303327  0.09970751  0.07085191  1
  S  S155  1  0.99098392  0.69667477  0.02411177  1
  S  S156  1  0.50953381  0.30278635  0.09762708  1
  S  S157  1  0.45589843  0.90294946  0.04568768  1
  S  S158  1  0.50914151  0.19664709  0.02411730  1
  S  S159  1  0.50726382  0.59970458  0.07086961  1
  S  S160  1  0.00177178  0.20274645  0.14807250  1
  S  S161  1  0.99972236  0.60387605  0.19917643  1
  S  S162  1  0.99843392  0.90345804  0.17377457  1
  S  S163  1  0.00415903  0.50276560  0.12287078  1
  S  S164  1  0.50000026  0.10385192  0.19916681  1
  S  S165  1  0.49807430  0.70275746  0.14808796  1
  S  S166  1  0.49585110  0.00276533  0.12287048  1
  S  S167  1  0.50137486  0.40345017  0.17377386  1
  S  S168  1  0.99971545  0.00373460  0.25004753  1
  S  S169  1  0.99968806  0.40355808  0.30078722  1
  S  S170  1  0.99891122  0.70378610  0.27555457  1
  S  S171  1  0.00007305  0.30379600  0.22459328  1
  S  S172  1  0.49888070  0.90350820  0.30085195  1
  S  S173  1  0.49963291  0.50375289  0.25004325  1
  S  S174  1  0.49900663  0.80378866  0.22465082  1
  S  S175  1  0.49978812  0.20373144  0.27552568  1
  S  S176  1  0.99808145  0.80337114  0.35210898  1
  S  S177  1  0.00775137  0.20313533  0.40288869  1
  S  S178  1  0.99661314  0.50109526  0.37668588  1
  S  S179  1  0.00063735  0.10361866  0.32639468  1
  S  S180  1  0.49200335  0.70312902  0.40291006  1
  S  S181  1  0.50102202  0.30331079  0.35205744  1
  S  S182  1  0.49820974  0.60366354  0.32641376  1
  S  S183  1  0.50287648  0.00119841  0.37669018  1
  S  S184  1  0.97414136  0.59765752  0.45005180  1
  S  S185  1  0.99193535  0.30881973  0.48306048  1
  S  S186  1  0.00700329  0.90117114  0.42998836  1
  S  S187  1  0.52583268  0.09766505  0.45005080  1
  S  S188  1  0.49282572  0.40113996  0.42997645  1
  S  S189  1  0.50809450  0.80880596  0.48305914  1
  S  S190  1  0.45733587  0.39651454  0.54563962  1
  S  S191  1  0.50975608  0.99707926  0.59748846  1
  S  S192  1  0.50587290  0.70012962  0.57089454  1
  S  S193  1  0.50944880  0.10258561  0.52410636  1
  S  S194  1  0.99050201  0.49706866  0.59749042  1
  S  S195  1  0.04286092  0.89645474  0.54562625  1
  S  S196  1  0.99069804  0.60257197  0.52410835  1
  S  S197  1  0.99424655  0.20012573  0.57089746  1
  S  S198  1  0.49831807  0.59676116  0.64802489  1
  S  S199  1  0.50034899  0.19599999  0.69917101  1
  S  S200  1  0.50152706  0.89603303  0.67370658  1
  S  S201  1  0.49638170  0.29669470  0.62283404  1
  S  S202  1  0.99994109  0.69591690  0.69915665  1
  S  S203  1  0.00178296  0.09673438  0.64803107  1
  S  S204  1  0.00371884  0.79670159  0.62282882  1
  S  S205  1  0.99849824  0.39603343  0.67370709  1
  S  S206  1  0.50006613  0.79649770  0.75003601  1
  S  S207  1  0.49986896  0.39692365  0.80085971  1
  S  S208  1  0.50054876  0.09664736  0.77552387  1
  S  S209  1  0.49963755  0.49651494  0.72459030  1
  S  S210  1  0.00031181  0.89694593  0.80085415  1
  S  S211  1  0.00007784  0.29650462  0.75004219  1
  S  S212  1  0.00056421  0.99651990  0.72458555  1
  S  S213  1  0.99967794  0.59661265  0.77552780  1
  S  S214  1  0.50131665  0.99727510  0.85203494  1
  S  S215  1  0.49282044  0.59715899  0.90286702  1
  S  S216  1  0.50332870  0.29898528  0.87665701  1
  S  S217  1  0.49924890  0.69712186  0.82634503  1
  S  S218  1  0.00773655  0.09713359  0.90287028  1
  S  S219  1  0.99891799  0.49728060  0.85203368  1
  S  S220  1  0.00122066  0.19711982  0.82635861  1
  S  S221  1  0.99708479  0.79906028  0.87666388  1
  S  S222  1  0.52676947  0.20228263  0.95002712  1
  S  S223  1  0.50869252  0.49069216  0.98299548  1
  S  S224  1  0.49257529  0.89908941  0.92984611  1
  S  S225  1  0.97438219  0.70212146  0.94997586  1
  S  S226  1  0.00813859  0.39908057  0.92983206  1
  S  S227  1  0.99210569  0.99062412  0.98299705  1
