# generated using pymatgen
data_Na2S
_symmetry_space_group_name_H-M   'P 1'
_cell_length_a   14.65284600
_cell_length_b   14.65284558
_cell_length_c   55.60649916
_cell_angle_alpha   90.00000000
_cell_angle_beta   90.00000000
_cell_angle_gamma   78.46304143
_symmetry_Int_Tables_number   1
_chemical_formula_structural   Na2S
_chemical_formula_sum   'Na320 S160'
_cell_volume   11697.82524387
_cell_formula_units_Z   160
loop_
 _symmetry_equiv_pos_site_id
 _symmetry_equiv_pos_as_xyz
  1  'x, y, z'
loop_
 _atom_site_type_symbol
 _atom_site_label
 _atom_site_symmetry_multiplicity
 _atom_site_fract_x
 _atom_site_fract_y
 _atom_site_fract_z
 _atom_site_occupancy
  Na  Na0  1  0.56631398  0.56631395  0.04517227  1
  Na  Na1  1  0.06631398  0.06631396  0.04517228  1
  Na  Na2  1  0.98082248  0.48082248  0.09241811  1
  Na  Na3  1  0.48082248  0.98082247  0.09241811  1
  Na  Na4  1  0.81965431  0.81965432  0.04466205  1
  Na  Na5  1  0.31965431  0.31965433  0.04466205  1
  Na  Na6  1  0.22857947  0.72857947  0.09306096  1
  Na  Na7  1  0.72857947  0.22857947  0.09306095  1
  Na  Na8  1  0.47857945  0.47857943  0.09306097  1
  Na  Na9  1  0.97857945  0.97857943  0.09306097  1
  Na  Na10  1  0.06965434  0.56965431  0.04466204  1
  Na  Na11  1  0.56965433  0.06965430  0.04466203  1
  Na  Na12  1  0.73082258  0.73082255  0.09241813  1
  Na  Na13  1  0.23082257  0.23082255  0.09241813  1
  Na  Na14  1  0.31631399  0.81631398  0.04517231  1
  Na  Na15  1  0.81631399  0.31631398  0.04517231  1
  Na  Na16  1  0.86062292  0.61062295  0.02587314  1
  Na  Na17  1  0.36062293  0.11062295  0.02587313  1
  Na  Na18  1  0.26858674  0.51858671  0.07178312  1
  Na  Na19  1  0.76858674  0.01858671  0.07178312  1
  Na  Na20  1  0.52079034  0.77079029  0.06927470  1
  Na  Na21  1  0.02079034  0.27079029  0.06927470  1
  Na  Na22  1  0.09185067  0.84185055  0.02229055  1
  Na  Na23  1  0.59185067  0.34185056  0.02229055  1
  Na  Na24  1  0.77079028  0.52079030  0.06927470  1
  Na  Na25  1  0.27079028  0.02079031  0.06927470  1
  Na  Na26  1  0.34185062  0.59185067  0.02229053  1
  Na  Na27  1  0.84185063  0.09185066  0.02229053  1
  Na  Na28  1  0.61062303  0.86062299  0.02587311  1
  Na  Na29  1  0.11062301  0.36062297  0.02587312  1
  Na  Na30  1  0.01858667  0.76858669  0.07178312  1
  Na  Na31  1  0.51858668  0.26858669  0.07178312  1
  Na  Na32  1  0.39619159  0.39619162  0.14243930  1
  Na  Na33  1  0.89619160  0.89619161  0.14243930  1
  Na  Na34  1  0.81300009  0.31300009  0.18950122  1
  Na  Na35  1  0.31300008  0.81300006  0.18950122  1
  Na  Na36  1  0.64662221  0.64662220  0.14110589  1
  Na  Na37  1  0.14662222  0.14662218  0.14110589  1
  Na  Na38  1  0.06256873  0.56256872  0.19005464  1
  Na  Na39  1  0.56256870  0.06256872  0.19005462  1
  Na  Na40  1  0.31256868  0.31256867  0.19005463  1
  Na  Na41  1  0.81256866  0.81256866  0.19005461  1
  Na  Na42  1  0.89662224  0.39662224  0.14110593  1
  Na  Na43  1  0.39662222  0.89662222  0.14110594  1
  Na  Na44  1  0.56300016  0.56300013  0.18950118  1
  Na  Na45  1  0.06300014  0.06300014  0.18950117  1
  Na  Na46  1  0.14619163  0.64619159  0.14243928  1
  Na  Na47  1  0.64619163  0.14619157  0.14243928  1
  Na  Na48  1  0.68767344  0.43767342  0.11724867  1
  Na  Na49  1  0.18767346  0.93767341  0.11724867  1
  Na  Na50  1  0.10405990  0.35405997  0.16580724  1
  Na  Na51  1  0.60405991  0.85405998  0.16580723  1
  Na  Na52  1  0.35443751  0.60443748  0.16573281  1
  Na  Na53  1  0.85443753  0.10443747  0.16573282  1
  Na  Na54  1  0.93718515  0.68718506  0.11857597  1
  Na  Na55  1  0.43718514  0.18718507  0.11857597  1
  Na  Na56  1  0.60443743  0.35443743  0.16573279  1
  Na  Na57  1  0.10443744  0.85443743  0.16573279  1
  Na  Na58  1  0.18718507  0.43718514  0.11857597  1
  Na  Na59  1  0.68718508  0.93718512  0.11857597  1
  Na  Na60  1  0.43767345  0.68767346  0.11724867  1
  Na  Na61  1  0.93767345  0.18767344  0.11724867  1
  Na  Na62  1  0.85405999  0.60406002  0.16580724  1
  Na  Na63  1  0.35405998  0.10406002  0.16580725  1
  Na  Na64  1  0.22933711  0.22933719  0.23781331  1
  Na  Na65  1  0.72933714  0.72933711  0.23781331  1
  Na  Na66  1  0.64631399  0.14631405  0.28591269  1
  Na  Na67  1  0.14631480  0.64631458  0.28591271  1
  Na  Na68  1  0.47965098  0.47965078  0.23789740  1
  Na  Na69  1  0.97965089  0.97965088  0.23789738  1
  Na  Na70  1  0.89589774  0.39589763  0.28596410  1
  Na  Na71  1  0.39589776  0.89589782  0.28596409  1
  Na  Na72  1  0.14589681  0.14589693  0.28596391  1
  Na  Na73  1  0.64589698  0.64589699  0.28596390  1
  Na  Na74  1  0.72965130  0.22965137  0.23789744  1
  Na  Na75  1  0.22965121  0.72965144  0.23789745  1
  Na  Na76  1  0.39631465  0.39631504  0.28591292  1
  Na  Na77  1  0.89631423  0.89631414  0.28591286  1
  Na  Na78  1  0.97933730  0.47933716  0.23781320  1
  Na  Na79  1  0.47933716  0.97933728  0.23781320  1
  Na  Na80  1  0.52117058  0.27117054  0.21415002  1
  Na  Na81  1  0.02117058  0.77117048  0.21415002  1
  Na  Na82  1  0.93756557  0.18756560  0.26226221  1
  Na  Na83  1  0.43756570  0.68756584  0.26226208  1
  Na  Na84  1  0.18756771  0.43756745  0.26202181  1
  Na  Na85  1  0.68756754  0.93756727  0.26202176  1
  Na  Na86  1  0.77091412  0.52091412  0.21393099  1
  Na  Na87  1  0.27091410  0.02091403  0.21393098  1
  Na  Na88  1  0.43756718  0.18756789  0.26202180  1
  Na  Na89  1  0.93756754  0.68756740  0.26202179  1
  Na  Na90  1  0.02091403  0.27091404  0.21393101  1
  Na  Na91  1  0.52091408  0.77091414  0.21393094  1
  Na  Na92  1  0.27117045  0.52117050  0.21415001  1
  Na  Na93  1  0.77117052  0.02117064  0.21414999  1
  Na  Na94  1  0.68756572  0.43756563  0.26226220  1
  Na  Na95  1  0.18756557  0.93756573  0.26226220  1
  Na  Na96  1  0.06268152  0.06268155  0.33480903  1
  Na  Na97  1  0.56268234  0.56268140  0.33480927  1
  Na  Na98  1  0.47947107  0.97947103  0.38167592  1
  Na  Na99  1  0.97947110  0.47947098  0.38167592  1
  Na  Na100  1  0.31262652  0.31262658  0.33362388  1
  Na  Na101  1  0.81262648  0.81262641  0.33362388  1
  Na  Na102  1  0.72925079  0.22925069  0.38333497  1
  Na  Na103  1  0.22925078  0.72925060  0.38333501  1
  Na  Na104  1  0.97925059  0.97925074  0.38333519  1
  Na  Na105  1  0.47925052  0.47925076  0.38333521  1
  Na  Na106  1  0.56262643  0.06262651  0.33362401  1
  Na  Na107  1  0.06262659  0.56262654  0.33362400  1
  Na  Na108  1  0.22947139  0.22947150  0.38167607  1
  Na  Na109  1  0.72947145  0.72947143  0.38167609  1
  Na  Na110  1  0.81268144  0.31268139  0.33480936  1
  Na  Na111  1  0.31268117  0.81268239  0.33480961  1
  Na  Na112  1  0.35417920  0.10417909  0.31005180  1
  Na  Na113  1  0.85417933  0.60417889  0.31005181  1
  Na  Na114  1  0.77101891  0.02101830  0.35790389  1
  Na  Na115  1  0.27101946  0.52101888  0.35790372  1
  Na  Na116  1  0.02107414  0.27107382  0.35833272  1
  Na  Na117  1  0.52107427  0.77107397  0.35833277  1
  Na  Na118  1  0.60448343  0.35448301  0.31060003  1
  Na  Na119  1  0.10448339  0.85448300  0.31060003  1
  Na  Na120  1  0.27107374  0.02107460  0.35833281  1
  Na  Na121  1  0.77107422  0.52107405  0.35833280  1
  Na  Na122  1  0.85448293  0.10448334  0.31060011  1
  Na  Na123  1  0.35448335  0.60448370  0.31060010  1
  Na  Na124  1  0.10417929  0.35417958  0.31005166  1
  Na  Na125  1  0.60417886  0.85417916  0.31005166  1
  Na  Na126  1  0.52101821  0.27101889  0.35790385  1
  Na  Na127  1  0.02101825  0.77101877  0.35790386  1
  Na  Na128  1  0.89032363  0.89032365  0.42892410  1
  Na  Na129  1  0.39032363  0.39032364  0.42892410  1
  Na  Na130  1  0.33016265  0.83016371  0.47853632  1
  Na  Na131  1  0.83016300  0.33016335  0.47853631  1
  Na  Na132  1  0.15408696  0.15408694  0.43057745  1
  Na  Na133  1  0.65408698  0.65408692  0.43057744  1
  Na  Na134  1  0.57531494  0.07531497  0.47904879  1
  Na  Na135  1  0.07531499  0.57531494  0.47904880  1
  Na  Na136  1  0.82531503  0.82531502  0.47904879  1
  Na  Na137  1  0.32531501  0.32531501  0.47904881  1
  Na  Na138  1  0.40408679  0.90408679  0.43057739  1
  Na  Na139  1  0.90408681  0.40408669  0.43057740  1
  Na  Na140  1  0.08016260  0.08016364  0.47853627  1
  Na  Na141  1  0.58016289  0.58016336  0.47853627  1
  Na  Na142  1  0.64032369  0.14032369  0.42892402  1
  Na  Na143  1  0.14032368  0.64032369  0.42892402  1
  Na  Na144  1  0.19071496  0.94071498  0.40796128  1
  Na  Na145  1  0.69071501  0.44071495  0.40796128  1
  Na  Na146  1  0.60672177  0.85672186  0.45788420  1
  Na  Na147  1  0.10672187  0.35672192  0.45788419  1
  Na  Na148  1  0.84522383  0.09522400  0.45191509  1
  Na  Na149  1  0.34522383  0.59522401  0.45191509  1
  Na  Na150  1  0.43581556  0.18581552  0.40537108  1
  Na  Na151  1  0.93581563  0.68581547  0.40537108  1
  Na  Na152  1  0.09522390  0.84522393  0.45191510  1
  Na  Na153  1  0.59522399  0.34522384  0.45191510  1
  Na  Na154  1  0.68581549  0.93581557  0.40537110  1
  Na  Na155  1  0.18581562  0.43581571  0.40537102  1
  Na  Na156  1  0.94071501  0.19071503  0.40796125  1
  Na  Na157  1  0.44071510  0.69071511  0.40796133  1
  Na  Na158  1  0.35672192  0.10672182  0.45788419  1
  Na  Na159  1  0.85672191  0.60672179  0.45788418  1
  Na  Na160  1  0.75894188  0.50894190  0.54484159  1
  Na  Na161  1  0.25894189  0.00894195  0.54484155  1
  Na  Na162  1  0.34441481  0.59441478  0.59215941  1
  Na  Na163  1  0.84441485  0.09441478  0.59215941  1
  Na  Na164  1  0.50586825  0.25586819  0.54458431  1
  Na  Na165  1  0.00586823  0.75586824  0.54458432  1
  Na  Na166  1  0.09656044  0.34656041  0.59299476  1
  Na  Na167  1  0.59656045  0.84656041  0.59299474  1
  Na  Na168  1  0.84656039  0.59656043  0.59299475  1
  Na  Na169  1  0.34656038  0.09656040  0.59299474  1
  Na  Na170  1  0.25586831  0.50586831  0.54458433  1
  Na  Na171  1  0.75586817  0.00586817  0.54458431  1
  Na  Na172  1  0.59441471  0.34441470  0.59215946  1
  Na  Na173  1  0.09441469  0.84441474  0.59215946  1
  Na  Na174  1  0.00894191  0.25894197  0.54484164  1
  Na  Na175  1  0.50894190  0.75894187  0.54484160  1
  Na  Na176  1  0.46449056  0.46449046  0.52530303  1
  Na  Na177  1  0.96449053  0.96449060  0.52530302  1
  Na  Na178  1  0.05686410  0.55686397  0.57178432  1
  Na  Na179  1  0.55686401  0.05686408  0.57178431  1
  Na  Na180  1  0.80426788  0.30426788  0.56891943  1
  Na  Na181  1  0.30426784  0.80426801  0.56891942  1
  Na  Na182  1  0.23341733  0.23341764  0.52250847  1
  Na  Na183  1  0.73341756  0.73341735  0.52250847  1
  Na  Na184  1  0.55426799  0.55426786  0.56891941  1
  Na  Na185  1  0.05426794  0.05426788  0.56891940  1
  Na  Na186  1  0.98341725  0.48341754  0.52250844  1
  Na  Na187  1  0.48341736  0.98341749  0.52250844  1
  Na  Na188  1  0.71449064  0.21449048  0.52530305  1
  Na  Na189  1  0.21449047  0.71449054  0.52530304  1
  Na  Na190  1  0.30686399  0.30686406  0.57178429  1
  Na  Na191  1  0.80686406  0.80686399  0.57178428  1
  Na  Na192  1  0.92899861  0.67899860  0.64234745  1
  Na  Na193  1  0.42899859  0.17899860  0.64234744  1
  Na  Na194  1  0.51239568  0.76239569  0.68942413  1
  Na  Na195  1  0.01239567  0.26239566  0.68942413  1
  Na  Na196  1  0.67859355  0.42859347  0.64097706  1
  Na  Na197  1  0.17859351  0.92859352  0.64097706  1
  Na  Na198  1  0.26269123  0.51269124  0.68990294  1
  Na  Na199  1  0.76269121  0.01269122  0.68990293  1
  Na  Na200  1  0.01269133  0.76269128  0.68990295  1
  Na  Na201  1  0.51269131  0.26269129  0.68990295  1
  Na  Na202  1  0.42859344  0.67859348  0.64097709  1
  Na  Na203  1  0.92859353  0.17859351  0.64097707  1
  Na  Na204  1  0.76239567  0.51239566  0.68942411  1
  Na  Na205  1  0.26239568  0.01239565  0.68942411  1
  Na  Na206  1  0.17899862  0.42899860  0.64234744  1
  Na  Na207  1  0.67899861  0.92899860  0.64234743  1
  Na  Na208  1  0.63745834  0.63745840  0.61706290  1
  Na  Na209  1  0.13745840  0.13745835  0.61706287  1
  Na  Na210  1  0.22121374  0.72121378  0.66567491  1
  Na  Na211  1  0.72121378  0.22121374  0.66567491  1
  Na  Na212  1  0.97069471  0.47069470  0.66560228  1
  Na  Na213  1  0.47069472  0.97069473  0.66560228  1
  Na  Na214  1  0.38806938  0.38806942  0.61853049  1
  Na  Na215  1  0.88806941  0.88806942  0.61853050  1
  Na  Na216  1  0.72069476  0.72069475  0.66560229  1
  Na  Na217  1  0.22069473  0.22069472  0.66560228  1
  Na  Na218  1  0.13806945  0.63806937  0.61853049  1
  Na  Na219  1  0.63806942  0.13806942  0.61853049  1
  Na  Na220  1  0.88745838  0.38745839  0.61706286  1
  Na  Na221  1  0.38745841  0.88745836  0.61706288  1
  Na  Na222  1  0.47121375  0.47121372  0.66567491  1
  Na  Na223  1  0.97121374  0.97121374  0.66567492  1
  Na  Na224  1  0.09587234  0.84587232  0.73765617  1
  Na  Na225  1  0.59587233  0.34587233  0.73765618  1
  Na  Na226  1  0.67883586  0.92883579  0.78571281  1
  Na  Na227  1  0.17883587  0.42883579  0.78571282  1
  Na  Na228  1  0.84566909  0.59566904  0.73772626  1
  Na  Na229  1  0.34566909  0.09566903  0.73772626  1
  Na  Na230  1  0.42926341  0.67926342  0.78571430  1
  Na  Na231  1  0.92926343  0.17926343  0.78571429  1
  Na  Na232  1  0.17926348  0.92926344  0.78571431  1
  Na  Na233  1  0.67926348  0.42926345  0.78571431  1
  Na  Na234  1  0.59566906  0.84566910  0.73772626  1
  Na  Na235  1  0.09566906  0.34566909  0.73772626  1
  Na  Na236  1  0.92883581  0.67883584  0.78571281  1
  Na  Na237  1  0.42883579  0.17883584  0.78571281  1
  Na  Na238  1  0.34587232  0.59587231  0.73765617  1
  Na  Na239  1  0.84587230  0.09587230  0.73765617  1
  Na  Na240  1  0.80412267  0.80412265  0.71400073  1
  Na  Na241  1  0.30412267  0.30412263  0.71400073  1
  Na  Na242  1  0.38768667  0.88768663  0.76203982  1
  Na  Na243  1  0.88768667  0.38768663  0.76203983  1
  Na  Na244  1  0.13749898  0.63749899  0.76177252  1
  Na  Na245  1  0.63749896  0.13749898  0.76177252  1
  Na  Na246  1  0.55441499  0.55441500  0.71373920  1
  Na  Na247  1  0.05441500  0.05441499  0.71373920  1
  Na  Na248  1  0.88749903  0.88749899  0.76177254  1
  Na  Na249  1  0.38749904  0.38749900  0.76177254  1
  Na  Na250  1  0.30441499  0.80441497  0.71373920  1
  Na  Na251  1  0.80441497  0.30441497  0.71373920  1
  Na  Na252  1  0.05412273  0.55412274  0.71400071  1
  Na  Na253  1  0.55412274  0.05412273  0.71400071  1
  Na  Na254  1  0.63768666  0.63768669  0.76203983  1
  Na  Na255  1  0.13768665  0.13768669  0.76203982  1
  Na  Na256  1  0.26230445  0.01230441  0.83440728  1
  Na  Na257  1  0.76230446  0.51230445  0.83440728  1
  Na  Na258  1  0.84526004  0.09526006  0.88118586  1
  Na  Na259  1  0.34525999  0.59525992  0.88118591  1
  Na  Na260  1  0.01223764  0.76223767  0.83335380  1
  Na  Na261  1  0.51223763  0.26223766  0.83335379  1
  Na  Na262  1  0.59545543  0.84545546  0.88294438  1
  Na  Na263  1  0.09545546  0.34545547  0.88294440  1
  Na  Na264  1  0.34545550  0.09545542  0.88294440  1
  Na  Na265  1  0.84545548  0.59545544  0.88294440  1
  Na  Na266  1  0.76223769  0.01223763  0.83335376  1
  Na  Na267  1  0.26223772  0.51223764  0.83335377  1
  Na  Na268  1  0.09526002  0.84526002  0.88118593  1
  Na  Na269  1  0.59526019  0.34525992  0.88118591  1
  Na  Na270  1  0.51230434  0.76230436  0.83440727  1
  Na  Na271  1  0.01230440  0.26230437  0.83440727  1
  Na  Na272  1  0.97074258  0.97074249  0.80960980  1
  Na  Na273  1  0.47074256  0.47074250  0.80960980  1
  Na  Na274  1  0.55393866  0.05393854  0.85766019  1
  Na  Na275  1  0.05393863  0.55393858  0.85766018  1
  Na  Na276  1  0.30374508  0.80374510  0.85782737  1
  Na  Na277  1  0.80374515  0.30374520  0.85782735  1
  Na  Na278  1  0.72066611  0.72066617  0.81037982  1
  Na  Na279  1  0.22066614  0.22066616  0.81037983  1
  Na  Na280  1  0.05374517  0.05374502  0.85782735  1
  Na  Na281  1  0.55374510  0.55374501  0.85782736  1
  Na  Na282  1  0.47066618  0.97066612  0.81037980  1
  Na  Na283  1  0.97066617  0.47066611  0.81037980  1
  Na  Na284  1  0.22074251  0.72074251  0.80960982  1
  Na  Na285  1  0.72074251  0.22074252  0.80960981  1
  Na  Na286  1  0.80393854  0.80393862  0.85766022  1
  Na  Na287  1  0.30393864  0.30393855  0.85766022  1
  Na  Na288  1  0.43412017  0.18411997  0.92872332  1
  Na  Na289  1  0.93412012  0.68412018  0.92872332  1
  Na  Na290  1  0.99444727  0.24444722  0.97822904  1
  Na  Na291  1  0.49444725  0.74444722  0.97822904  1
  Na  Na292  1  0.17030271  0.92030272  0.93023802  1
  Na  Na293  1  0.67030274  0.42030271  0.93023802  1
  Na  Na294  1  0.74930989  0.99930990  0.97897233  1
  Na  Na295  1  0.24930989  0.49930988  0.97897234  1
  Na  Na296  1  0.49930992  0.24930986  0.97897233  1
  Na  Na297  1  0.99930989  0.74930987  0.97897233  1
  Na  Na298  1  0.92030273  0.17030272  0.93023801  1
  Na  Na299  1  0.42030271  0.67030268  0.93023801  1
  Na  Na300  1  0.24444720  0.99444723  0.97822905  1
  Na  Na301  1  0.74444724  0.49444721  0.97822905  1
  Na  Na302  1  0.68411999  0.93411995  0.92872331  1
  Na  Na303  1  0.18412026  0.43412013  0.92872332  1
  Na  Na304  1  0.13361758  0.13361755  0.90752659  1
  Na  Na305  1  0.63361757  0.63361750  0.90752659  1
  Na  Na306  1  0.71759969  0.21759969  0.95754582  1
  Na  Na307  1  0.21759968  0.71759967  0.95754580  1
  Na  Na308  1  0.47919874  0.97919874  0.95164972  1
  Na  Na309  1  0.97919880  0.47919876  0.95164971  1
  Na  Na310  1  0.88883026  0.88883022  0.90520410  1
  Na  Na311  1  0.38883026  0.38883022  0.90520410  1
  Na  Na312  1  0.22919878  0.22919877  0.95164972  1
  Na  Na313  1  0.72919879  0.72919872  0.95164973  1
  Na  Na314  1  0.63883020  0.13883022  0.90520409  1
  Na  Na315  1  0.13883019  0.63883020  0.90520409  1
  Na  Na316  1  0.38361750  0.88361753  0.90752659  1
  Na  Na317  1  0.88361758  0.38361757  0.90752659  1
  Na  Na318  1  0.96759970  0.96759970  0.95754582  1
  Na  Na319  1  0.46759972  0.46759970  0.95754582  1
  S  S320  1  0.35457377  0.35457376  0.09538661  1
  S  S321  1  0.85457377  0.85457376  0.09538661  1
  S  S322  1  0.93546807  0.43546805  0.04348704  1
  S  S323  1  0.43546808  0.93546804  0.04348703  1
  S  S324  1  0.64632614  0.39632615  0.06781841  1
  S  S325  1  0.14632613  0.89632615  0.06781841  1
  S  S326  1  0.22636911  0.47636909  0.02636819  1
  S  S327  1  0.72636912  0.97636910  0.02636819  1
  S  S328  1  0.39632617  0.64632614  0.06781840  1
  S  S329  1  0.89632618  0.14632614  0.06781840  1
  S  S330  1  0.97636906  0.72636907  0.02636819  1
  S  S331  1  0.47636906  0.22636907  0.02636819  1
  S  S332  1  0.68546806  0.68546807  0.04348704  1
  S  S333  1  0.18546806  0.18546807  0.04348704  1
  S  S334  1  0.10457373  0.60457373  0.09538661  1
  S  S335  1  0.60457373  0.10457373  0.09538661  1
  S  S336  1  0.18748998  0.18748999  0.18959300  1
  S  S337  1  0.68748997  0.68749002  0.18959300  1
  S  S338  1  0.77144889  0.27144885  0.14120646  1
  S  S339  1  0.27144888  0.77144886  0.14120646  1
  S  S340  1  0.47936965  0.22936965  0.16643039  1
  S  S341  1  0.97936966  0.72936964  0.16643039  1
  S  S342  1  0.06244459  0.31244460  0.11692066  1
  S  S343  1  0.56244458  0.81244461  0.11692066  1
  S  S344  1  0.22936963  0.47936963  0.16643039  1
  S  S345  1  0.72936964  0.97936963  0.16643039  1
  S  S346  1  0.81244461  0.56244458  0.11692067  1
  S  S347  1  0.31244461  0.06244457  0.11692067  1
  S  S348  1  0.52144885  0.52144886  0.14120644  1
  S  S349  1  0.02144885  0.02144885  0.14120644  1
  S  S350  1  0.93748994  0.43748992  0.18959297  1
  S  S351  1  0.43748991  0.93748991  0.18959298  1
  S  S352  1  0.02113436  0.02113447  0.28652703  1
  S  S353  1  0.52113455  0.52113466  0.28652707  1
  S  S354  1  0.60444896  0.10444897  0.23801221  1
  S  S355  1  0.10444913  0.60444897  0.23801226  1
  S  S356  1  0.31253372  0.06253369  0.26185096  1
  S  S357  1  0.81253379  0.56253361  0.26185096  1
  S  S358  1  0.89628012  0.14628002  0.21381836  1
  S  S359  1  0.39628007  0.64627999  0.21381832  1
  S  S360  1  0.06253369  0.31253382  0.26185100  1
  S  S361  1  0.56253368  0.81253383  0.26185093  1
  S  S362  1  0.64628005  0.39628012  0.21381835  1
  S  S363  1  0.14627998  0.89628012  0.21381835  1
  S  S364  1  0.35444901  0.35444918  0.23801235  1
  S  S365  1  0.85444900  0.85444900  0.23801227  1
  S  S366  1  0.77113476  0.27113469  0.28652707  1
  S  S367  1  0.27113503  0.77113482  0.28652712  1
  S  S368  1  0.85459393  0.85459392  0.38099393  1
  S  S369  1  0.35459388  0.35459413  0.38099389  1
  S  S370  1  0.43730142  0.93730162  0.33382498  1
  S  S371  1  0.93730155  0.43730132  0.33382494  1
  S  S372  1  0.14620045  0.89620112  0.35965405  1
  S  S373  1  0.64620081  0.39620077  0.35965404  1
  S  S374  1  0.72959374  0.97959391  0.30976019  1
  S  S375  1  0.22959361  0.47959387  0.30976017  1
  S  S376  1  0.89620091  0.14620066  0.35965401  1
  S  S377  1  0.39620105  0.64620084  0.35965401  1
  S  S378  1  0.47959387  0.22959402  0.30976020  1
  S  S379  1  0.97959422  0.72959364  0.30976019  1
  S  S380  1  0.18730153  0.18730175  0.33382485  1
  S  S381  1  0.68730175  0.68730160  0.33382490  1
  S  S382  1  0.60459387  0.10459388  0.38099386  1
  S  S383  1  0.10459407  0.60459381  0.38099382  1
  S  S384  1  0.69310222  0.69310215  0.47801262  1
  S  S385  1  0.19310221  0.19310218  0.47801262  1
  S  S386  1  0.27290403  0.77290413  0.43450101  1
  S  S387  1  0.77290409  0.27290409  0.43450100  1
  S  S388  1  0.97906019  0.72906012  0.45135755  1
  S  S389  1  0.47906013  0.22906017  0.45135755  1
  S  S390  1  0.56259912  0.81259915  0.40577958  1
  S  S391  1  0.06259907  0.31259907  0.40577955  1
  S  S392  1  0.72906014  0.97906016  0.45135756  1
  S  S393  1  0.22906017  0.47906017  0.45135755  1
  S  S394  1  0.31259911  0.06259903  0.40577955  1
  S  S395  1  0.81259911  0.56259904  0.40577955  1
  S  S396  1  0.02290400  0.02290406  0.43450104  1
  S  S397  1  0.52290405  0.52290403  0.43450105  1
  S  S398  1  0.44310216  0.94310220  0.47801260  1
  S  S399  1  0.94310224  0.44310219  0.47801260  1
  S  S400  1  0.97071073  0.72071072  0.59533936  1
  S  S401  1  0.47071070  0.22071073  0.59533936  1
  S  S402  1  0.38976061  0.63976059  0.54300111  1
  S  S403  1  0.88976070  0.13976066  0.54300109  1
  S  S404  1  0.67876865  0.67876867  0.56775692  1
  S  S405  1  0.17876868  0.17876867  0.56775691  1
  S  S406  1  0.09890840  0.59890836  0.52635084  1
  S  S407  1  0.59890840  0.09890841  0.52635082  1
  S  S408  1  0.92876864  0.42876870  0.56775692  1
  S  S409  1  0.42876867  0.92876864  0.56775691  1
  S  S410  1  0.34890842  0.34890843  0.52635083  1
  S  S411  1  0.84890846  0.84890842  0.52635082  1
  S  S412  1  0.63976068  0.38976061  0.54300111  1
  S  S413  1  0.13976064  0.88976068  0.54300110  1
  S  S414  1  0.22071079  0.47071075  0.59533936  1
  S  S415  1  0.72071080  0.97071078  0.59533935  1
  S  S416  1  0.13786761  0.88786761  0.68945685  1
  S  S417  1  0.63786761  0.38786760  0.68945685  1
  S  S418  1  0.55371837  0.80371837  0.64111027  1
  S  S419  1  0.05371838  0.30371836  0.64111026  1
  S  S420  1  0.84575589  0.84575587  0.66631164  1
  S  S421  1  0.34575589  0.34575587  0.66631163  1
  S  S422  1  0.26266682  0.76266684  0.61676135  1
  S  S423  1  0.76266686  0.26266681  0.61676134  1
  S  S424  1  0.09575587  0.59575587  0.66631163  1
  S  S425  1  0.59575587  0.09575588  0.66631163  1
  S  S426  1  0.51266684  0.51266683  0.61676134  1
  S  S427  1  0.01266685  0.01266685  0.61676133  1
  S  S428  1  0.80371838  0.55371838  0.64111026  1
  S  S429  1  0.30371839  0.05371837  0.64111025  1
  S  S430  1  0.38786763  0.63786763  0.68945686  1
  S  S431  1  0.88786762  0.13786760  0.68945685  1
  S  S432  1  0.30405834  0.05405834  0.78620564  1
  S  S433  1  0.80405835  0.55405834  0.78620564  1
  S  S434  1  0.72074034  0.97074031  0.73784451  1
  S  S435  1  0.22074034  0.47074032  0.73784451  1
  S  S436  1  0.01258700  0.01258698  0.76159218  1
  S  S437  1  0.51258700  0.51258698  0.76159218  1
  S  S438  1  0.42913712  0.92913713  0.71371284  1
  S  S439  1  0.92913712  0.42913712  0.71371285  1
  S  S440  1  0.26258697  0.76258697  0.76159218  1
  S  S441  1  0.76258697  0.26258697  0.76159218  1
  S  S442  1  0.67913715  0.67913714  0.71371284  1
  S  S443  1  0.17913715  0.17913713  0.71371284  1
  S  S444  1  0.97074032  0.72074032  0.73784451  1
  S  S445  1  0.47074032  0.22074032  0.73784451  1
  S  S446  1  0.55405833  0.80405833  0.78620563  1
  S  S447  1  0.05405834  0.30405833  0.78620563  1
  S  S448  1  0.46994506  0.21994507  0.88071837  1
  S  S449  1  0.96994512  0.71994500  0.88071837  1
  S  S450  1  0.88751831  0.13751829  0.83345222  1
  S  S451  1  0.38751828  0.63751825  0.83345224  1
  S  S452  1  0.17846083  0.17846082  0.85926956  1
  S  S453  1  0.67846080  0.67846081  0.85926956  1
  S  S454  1  0.59540585  0.09540584  0.80951882  1
  S  S455  1  0.09540584  0.59540585  0.80951882  1
  S  S456  1  0.42846082  0.92846081  0.85926955  1
  S  S457  1  0.92846086  0.42846084  0.85926955  1
  S  S458  1  0.84540586  0.84540583  0.80951883  1
  S  S459  1  0.34540587  0.34540582  0.80951883  1
  S  S460  1  0.13751830  0.88751827  0.83345225  1
  S  S461  1  0.63751832  0.38751828  0.83345224  1
  S  S462  1  0.71994509  0.96994510  0.88071838  1
  S  S463  1  0.21994505  0.46994510  0.88071837  1
  S  S464  1  0.63150032  0.38150035  0.97764052  1
  S  S465  1  0.13150033  0.88150032  0.97764051  1
  S  S466  1  0.05145841  0.30145839  0.93415769  1
  S  S467  1  0.55145838  0.80145836  0.93415769  1
  S  S468  1  0.34535272  0.34535260  0.95122355  1
  S  S469  1  0.84535265  0.84535264  0.95122355  1
  S  S470  1  0.76182713  0.26182712  0.90533193  1
  S  S471  1  0.26182709  0.76182710  0.90533194  1
  S  S472  1  0.59535267  0.09535261  0.95122356  1
  S  S473  1  0.09535266  0.59535265  0.95122355  1
  S  S474  1  0.01182714  0.01182710  0.90533192  1
  S  S475  1  0.51182714  0.51182706  0.90533192  1
  S  S476  1  0.30145838  0.05145836  0.93415770  1
  S  S477  1  0.80145840  0.55145838  0.93415770  1
  S  S478  1  0.88150036  0.13150035  0.97764050  1
  S  S479  1  0.38150034  0.63150035  0.97764050  1
