# generated using pymatgen
data_Na2S
_symmetry_space_group_name_H-M   'P 1'
_cell_length_a   9.26727300
_cell_length_b   14.65284582
_cell_length_c   54.04319960
_cell_angle_alpha   90.00000000
_cell_angle_beta   90.00000000
_cell_angle_gamma   71.56504994
_symmetry_Int_Tables_number   1
_chemical_formula_structural   Na2S
_chemical_formula_sum   'Na184 S92'
_cell_volume   6962.03563214
_cell_formula_units_Z   92
loop_
 _symmetry_equiv_pos_site_id
 _symmetry_equiv_pos_as_xyz
  1  'x, y, z'
loop_
 _atom_site_type_symbol
 _atom_site_label
 _atom_site_symmetry_multiplicity
 _atom_site_fract_x
 _atom_site_fract_y
 _atom_site_fract_z
 _atom_site_occupancy
  Na  Na0  1  0.99583754  0.06886189  0.05966425  1
  Na  Na1  1  0.23054997  0.60018611  0.01692859  1
  Na  Na2  1  0.38930883  0.28215512  0.07959199  1
  Na  Na3  1  0.62249402  0.81577280  0.03512853  1
  Na  Na4  1  0.00269023  0.55577627  0.05734846  1
  Na  Na5  1  0.61397996  0.33258386  0.03993640  1
  Na  Na6  1  0.39098392  0.77889976  0.07560256  1
  Na  Na7  1  0.49585197  0.06886325  0.05966473  1
  Na  Na8  1  0.73056195  0.60018720  0.01692819  1
  Na  Na9  1  0.88931654  0.28215383  0.07959147  1
  Na  Na10  1  0.12250575  0.81577034  0.03512871  1
  Na  Na11  1  0.50269579  0.55576906  0.05734686  1
  Na  Na12  1  0.11398190  0.33258199  0.03993622  1
  Na  Na13  1  0.89098151  0.77890317  0.07560372  1
  Na  Na14  1  0.55693946  0.94746424  0.13776232  1
  Na  Na15  1  0.77924558  0.50318034  0.09815850  1
  Na  Na16  1  0.94619503  0.16927649  0.15902544  1
  Na  Na17  1  0.16758479  0.72656880  0.11723853  1
  Na  Na18  1  0.77972493  0.00122116  0.09737579  1
  Na  Na19  1  0.55648258  0.44877698  0.13877746  1
  Na  Na20  1  0.16792810  0.22545105  0.11892991  1
  Na  Na21  1  0.94595384  0.67059156  0.15838333  1
  Na  Na22  1  0.05694732  0.94745820  0.13776260  1
  Na  Na23  1  0.27924529  0.50317933  0.09815868  1
  Na  Na24  1  0.44619859  0.16927750  0.15902590  1
  Na  Na25  1  0.66758316  0.72657389  0.11723775  1
  Na  Na26  1  0.27972091  0.00122009  0.09737542  1
  Na  Na27  1  0.05648381  0.44877260  0.13877804  1
  Na  Na28  1  0.66792773  0.22545298  0.11893143  1
  Na  Na29  1  0.44595990  0.67059007  0.15838278  1
  Na  Na30  1  0.11307231  0.83687490  0.21937245  1
  Na  Na31  1  0.33475598  0.39285264  0.17954415  1
  Na  Na32  1  0.50192288  0.05905566  0.23991408  1
  Na  Na33  1  0.72368264  0.61548519  0.19924756  1
  Na  Na34  1  0.33502532  0.89228828  0.17877689  1
  Na  Na35  1  0.11271481  0.33701988  0.21980160  1
  Na  Na36  1  0.72403793  0.11417297  0.19933144  1
  Na  Na37  1  0.50201251  0.55910410  0.23998227  1
  Na  Na38  1  0.61307342  0.83687693  0.21937215  1
  Na  Na39  1  0.83475437  0.39285285  0.17954397  1
  Na  Na40  1  0.00192397  0.05905875  0.23991597  1
  Na  Na41  1  0.22368818  0.61548016  0.19924710  1
  Na  Na42  1  0.83502948  0.89228581  0.17877614  1
  Na  Na43  1  0.61271718  0.33701818  0.21980248  1
  Na  Na44  1  0.22402983  0.11417537  0.19933196  1
  Na  Na45  1  0.00200945  0.55910282  0.23998179  1
  Na  Na46  1  0.66932210  0.72479168  0.30080419  1
  Na  Na47  1  0.89072100  0.28133117  0.26022079  1
  Na  Na48  1  0.05797067  0.94764206  0.32058622  1
  Na  Na49  1  0.27971381  0.50336395  0.28074394  1
  Na  Na50  1  0.89105457  0.78126274  0.26006079  1
  Na  Na51  1  0.66876992  0.22599791  0.30092444  1
  Na  Na52  1  0.28003828  0.00359698  0.28025925  1
  Na  Na53  1  0.05777455  0.44695775  0.32146742  1
  Na  Na54  1  0.16932572  0.72478666  0.30080425  1
  Na  Na55  1  0.39072139  0.28132861  0.26021795  1
  Na  Na56  1  0.55796725  0.94763698  0.32057955  1
  Na  Na57  1  0.77971397  0.50336839  0.28074346  1
  Na  Na58  1  0.39105180  0.78126047  0.26006065  1
  Na  Na59  1  0.16876845  0.22599770  0.30092503  1
  Na  Na60  1  0.78004508  0.00360201  0.28025968  1
  Na  Na61  1  0.55777642  0.44695612  0.32146743  1
  Na  Na62  1  0.22524613  0.61183776  0.38282828  1
  Na  Na63  1  0.44648019  0.17060793  0.34129576  1
  Na  Na64  1  0.61316223  0.83603398  0.40129679  1
  Na  Na65  1  0.83587365  0.39144479  0.36281974  1
  Na  Na66  1  0.44676631  0.66919419  0.34133061  1
  Na  Na67  1  0.22442592  0.11400813  0.38169592  1
  Na  Na68  1  0.83561766  0.89169584  0.36101204  1
  Na  Na69  1  0.61376609  0.33520309  0.40310633  1
  Na  Na70  1  0.72524117  0.61183898  0.38282729  1
  Na  Na71  1  0.94648092  0.17061067  0.34130042  1
  Na  Na72  1  0.11316719  0.83603307  0.40129938  1
  Na  Na73  1  0.33587704  0.39143867  0.36282128  1
  Na  Na74  1  0.94677093  0.66919679  0.34133229  1
  Na  Na75  1  0.72441682  0.11400840  0.38169548  1
  Na  Na76  1  0.33561662  0.89168904  0.36101093  1
  Na  Na77  1  0.11377164  0.33520207  0.40310622  1
  Na  Na78  1  0.77648530  0.50816282  0.47070646  1
  Na  Na79  1  0.00280913  0.05687669  0.42131357  1
  Na  Na80  1  0.16550745  0.73031856  0.47890548  1
  Na  Na81  1  0.39639686  0.26995717  0.44147017  1
  Na  Na82  1  0.00304541  0.55612957  0.42332964  1
  Na  Na83  1  0.77968441  0.00259122  0.46137453  1
  Na  Na84  1  0.38742471  0.78696255  0.44049808  1
  Na  Na85  1  0.27649030  0.50816328  0.47070395  1
  Na  Na86  1  0.50281710  0.05687303  0.42130897  1
  Na  Na87  1  0.66551340  0.73031967  0.47890181  1
  Na  Na88  1  0.89640136  0.26995563  0.44146958  1
  Na  Na89  1  0.50305234  0.55613019  0.42333035  1
  Na  Na90  1  0.27969946  0.00258687  0.46137175  1
  Na  Na91  1  0.88742557  0.78696768  0.44049880  1
  Na  Na92  1  0.22781540  0.10636793  0.55973427  1
  Na  Na93  1  0.99279873  0.57520668  0.51690378  1
  Na  Na94  1  0.83440164  0.89289571  0.57960261  1
  Na  Na95  1  0.60085550  0.35938133  0.53516686  1
  Na  Na96  1  0.22094161  0.61932556  0.55737432  1
  Na  Na97  1  0.60933211  0.84271413  0.53994411  1
  Na  Na98  1  0.83281159  0.39610697  0.57562920  1
  Na  Na99  1  0.72781551  0.10636612  0.55973392  1
  Na  Na100  1  0.49279497  0.57520860  0.51690433  1
  Na  Na101  1  0.33439595  0.89290203  0.57960088  1
  Na  Na102  1  0.10085067  0.35938584  0.53516845  1
  Na  Na103  1  0.72093982  0.61932804  0.55737398  1
  Na  Na104  1  0.10933345  0.84271865  0.53994334  1
  Na  Na105  1  0.33282116  0.39610111  0.57562846  1
  Na  Na106  1  0.66774912  0.22712130  0.63786150  1
  Na  Na107  1  0.44504764  0.67160789  0.59816787  1
  Na  Na108  1  0.27887129  0.00532678  0.65900755  1
  Na  Na109  1  0.05689399  0.44797972  0.61734080  1
  Na  Na110  1  0.44427513  0.17373306  0.59745381  1
  Na  Na111  1  0.66844763  0.72583160  0.63877187  1
  Na  Na112  1  0.05661182  0.94931191  0.61890622  1
  Na  Na113  1  0.27916622  0.50413225  0.65844958  1
  Na  Na114  1  0.16774604  0.22712247  0.63786165  1
  Na  Na115  1  0.94505516  0.67160213  0.59816797  1
  Na  Na116  1  0.77887492  0.00532257  0.65900782  1
  Na  Na117  1  0.55689732  0.44797820  0.61734102  1
  Na  Na118  1  0.94427691  0.17373186  0.59745319  1
  Na  Na119  1  0.16846100  0.72582535  0.63877198  1
  Na  Na120  1  0.55662118  0.94931346  0.61890593  1
  Na  Na121  1  0.77916361  0.50413662  0.65844980  1
  Na  Na122  1  0.11257259  0.33783906  0.71949986  1
  Na  Na123  1  0.89104743  0.78170957  0.67952263  1
  Na  Na124  1  0.72372609  0.11559548  0.73993703  1
  Na  Na125  1  0.50232668  0.55911266  0.69932931  1
  Na  Na126  1  0.89008904  0.28234697  0.67889240  1
  Na  Na127  1  0.11310085  0.83776009  0.71978723  1
  Na  Na128  1  0.50145052  0.06043647  0.69935071  1
  Na  Na129  1  0.72437271  0.61556134  0.74003112  1
  Na  Na130  1  0.61257422  0.33783854  0.71950000  1
  Na  Na131  1  0.39104388  0.78171452  0.67952073  1
  Na  Na132  1  0.22372694  0.11559514  0.73993704  1
  Na  Na133  1  0.00232329  0.55911327  0.69932927  1
  Na  Na134  1  0.39008940  0.28234722  0.67889231  1
  Na  Na135  1  0.61310010  0.83776183  0.71978754  1
  Na  Na136  1  0.00144993  0.06043570  0.69935109  1
  Na  Na137  1  0.22437344  0.61555825  0.74003076  1
  Na  Na138  1  0.55693286  0.45003099  0.80090556  1
  Na  Na139  1  0.33531922  0.89336043  0.76020395  1
  Na  Na140  1  0.16811804  0.22715380  0.82061307  1
  Na  Na141  1  0.94642219  0.67144236  0.78078764  1
  Na  Na142  1  0.33523180  0.39336432  0.76014792  1
  Na  Na143  1  0.55739615  0.94881689  0.80092007  1
  Na  Na144  1  0.94596122  0.17126822  0.78031790  1
  Na  Na145  1  0.16794549  0.72783554  0.82150345  1
  Na  Na146  1  0.05693219  0.45003318  0.80090615  1
  Na  Na147  1  0.83531876  0.89336277  0.76020328  1
  Na  Na148  1  0.66811829  0.22715400  0.82061309  1
  Na  Na149  1  0.44642169  0.67144357  0.78078669  1
  Na  Na150  1  0.83523230  0.39336438  0.76014786  1
  Na  Na151  1  0.05739269  0.94881514  0.80091956  1
  Na  Na152  1  0.44596079  0.17126816  0.78031780  1
  Na  Na153  1  0.66794711  0.72783490  0.82150380  1
  Na  Na154  1  -0.00006992  0.56342976  0.88290330  1
  Na  Na155  1  0.77922359  0.00459375  0.84131196  1
  Na  Na156  1  0.61174473  0.33928705  0.90137000  1
  Na  Na157  1  0.38970855  0.78374520  0.86284260  1
  Na  Na158  1  0.77895195  0.50574082  0.84140235  1
  Na  Na159  1  0.00087583  0.06116821  0.88168434  1
  Na  Na160  1  0.38980654  0.28359130  0.86107497  1
  Na  Na161  1  0.61129727  0.84010210  0.90310749  1
  Na  Na162  1  0.49992799  0.56342971  0.88290266  1
  Na  Na163  1  0.27922221  0.00459341  0.84131174  1
  Na  Na164  1  0.11174533  0.33928694  0.90136986  1
  Na  Na165  1  0.88971024  0.78374667  0.86284305  1
  Na  Na166  1  0.27895243  0.50574019  0.84140251  1
  Na  Na167  1  0.50087459  0.06116872  0.88168436  1
  Na  Na168  1  0.88980680  0.28359124  0.86107490  1
  Na  Na169  1  0.11129717  0.84010162  0.90310741  1
  Na  Na170  1  0.44699755  0.66747441  0.97071873  1
  Na  Na171  1  0.22183820  0.11875152  0.92135164  1
  Na  Na172  1  0.05794377  0.44556290  0.97895053  1
  Na  Na173  1  0.82855366  0.90542355  0.94143592  1
  Na  Na174  1  0.22176408  0.61930702  0.92334402  1
  Na  Na175  1  0.44455505  0.17280687  0.96142207  1
  Na  Na176  1  0.83667446  0.38858786  0.94059787  1
  Na  Na177  1  0.94699722  0.66747770  0.97071876  1
  Na  Na178  1  0.72183836  0.11875182  0.92135174  1
  Na  Na179  1  0.55794774  0.44556557  0.97895055  1
  Na  Na180  1  0.32855414  0.90542298  0.94143561  1
  Na  Na181  1  0.72176475  0.61930853  0.92334293  1
  Na  Na182  1  0.94455551  0.17280630  0.96142215  1
  Na  Na183  1  0.33667445  0.38858626  0.94059805  1
  S  S184  1  0.58399334  0.89287684  0.08486690  1
  S  S185  1  0.80998779  0.44062704  0.04850900  1
  S  S186  1  0.08399288  0.89287551  0.08486723  1
  S  S187  1  0.30998354  0.44062698  0.04850932  1
  S  S188  1  0.69562424  0.16918484  0.06842807  1
  S  S189  1  0.92101850  0.71891692  0.02534434  1
  S  S190  1  0.19562127  0.16917541  0.06842537  1
  S  S191  1  0.42101693  0.71891653  0.02534445  1
  S  S192  1  0.14067793  0.78192298  0.16816446  1
  S  S193  1  0.36215960  0.33705457  0.12932819  1
  S  S194  1  0.64067730  0.78192493  0.16816447  1
  S  S195  1  0.86216246  0.33705278  0.12932828  1
  S  S196  1  0.25217536  0.05727751  0.14820985  1
  S  S197  1  0.47327674  0.61576112  0.10781423  1
  S  S198  1  0.75217427  0.05727888  0.14821010  1
  S  S199  1  0.97327358  0.61576597  0.10781295  1
  S  S200  1  0.69672651  0.67022547  0.24990110  1
  S  S201  1  0.91849120  0.22532987  0.20947973  1
  S  S202  1  0.19672581  0.67022370  0.24990252  1
  S  S203  1  0.41849240  0.22533072  0.20947900  1
  S  S204  1  0.80753634  0.94776938  0.22940638  1
  S  S205  1  0.02917178  0.50449034  0.18927618  1
  S  S206  1  0.30753226  0.94776880  0.22940591  1
  S  S207  1  0.52917159  0.50449316  0.18927521  1
  S  S208  1  0.25254060  0.55746102  0.33158118  1
  S  S209  1  0.47428672  0.11497703  0.29044201  1
  S  S210  1  0.75253734  0.55746472  0.33157875  1
  S  S211  1  0.97433194  0.11498581  0.29044219  1
  S  S212  1  0.36372780  0.83629177  0.31045275  1
  S  S213  1  0.58496523  0.39243444  0.27035675  1
  S  S214  1  0.86371575  0.83629633  0.31045653  1
  S  S215  1  0.08496230  0.39245461  0.27035894  1
  S  S216  1  0.80994923  0.44257745  0.41479712  1
  S  S217  1  0.02972583  0.00307606  0.37098885  1
  S  S218  1  0.30994968  0.44257074  0.41479817  1
  S  S219  1  0.52970748  0.00304346  0.37097463  1
  S  S220  1  0.91885966  0.72455879  0.39116146  1
  S  S221  1  0.14123175  0.28141612  0.35181050  1
  S  S222  1  0.41884676  0.72454269  0.39115764  1
  S  S223  1  0.64123367  0.28141307  0.35181018  1
  S  S224  1  0.58196658  0.89775894  0.45222058  1
  S  S225  1  0.08196653  0.89775593  0.45222266  1
  S  S226  1  0.46748703  0.62625687  0.46971900  1
  S  S227  1  0.69743532  0.16736711  0.43263822  1
  S  S228  1  0.96748449  0.62624048  0.46971861  1
  S  S229  1  0.19743972  0.16736732  0.43263803  1
  S  S230  1  0.64033372  0.28216509  0.58488311  1
  S  S231  1  0.41333618  0.73459230  0.54853523  1
  S  S232  1  0.14031694  0.28218073  0.58488435  1
  S  S233  1  0.91333754  0.73459229  0.54853522  1
  S  S234  1  0.52797512  0.00595655  0.56844595  1
  S  S235  1  0.30234629  0.45628489  0.52536195  1
  S  S236  1  0.02797112  0.00595607  0.56844555  1
  S  S237  1  0.80234385  0.45628690  0.52536214  1
  S  S238  1  0.08479923  0.39257109  0.66828400  1
  S  S239  1  0.86258247  0.83771315  0.62931418  1
  S  S240  1  0.58480090  0.39257014  0.66828377  1
  S  S241  1  0.36256945  0.83773062  0.62931176  1
  S  S242  1  0.97292658  0.11729952  0.64822746  1
  S  S243  1  0.75149198  0.55872753  0.60787012  1
  S  S244  1  0.47293176  0.11729966  0.64822744  1
  S  S245  1  0.25148859  0.55872843  0.60787044  1
  S  S246  1  0.53013059  0.50437886  0.74998792  1
  S  S247  1  0.30710369  0.94940220  0.70944113  1
  S  S248  1  0.03013067  0.50437916  0.74998810  1
  S  S249  1  0.80712003  0.94940346  0.70943807  1
  S  S250  1  0.41801430  0.22683836  0.72951793  1
  S  S251  1  0.19687725  0.67021290  0.68932266  1
  S  S252  1  0.91801473  0.22683795  0.72951788  1
  S  S253  1  0.69687267  0.67021472  0.68932273  1
  S  S254  1  0.97330239  0.61736076  0.83163331  1
  S  S255  1  0.75165582  0.05991480  0.79043854  1
  S  S256  1  0.47330599  0.61736220  0.83163404  1
  S  S257  1  0.25165642  0.05991409  0.79043851  1
  S  S258  1  0.86264052  0.33856915  0.81053641  1
  S  S259  1  0.64084525  0.78241400  0.77035880  1
  S  S260  1  0.36263997  0.33856905  0.81053646  1
  S  S261  1  0.14085208  0.78241473  0.77035885  1
  S  S262  1  0.41485510  0.73284647  0.91478497  1
  S  S263  1  0.19549511  0.17232566  0.87099735  1
  S  S264  1  0.91485572  0.73284702  0.91478522  1
  S  S265  1  0.69549530  0.17232547  0.87099733  1
  S  S266  1  0.30630036  0.45068491  0.89121734  1
  S  S267  1  0.08460704  0.89373035  0.85178997  1
  S  S268  1  0.80630055  0.45068499  0.89121717  1
  S  S269  1  0.58460753  0.89373013  0.85179000  1
  S  S270  1  0.64200396  0.27784455  0.95233744  1
  S  S271  1  0.14200390  0.27784397  0.95233721  1
  S  S272  1  0.75595947  0.54957830  0.96975262  1
  S  S273  1  0.52727059  0.00814270  0.93262849  1
  S  S274  1  0.25594703  0.54959629  0.96975289  1
  S  S275  1  0.02727054  0.00814241  0.93262846  1
