# generated using pymatgen
data_Na3PS4
_symmetry_space_group_name_H-M   'P 1'
_cell_length_a   7.04942300
_cell_length_b   25.41705700
_cell_length_c   46.92379800
_cell_angle_alpha   90.00000000
_cell_angle_beta   90.00000000
_cell_angle_gamma   90.00000000
_symmetry_Int_Tables_number   1
_chemical_formula_structural   Na3PS4
_chemical_formula_sum   'Na81 P27 S108'
_cell_volume   8407.59901376
_cell_formula_units_Z   27
loop_
 _symmetry_equiv_pos_site_id
 _symmetry_equiv_pos_as_xyz
  1  'x, y, z'
loop_
 _atom_site_type_symbol
 _atom_site_label
 _atom_site_symmetry_multiplicity
 _atom_site_fract_x
 _atom_site_fract_y
 _atom_site_fract_z
 _atom_site_occupancy
  Na  Na0  1  0.44427809  0.23014821  0.09200505  1
  Na  Na1  1  0.51707435  0.83703261  0.11700224  1
  Na  Na2  1  0.61993028  0.58574632  0.02096844  1
  Na  Na3  1  0.00546296  0.40840706  0.05984765  1
  Na  Na4  1  0.98486022  0.94075492  0.07075318  1
  Na  Na5  1  0.06413821  0.54706395  0.09842024  1
  Na  Na6  1  0.99657670  0.73458428  0.08018757  1
  Na  Na7  1  0.89502007  0.35014532  0.12088898  1
  Na  Na8  1  0.99200700  0.07253297  0.09446255  1
  Na  Na9  1  0.09860419  0.50881229  0.01084898  1
  Na  Na10  1  0.47419369  0.13393970  0.04648889  1
  Na  Na11  1  0.49425984  0.68962917  0.06885659  1
  Na  Na12  1  0.39320573  0.35649991  0.11954970  1
  Na  Na13  1  0.44649122  0.31029981  0.03095748  1
  Na  Na14  1  0.56375603  0.55128032  0.09774448  1
  Na  Na15  1  0.49199185  0.06474245  0.21147088  1
  Na  Na16  1  0.50692814  0.69496932  0.24419210  1
  Na  Na17  1  0.49465891  0.46918878  0.16005073  1
  Na  Na18  1  0.95977768  0.16756176  0.14834433  1
  Na  Na19  1  0.09664308  0.77769899  0.18649209  1
  Na  Na20  1  0.08010243  0.39470273  0.22558131  1
  Na  Na21  1  0.98041516  0.97523392  0.15296894  1
  Na  Na22  1  0.91562253  0.58066085  0.20501813  1
  Na  Na23  1  0.91785044  0.19617183  0.24456030  1
  Na  Na24  1  0.99518277  0.89700098  0.21962677  1
  Na  Na25  1  0.99956048  0.66621320  0.14822477  1
  Na  Na26  1  0.99006022  0.28664787  0.18638872  1
  Na  Na27  1  0.48466661  0.95583059  0.15861373  1
  Na  Na28  1  0.41683238  0.58104703  0.20382075  1
  Na  Na29  1  0.41593675  0.19296863  0.24436997  1
  Na  Na30  1  0.46320404  0.14444235  0.15306879  1
  Na  Na31  1  0.59808182  0.77771510  0.18315575  1
  Na  Na32  1  0.57742819  0.39155948  0.22324924  1
  Na  Na33  1  0.49919607  0.92717334  0.33496660  1
  Na  Na34  1  0.50640951  0.54361077  0.37341022  1
  Na  Na35  1  0.49753749  0.31329790  0.28347983  1
  Na  Na36  1  0.07352330  0.00066993  0.26840868  1
  Na  Na37  1  0.08095649  0.61981147  0.30891020  1
  Na  Na38  1  0.07155467  0.23644939  0.34882898  1
  Na  Na39  1  0.93622115  0.81448222  0.28658397  1
  Na  Na40  1  0.93092684  0.42457219  0.33095289  1
  Na  Na41  1  0.92713913  0.04301386  0.37315410  1
  Na  Na42  1  0.00038504  0.73308712  0.34976099  1
  Na  Na43  1  0.99796080  0.50590241  0.26861857  1
  Na  Na44  1  0.99682991  0.11859724  0.30797608  1
  Na  Na45  1  0.43707479  0.81125756  0.28872114  1
  Na  Na46  1  0.43224724  0.42800523  0.32913085  1
  Na  Na47  1  0.42554233  0.04812236  0.37396139  1
  Na  Na48  1  0.57322271  0.99866360  0.27174946  1
  Na  Na49  1  0.58029514  0.61972461  0.30892017  1
  Na  Na50  1  0.57222445  0.23857006  0.34658504  1
  Na  Na51  1  0.49394588  0.77093246  0.45586455  1
  Na  Na52  1  0.51740917  0.40640995  0.50218626  1
  Na  Na53  1  0.49544813  0.17716575  0.40949469  1
  Na  Na54  1  0.08471093  0.84443938  0.39215139  1
  Na  Na55  1  0.09528712  0.46123697  0.43132814  1
  Na  Na56  1  0.96528404  0.06900932  0.46895554  1
  Na  Na57  1  0.91597467  0.65802383  0.41295184  1
  Na  Na58  1  0.99240489  0.26507122  0.46409796  1
  Na  Na59  1  0.89379305  0.88826518  0.49730818  1
  Na  Na60  1  0.00059514  0.57251694  0.46966260  1
  Na  Na61  1  0.99612261  0.34214597  0.39666051  1
  Na  Na62  1  0.99122037  0.95100717  0.43139684  1
  Na  Na63  1  0.41735608  0.65745373  0.41380011  1
  Na  Na64  1  0.50101920  0.28854887  0.46068507  1
  Na  Na65  1  0.39221625  0.88233397  0.49833222  1
  Na  Na66  1  0.58255972  0.84832598  0.39417110  1
  Na  Na67  1  0.59732284  0.46115777  0.43464249  1
  Na  Na68  1  0.46828406  0.09440435  0.46530600  1
  Na  Na69  1  0.62709150  0.65670432  0.59793121  1
  Na  Na70  1  0.44557118  0.00879516  0.52622557  1
  Na  Na71  1  0.06372879  0.69213939  0.51984721  1
  Na  Na72  1  0.00209318  0.29724866  0.54719066  1
  Na  Na73  1  0.00393401  0.83350614  0.55990810  1
  Na  Na74  1  0.98872005  0.50485550  0.53801492  1
  Na  Na75  1  0.99673083  0.16747391  0.52120157  1
  Na  Na76  1  0.11231569  0.73024580  0.60704640  1
  Na  Na77  1  0.48434033  0.55571097  0.55175788  1
  Na  Na78  1  0.47232707  0.10702440  0.57097983  1
  Na  Na79  1  0.56207237  0.69016456  0.51902575  1
  Na  Na80  1  0.45080302  0.93038938  0.58748576  1
  P  P81  1  0.94550156  0.23552125  0.07331605  1
  P  P82  1  0.01368751  0.84716367  0.12097110  1
  P  P83  1  0.06906864  0.63303646  0.03343418  1
  P  P84  1  0.48197975  0.04517479  0.09994060  1
  P  P85  1  0.50237847  0.43422516  0.05794040  1
  P  P86  1  0.98759510  0.07693780  0.20585408  1
  P  P87  1  0.00757767  0.69669791  0.24668904  1
  P  P88  1  0.99236186  0.46640240  0.16200561  1
  P  P89  1  0.49574661  0.88969025  0.22656980  1
  P  P90  1  0.50114966  0.66117824  0.14405802  1
  P  P91  1  0.48943436  0.27509851  0.18173567  1
  P  P92  1  0.00079427  0.92693610  0.33231741  1
  P  P93  1  0.00689163  0.54226696  0.37104309  1
  P  P94  1  0.99846948  0.31205805  0.28549275  1
  P  P95  1  0.50153917  0.73451005  0.35141075  1
  P  P96  1  0.49899415  0.50477299  0.26658472  1
  P  P97  1  0.49772451  0.11913732  0.30861678  1
  P  P98  1  0.99183581  0.77274941  0.45571998  1
  P  P99  1  0.01436469  0.39255639  0.49712598  1
  P  P100  1  0.98985287  0.16170197  0.41223655  1
  P  P101  1  0.50197023  0.57790407  0.47378232  1
  P  P102  1  0.49553706  0.34931069  0.39099068  1
  P  P103  1  0.49073405  0.96397930  0.43619267  1
  P  P104  1  0.06882342  0.60582214  0.58533000  1
  P  P105  1  0.94704967  0.00444687  0.54469841  1
  P  P106  1  0.48913740  0.19531285  0.51727501  1
  P  P107  1  0.50105775  0.80595773  0.56037892  1
  S  S108  1  0.74011658  0.22817604  0.04195392  1
  S  S109  1  0.85301818  0.83928973  0.08426082  1
  S  S110  1  0.95855189  0.60802305  0.99540557  1
  S  S111  1  0.19904866  0.90921665  0.11557643  1
  S  S112  1  0.19078170  0.70552350  0.03054625  1
  S  S113  1  0.12521799  0.30045234  0.06835410  1
  S  S114  1  0.85583042  0.63376385  0.06521819  1
  S  S115  1  0.81313725  0.24449542  0.11232846  1
  S  S116  1  0.12204550  0.17083540  0.07408143  1
  S  S117  1  0.26758625  0.57765443  0.04678195  1
  S  S118  1  0.32624135  0.03455010  0.06316446  1
  S  S119  1  0.31296809  0.64032322  0.11247666  1
  S  S120  1  0.33647799  0.41853746  0.02245348  1
  S  S121  1  0.62430341  0.11664493  0.09903358  1
  S  S122  1  0.71061600  0.48939280  0.04914309  1
  S  S123  1  0.32948613  0.45730199  0.09132220  1
  S  S124  1  0.68248161  0.98623940  0.10505867  1
  S  S125  1  0.63723914  0.36595095  0.07041711  1
  S  S126  1  0.80554225  0.07220716  0.17151894  1
  S  S127  1  0.84485854  0.69233790  0.21000167  1
  S  S128  1  0.82950950  0.46098965  0.12569979  1
  S  S129  1  0.17838885  0.76240564  0.24450497  1
  S  S130  1  0.16036000  0.53262714  0.15896378  1
  S  S131  1  0.16360534  0.14216589  0.20036323  1
  S  S132  1  0.83872854  0.86238652  0.15573612  1
  S  S133  1  0.82459201  0.47211345  0.19802433  1
  S  S134  1  0.83532917  0.08666283  0.24307311  1
  S  S135  1  0.14894157  0.00962004  0.20802975  1
  S  S136  1  0.17137817  0.78023408  0.12756123  1
  S  S137  1  0.15873092  0.39930060  0.16542225  1
  S  S138  1  0.33979886  0.86947806  0.19094493  1
  S  S139  1  0.32860272  0.48584354  0.23216867  1
  S  S140  1  0.30158250  0.25514814  0.14936718  1
  S  S141  1  0.65518924  0.95526602  0.21675548  1
  S  S142  1  0.66844955  0.72224612  0.12971266  1
  S  S143  1  0.64725831  0.33978377  0.16988752  1
  S  S144  1  0.30117134  0.04766635  0.13478587  1
  S  S145  1  0.35415881  0.68271608  0.18033465  1
  S  S146  1  0.33678024  0.29341603  0.21792292  1
  S  S147  1  0.67416226  0.82789014  0.23679865  1
  S  S148  1  0.66944491  0.59627383  0.15264550  1
  S  S149  1  0.66554350  0.21197050  0.19085715  1
  S  S150  1  0.82483260  0.92051299  0.29732933  1
  S  S151  1  0.83384063  0.53591971  0.33558871  1
  S  S152  1  0.83614708  0.30666797  0.24871924  1
  S  S153  1  0.16832577  0.60981909  0.36780220  1
  S  S154  1  0.16593122  0.37857311  0.28352160  1
  S  S155  1  0.16583560  0.99371564  0.32839746  1
  S  S156  1  0.83407887  0.70341813  0.28207160  1
  S  S157  1  0.82428116  0.31776836  0.32070487  1
  S  S158  1  0.83958501  0.93261685  0.36924288  1
  S  S159  1  0.16948683  0.86068079  0.33431109  1
  S  S160  1  0.16785646  0.62900029  0.25003859  1
  S  S161  1  0.16457387  0.24539799  0.28914929  1
  S  S162  1  0.33640418  0.71536806  0.31661559  1
  S  S163  1  0.32235916  0.33250991  0.35662463  1
  S  S164  1  0.33157194  0.09650076  0.27435383  1
  S  S165  1  0.66977111  0.79827023  0.34105493  1
  S  S166  1  0.66652853  0.56861336  0.25590904  1
  S  S167  1  0.66366333  0.18230575  0.29648606  1
  S  S168  1  0.32023036  0.90578106  0.26077023  1
  S  S169  1  0.33537108  0.52418884  0.30149850  1
  S  S170  1  0.32784342  0.14133246  0.34246938  1
  S  S171  1  0.66768484  0.67038861  0.36199987  1
  S  S172  1  0.66652089  0.44071085  0.27679902  1
  S  S173  1  0.66453658  0.05640193  0.32117325  1
  S  S174  1  0.82804297  0.76695861  0.41931054  1
  S  S175  1  0.83808004  0.37690051  0.46251386  1
  S  S176  1  0.83017324  0.15101487  0.37578956  1
  S  S177  1  0.16708402  0.46032998  0.49041549  1
  S  S178  1  0.14812575  0.22937773  0.40892253  1
  S  S179  1  0.15722409  0.84014451  0.45263054  1
  S  S180  1  0.84405907  0.54670475  0.40770422  1
  S  S181  1  0.81548713  0.16641499  0.44745116  1
  S  S182  1  0.82529989  0.77800739  0.49165727  1
  S  S183  1  0.16104682  0.70687444  0.45915805  1
  S  S184  1  0.17664074  0.47635633  0.37325398  1
  S  S185  1  0.16937080  0.09710212  0.41736079  1
  S  S186  1  0.35447448  0.55624755  0.43754771  1
  S  S187  1  0.31461402  0.19377041  0.48170442  1
  S  S188  1  0.33875025  0.94629618  0.39986251  1
  S  S189  1  0.67035054  0.64273661  0.46503353  1
  S  S190  1  0.67273171  0.41143569  0.38085429  1
  S  S191  1  0.66892967  0.02670271  0.42728616  1
  S  S192  1  0.33216593  0.75355633  0.38598127  1
  S  S193  1  0.33730080  0.36942677  0.42637306  1
  S  S194  1  0.30250365  0.98382330  0.46856761  1
  S  S195  1  0.66987314  0.51702587  0.48805318  1
  S  S196  1  0.65720063  0.28432431  0.40116085  1
  S  S197  1  0.64645437  0.89888798  0.44805312  1
  S  S198  1  0.85599483  0.60693072  0.55357895  1
  S  S199  1  0.81385815  0.99408565  0.50584974  1
  S  S200  1  0.12321789  0.06917323  0.54304523  1
  S  S201  1  0.27488487  0.65907237  0.57166561  1
  S  S202  1  0.85658688  0.39896981  0.53411351  1
  S  S203  1  0.74255419  0.01265719  0.57613597  1
  S  S204  1  0.96328607  0.63263996  0.62332384  1
  S  S205  1  0.18076193  0.53230992  0.58831213  1
  S  S206  1  0.20522405  0.33163723  0.50202002  1
  S  S207  1  0.12766223  0.93986168  0.55024542  1
  S  S208  1  0.32338372  0.78299090  0.52759253  1
  S  S209  1  0.69296303  0.25347508  0.51311961  1
  S  S210  1  0.63527834  0.87414215  0.54753807  1
  S  S211  1  0.31411707  0.59918625  0.50534574  1
  S  S212  1  0.32637838  0.20613241  0.55343743  1
  S  S213  1  0.33995555  0.82172343  0.59638884  1
  S  S214  1  0.62720222  0.12330931  0.51886684  1
  S  S215  1  0.71020247  0.75081304  0.56850550  1
