# generated using pymatgen
data_Na3PS4
_symmetry_space_group_name_H-M   'P 1'
_cell_length_a   7.04942300
_cell_length_b   15.76299000
_cell_length_c   44.13637200
_cell_angle_alpha   90.00000000
_cell_angle_beta   90.00000000
_cell_angle_gamma   90.00000000
_symmetry_Int_Tables_number   1
_chemical_formula_structural   Na3PS4
_chemical_formula_sum   'Na39 P13 S52'
_cell_volume   4904.43296170
_cell_formula_units_Z   13
loop_
 _symmetry_equiv_pos_site_id
 _symmetry_equiv_pos_as_xyz
  1  'x, y, z'
loop_
 _atom_site_type_symbol
 _atom_site_label
 _atom_site_symmetry_multiplicity
 _atom_site_fract_x
 _atom_site_fract_y
 _atom_site_fract_z
 _atom_site_occupancy
  Na  Na0  1  0.53494495  0.37039352  0.05353576  1
  Na  Na1  1  0.51929507  0.82735915  0.12933746  1
  Na  Na2  1  0.01340069  0.34010470  0.14185820  1
  Na  Na3  1  0.97596591  0.94131641  0.07621670  1
  Na  Na4  1  0.00327232  0.60809892  0.10299106  1
  Na  Na5  1  0.98394735  0.13606307  0.11059046  1
  Na  Na6  1  0.02619075  0.21503581  0.04195405  1
  Na  Na7  1  0.49481369  0.56259847  0.09880606  1
  Na  Na8  1  0.52420962  0.31804504  0.13002053  1
  Na  Na9  1  0.50477739  0.20836798  0.20661777  1
  Na  Na10  1  0.51525269  0.60904700  0.27860292  1
  Na  Na11  1  0.08794458  0.11134059  0.28014212  1
  Na  Na12  1  0.09128704  0.71867082  0.20860524  1
  Na  Na13  1  0.91647150  0.00665049  0.17190694  1
  Na  Na14  1  0.92635616  0.40578237  0.24502010  1
  Na  Na15  1  0.00681488  0.91885896  0.24232053  1
  Na  Na16  1  0.00392817  0.52562372  0.18097708  1
  Na  Na17  1  0.42039200  0.01221761  0.17043654  1
  Na  Na18  1  0.42998321  0.40642728  0.24402964  1
  Na  Na19  1  0.58584641  0.10893590  0.28059013  1
  Na  Na20  1  0.58228649  0.71531176  0.20512444  1
  Na  Na21  1  0.50818497  0.00002413  0.35531600  1
  Na  Na22  1  0.53023772  0.38809317  0.42561939  1
  Na  Na23  1  0.02855301  0.88090897  0.41806236  1
  Na  Na24  1  0.10688100  0.50711937  0.35038959  1
  Na  Na25  1  0.92488732  0.81411146  0.31198802  1
  Na  Na26  1  0.92669323  0.20795981  0.38914417  1
  Na  Na27  1  0.00820552  0.70409313  0.37607073  1
  Na  Na28  1  0.01256473  0.30898345  0.31776268  1
  Na  Na29  1  0.43036627  0.81144329  0.31364868  1
  Na  Na30  1  0.42614851  0.20399931  0.38673392  1
  Na  Na31  1  0.53096975  0.90101226  0.43321145  1
  Na  Na32  1  0.59768152  0.50656560  0.35165561  1
  Na  Na33  1  0.52507596  0.79987326  0.50431601  1
  Na  Na34  1  0.97196538  0.27988087  0.48132586  1
  Na  Na35  1  0.98278366  0.61212231  0.45299954  1
  Na  Na36  1  0.99581844  0.06799719  0.45724117  1
  Na  Na37  1  0.46037951  0.62724350  0.45392923  1
  Na  Na38  1  0.32040264  0.00620211  0.52038229  1
  P  P39  1  0.02602992  0.41782058  0.06444914  1
  P  P40  1  0.01444658  0.80813063  0.13640989  1
  P  P41  1  0.48112544  0.11089792  0.09595355  1
  P  P42  1  0.00446957  0.20743313  0.20772085  1
  P  P43  1  0.01758626  0.60971911  0.27902595  1
  P  P44  1  0.50552983  0.91271243  0.24287265  1
  P  P45  1  0.50626109  0.51221742  0.17441693  1
  P  P46  1  0.00648908  0.00859196  0.35178518  1
  P  P47  1  0.02414349  0.41272433  0.42174650  1
  P  P48  1  0.51063511  0.70969166  0.38348416  1
  P  P49  1  0.51326310  0.30835911  0.31588446  1
  P  P50  1  0.01494790  0.79633943  0.49488094  1
  P  P51  1  0.48581895  0.11317938  0.46170974  1
  S  S52  1  0.89917653  0.37609329  0.02566181  1
  S  S53  1  0.85867187  0.77908409  0.09800262  1
  S  S54  1  0.16536368  0.91864168  0.12889427  1
  S  S55  1  0.20006712  0.51985810  0.05585280  1
  S  S56  1  0.81728532  0.44986892  0.09661659  1
  S  S57  1  0.18533940  0.32078211  0.08365577  1
  S  S58  1  0.27453747  0.07698688  0.06467833  1
  S  S59  1  0.31277048  0.47161648  0.14237776  1
  S  S60  1  0.66059230  0.20355347  0.07881446  1
  S  S61  1  0.34921490  0.15641090  0.13467586  1
  S  S62  1  0.65290127  0.00972921  0.10897864  1
  S  S63  1  0.83353755  0.18685585  0.17009179  1
  S  S64  1  0.84821636  0.58724304  0.24158408  1
  S  S65  1  0.18218463  0.71541357  0.27075264  1
  S  S66  1  0.17246439  0.31262916  0.20004563  1
  S  S67  1  0.83661138  0.82974061  0.17297844  1
  S  S68  1  0.83690093  0.22994265  0.24524745  1
  S  S69  1  0.17042408  0.10183550  0.21551597  1
  S  S70  1  0.20215613  0.71109323  0.14519889  1
  S  S71  1  0.33778466  0.86895118  0.20796251  1
  S  S72  1  0.34210796  0.26404299  0.28120291  1
  S  S73  1  0.66970696  0.01163235  0.22693312  1
  S  S74  1  0.67468158  0.60585044  0.15604778  1
  S  S75  1  0.34015713  0.95572483  0.27840855  1
  S  S76  1  0.35959898  0.55928098  0.21128967  1
  S  S77  1  0.67697216  0.81486553  0.25799480  1
  S  S78  1  0.67242292  0.40972620  0.18718336  1
  S  S79  1  0.83491678  0.98925514  0.31441815  1
  S  S80  1  0.85503104  0.39134750  0.38419044  1
  S  S81  1  0.21216993  0.51101308  0.41401918  1
  S  S82  1  0.17832124  0.11223124  0.34379868  1
  S  S83  1  0.84859911  0.63311847  0.31643040  1
  S  S84  1  0.84217817  0.02987490  0.39002408  1
  S  S85  1  0.16913064  0.90106292  0.35850469  1
  S  S86  1  0.18106928  0.50363640  0.28741675  1
  S  S87  1  0.36041038  0.66151966  0.34714718  1
  S  S88  1  0.34381665  0.06415543  0.42460015  1
  S  S89  1  0.67233196  0.81242718  0.37036136  1
  S  S90  1  0.67996841  0.40607350  0.29945614  1
  S  S91  1  0.32218662  0.74857131  0.41652621  1
  S  S92  1  0.34990479  0.35311012  0.35122120  1
  S  S93  1  0.68470266  0.61558711  0.40054263  1
  S  S94  1  0.68048997  0.21062425  0.33187867  1
  S  S95  1  0.81696971  0.77009961  0.46031098  1
  S  S96  1  0.18654840  0.89474541  0.47851952  1
  S  S97  1  0.85744664  0.44105820  0.45912931  1
  S  S98  1  0.87965485  0.82933979  0.53317145  1
  S  S99  1  0.19035929  0.69138076  0.50094896  1
  S  S100  1  0.17512312  0.30329591  0.42990490  1
  S  S101  1  0.66821963  0.20746872  0.44655534  1
  S  S102  1  0.28830938  0.15843691  0.49290167  1
  S  S103  1  0.64436688  0.01991243  0.48263108  1
