# generated using pymatgen
data_Na3PS4
_symmetry_space_group_name_H-M   'P 1'
_cell_length_a   7.04942300
_cell_length_b   7.04942300
_cell_length_c   49.34596400
_cell_angle_alpha   90.00000000
_cell_angle_beta   90.00000000
_cell_angle_gamma   90.00000000
_symmetry_Int_Tables_number   1
_chemical_formula_structural   Na3PS4
_chemical_formula_sum   'Na21 P7 S28'
_cell_volume   2452.21632818
_cell_formula_units_Z   7
loop_
 _symmetry_equiv_pos_site_id
 _symmetry_equiv_pos_as_xyz
  1  'x, y, z'
loop_
 _atom_site_type_symbol
 _atom_site_label
 _atom_site_symmetry_multiplicity
 _atom_site_fract_x
 _atom_site_fract_y
 _atom_site_fract_z
 _atom_site_occupancy
  Na  Na0  1  0.99999247  0.50012566  0.13037155  1
  Na  Na1  1  0.99926449  0.00162782  0.06362532  1
  Na  Na2  1  0.49994412  0.99969043  0.13046607  1
  Na  Na3  1  0.49979565  0.99914882  0.05601604  1
  Na  Na4  1  0.49999595  0.49956830  0.12881059  1
  Na  Na5  1  0.00073181  0.50061796  0.05595410  1
  Na  Na6  1  0.00087074  0.49981279  0.27349822  1
  Na  Na7  1  0.99981061  0.00022606  0.20243949  1
  Na  Na8  1  0.49981829  0.00037271  0.27363883  1
  Na  Na9  1  0.49972243  0.00016935  0.20174672  1
  Na  Na10  1  0.50083756  0.50045260  0.27349179  1
  Na  Na11  1  0.00001359  0.50021980  0.20161243  1
  Na  Na12  1  0.99948786  0.50038651  0.41677648  1
  Na  Na13  1  0.99926178  0.99905142  0.34470861  1
  Na  Na14  1  0.49997350  0.00100766  0.41709564  1
  Na  Na15  1  0.49927553  0.99999135  0.34561322  1
  Na  Na16  1  0.49950210  0.50093504  0.41830343  1
  Na  Na17  1  0.99998326  0.49914673  0.34537346  1
  Na  Na18  1  0.00115140  0.00002610  0.48349742  1
  Na  Na19  1  0.50048217  0.99986970  0.49144683  1
  Na  Na20  1  0.99958974  0.49994985  0.49120431  1
  P  P21  1  0.99999045  0.00003097  0.13157524  1
  P  P22  1  0.50067053  0.49924179  0.05588834  1
  P  P23  1  0.99986045  0.99988558  0.27355128  1
  P  P24  1  0.50005715  0.50011953  0.20169253  1
  P  P25  1  0.99995562  0.00033337  0.41559800  1
  P  P26  1  0.50000230  0.49996129  0.34545216  1
  P  P27  1  0.49959467  0.49991290  0.49139039  1
  S  S28  1  0.82943002  0.17030260  0.10739828  1
  S  S29  1  0.17002685  0.83002746  0.10726332  1
  S  S30  1  0.67219919  0.67117963  0.08053253  1
  S  S31  1  0.32850997  0.32760753  0.08049403  1
  S  S32  1  0.32913269  0.67099326  0.03278530  1
  S  S33  1  0.67288498  0.32714103  0.03290454  1
  S  S34  1  0.17062010  0.17050624  0.15537505  1
  S  S35  1  0.82976800  0.82935722  0.15539149  1
  S  S36  1  0.83016435  0.16978733  0.24937273  1
  S  S37  1  0.16998673  0.83052871  0.24935322  1
  S  S38  1  0.66948379  0.66952259  0.22599778  1
  S  S39  1  0.33059812  0.33093562  0.22603616  1
  S  S40  1  0.33111708  0.66910580  0.17731741  1
  S  S41  1  0.66892946  0.33094726  0.17733640  1
  S  S42  1  0.16938137  0.16965427  0.29777372  1
  S  S43  1  0.83004370  0.82980987  0.29768350  1
  S  S44  1  0.82923564  0.17043094  0.39177995  1
  S  S45  1  0.17082865  0.82984239  0.39185117  1
  S  S46  1  0.66938079  0.66894874  0.36978608  1
  S  S47  1  0.33081438  0.33133747  0.36985880  1
  S  S48  1  0.33082306  0.66923853  0.32110222  1
  S  S49  1  0.66889838  0.33034343  0.32111317  1
  S  S50  1  0.16980989  0.17101107  0.43983467  1
  S  S51  1  0.82994727  0.83002360  0.43987760  1
  S  S52  1  0.67172096  0.67109913  0.51448726  1
  S  S53  1  0.32749030  0.32801824  0.51440435  1
  S  S54  1  0.32806302  0.67224550  0.46678448  1
  S  S55  1  0.67107502  0.32817242  0.46670828  1
