# generated using pymatgen
data_Na3PS4
_symmetry_space_group_name_H-M   'P 1'
_cell_length_a   7.04942300
_cell_length_b   9.96939000
_cell_length_c   49.84695100
_cell_angle_alpha   90.00000000
_cell_angle_beta   90.00000000
_cell_angle_gamma   90.00000000
_symmetry_Int_Tables_number   1
_chemical_formula_structural   Na3PS4
_chemical_formula_sum   'Na30 P10 S40'
_cell_volume   3503.16631204
_cell_formula_units_Z   10
loop_
 _symmetry_equiv_pos_site_id
 _symmetry_equiv_pos_as_xyz
  1  'x, y, z'
loop_
 _atom_site_type_symbol
 _atom_site_label
 _atom_site_symmetry_multiplicity
 _atom_site_fract_x
 _atom_site_fract_y
 _atom_site_fract_z
 _atom_site_occupancy
  Na  Na0  1  0.48092048  0.42787037  0.09194756  1
  Na  Na1  1  0.01163323  0.86754323  0.06923313  1
  Na  Na2  1  0.50637604  0.17937646  0.04356523  1
  Na  Na3  1  0.49702382  0.63034332  0.04170947  1
  Na  Na4  1  0.50012094  0.94175963  0.19249144  1
  Na  Na5  1  0.01495910  0.12393679  0.12009353  1
  Na  Na6  1  0.99998326  0.67015739  0.12611639  1
  Na  Na7  1  0.99430924  0.37656570  0.17080288  1
  Na  Na8  1  0.49673846  0.69968829  0.14085735  1
  Na  Na9  1  0.51504570  0.13406717  0.13563728  1
  Na  Na10  1  0.49926777  0.44812018  0.29321277  1
  Na  Na11  1  0.99974503  0.62240066  0.22330022  1
  Na  Na12  1  0.00256061  0.17853618  0.22897193  1
  Na  Na13  1  0.99899862  0.88288172  0.27287414  1
  Na  Na14  1  0.50076084  0.20298909  0.24143532  1
  Na  Na15  1  0.50019580  0.64701354  0.23549414  1
  Na  Na16  1  0.49620936  0.95344230  0.39536238  1
  Na  Na17  1  0.00078424  0.12801760  0.32475389  1
  Na  Na18  1  0.00189461  0.68408302  0.33045992  1
  Na  Na19  1  0.00116134  0.38974929  0.37353323  1
  Na  Na20  1  0.50115101  0.70820664  0.34278710  1
  Na  Na21  1  0.50247927  0.15169892  0.33720291  1
  Na  Na22  1  0.51322248  0.46246690  0.49687653  1
  Na  Na23  1  0.99824550  0.63099232  0.42527455  1
  Na  Na24  1  0.01439485  0.19668583  0.43020330  1
  Na  Na25  1  0.98362674  0.90328320  0.47409644  1
  Na  Na26  1  0.51556089  0.20651622  0.44595856  1
  Na  Na27  1  0.50148954  0.65943245  0.43999548  1
  Na  Na28  1  0.00858031  0.15048898  0.52254116  1
  Na  Na29  1  0.99884445  0.69973031  0.52430776  1
  P  P30  1  0.98111915  0.40775997  0.07484829  1
  P  P31  1  0.50676590  0.89925258  0.08217902  1
  P  P32  1  0.00206558  0.91232597  0.18109337  1
  P  P33  1  0.49896060  0.40574177  0.18222984  1
  P  P34  1  0.00082705  0.41789500  0.28236185  1
  P  P35  1  0.50062277  0.91304701  0.28373619  1
  P  P36  1  0.00068771  0.92414470  0.38384462  1
  P  P37  1  0.50334077  0.41814684  0.38502997  1
  P  P38  1  0.00812547  0.43065626  0.48388566  1
  P  P39  1  0.48377831  0.92230874  0.49117334  1
  S  S40  1  0.76572462  0.40709412  0.04617400  1
  S  S41  1  0.14612360  0.57944617  0.07235875  1
  S  S42  1  0.15899838  0.24521680  0.07115118  1
  S  S43  1  0.38499952  0.90086379  0.04434722  1
  S  S44  1  0.69030701  0.05915368  0.08477913  1
  S  S45  1  0.66049275  0.72536419  0.08772613  1
  S  S46  1  0.80946846  0.90636458  0.14994255  1
  S  S47  1  0.15928928  0.08661374  0.17812590  1
  S  S48  1  0.85537972  0.40070813  0.11269628  1
  S  S49  1  0.18152531  0.74868244  0.17904088  1
  S  S50  1  0.35183428  0.40752065  0.14624865  1
  S  S51  1  0.68006498  0.56829082  0.18375686  1
  S  S52  1  0.29975486  0.91068118  0.11159070  1
  S  S53  1  0.65748240  0.23213278  0.18567409  1
  S  S54  1  0.80565213  0.41082023  0.25132696  1
  S  S55  1  0.15710464  0.59255977  0.27922902  1
  S  S56  1  0.85761611  0.90687552  0.21726593  1
  S  S57  1  0.18143412  0.25522640  0.28033771  1
  S  S58  1  0.35639284  0.91833256  0.24763230  1
  S  S59  1  0.68132046  0.07566165  0.28581940  1
  S  S60  1  0.30523836  0.41422944  0.21333116  1
  S  S61  1  0.65691038  0.73835742  0.28674582  1
  S  S62  1  0.80656080  0.91571706  0.35277447  1
  S  S63  1  0.15898288  0.09786666  0.38038933  1
  S  S64  1  0.85663421  0.41305285  0.31847066  1
  S  S65  1  0.18185555  0.76167519  0.38230704  1
  S  S66  1  0.35893906  0.42356637  0.34885725  1
  S  S67  1  0.68267846  0.58181388  0.38706420  1
  S  S68  1  0.30560985  0.91981826  0.31479232  1
  S  S69  1  0.66099753  0.24395353  0.38794441  1
  S  S70  1  0.80051364  0.42007853  0.45454155  1
  S  S71  1  0.16283105  0.60419553  0.47838955  1
  S  S72  1  0.85390527  0.92238873  0.41984904  1
  S  S73  1  0.19037618  0.27012278  0.48111414  1
  S  S74  1  0.35782892  0.92914802  0.45333668  1
  S  S75  1  0.66158826  0.08487389  0.49484523  1
  S  S76  1  0.31068092  0.42396685  0.41617841  1
  S  S77  1  0.64881157  0.75066961  0.49362627  1
  S  S78  1  0.88704914  0.42893994  0.52175547  1
  S  S79  1  0.26846567  0.92304373  0.51986519  1
