# generated using pymatgen
data_Na3PS4
_symmetry_space_group_name_H-M   'P 1'
_cell_length_a   7.04942300
_cell_length_b   22.29223400
_cell_length_c   46.81369100
_cell_angle_alpha   90.00000000
_cell_angle_beta   90.00000000
_cell_angle_gamma   90.00000000
_symmetry_Int_Tables_number   1
_chemical_formula_structural   Na3PS4
_chemical_formula_sum   'Na54 P18 S72'
_cell_volume   7356.64922027
_cell_formula_units_Z   18
loop_
 _symmetry_equiv_pos_site_id
 _symmetry_equiv_pos_as_xyz
  1  'x, y, z'
loop_
 _atom_site_type_symbol
 _atom_site_label
 _atom_site_symmetry_multiplicity
 _atom_site_fract_x
 _atom_site_fract_y
 _atom_site_fract_z
 _atom_site_occupancy
  Na  Na0  1  0.51221738  0.62954058  0.06196998  1
  Na  Na1  1  0.49955109  0.94256944  0.12117744  1
  Na  Na2  1  0.99096489  0.27437363  0.10779679  1
  Na  Na3  1  0.82954633  0.97134035  0.05904403  1
  Na  Na4  1  0.99656098  0.76117845  0.10601841  1
  Na  Na5  1  0.99973860  0.44256023  0.12115662  1
  Na  Na6  1  0.01188337  0.12955791  0.06199046  1
  Na  Na7  1  0.32974711  0.47129124  0.05902681  1
  Na  Na8  1  0.49103064  0.77441454  0.10776332  1
  Na  Na9  1  0.49641855  0.26113487  0.10609597  1
  Na  Na10  1  0.50925479  0.52139767  0.20402227  1
  Na  Na11  1  0.50812513  0.21501602  0.18404185  1
  Na  Na12  1  0.51646237  0.81370078  0.26608182  1
  Na  Na13  1  0.01477101  0.58942628  0.14674082  1
  Na  Na14  1  0.06161810  0.15477208  0.24376561  1
  Na  Na15  1  0.92117306  0.86658082  0.19461167  1
  Na  Na16  1  0.93016131  0.36334499  0.19268771  1
  Na  Na17  1  0.01348479  0.07417444  0.13099266  1
  Na  Na18  1  0.05116604  0.65670204  0.25274044  1
  Na  Na19  1  0.01646741  0.31366729  0.26610256  1
  Na  Na20  1  0.00901467  0.02134307  0.20408597  1
  Na  Na21  1  0.00810767  0.71513997  0.18395456  1
  Na  Na22  1  0.42131207  0.36656676  0.19460934  1
  Na  Na23  1  0.51429701  0.08944031  0.14677776  1
  Na  Na24  1  0.56233310  0.65484960  0.24373430  1
  Na  Na25  1  0.51380274  0.57419335  0.13097111  1
  Na  Na26  1  0.55037966  0.15663189  0.25283643  1
  Na  Na27  1  0.43003005  0.86335188  0.19269801  1
  Na  Na28  1  0.50900625  0.41341677  0.34725040  1
  Na  Na29  1  0.50975250  0.10743791  0.32714644  1
  Na  Na30  1  0.50242669  0.68540669  0.41050661  1
  Na  Na31  1  0.05594077  0.47327159  0.28779564  1
  Na  Na32  1  0.01930118  0.03872821  0.38460490  1
  Na  Na33  1  0.92051573  0.76215653  0.33708201  1
  Na  Na34  1  0.92912871  0.26427984  0.33934586  1
  Na  Na35  1  0.04555869  0.97187459  0.27813187  1
  Na  Na36  1  0.01779289  0.55361417  0.40011089  1
  Na  Na37  1  0.00245899  0.18549905  0.41052250  1
  Na  Na38  1  0.00894252  0.91336113  0.34731209  1
  Na  Na39  1  0.00978854  0.60740879  0.32709118  1
  Na  Na40  1  0.42053364  0.26221159  0.33708866  1
  Na  Na41  1  0.55609844  0.97325461  0.28782595  1
  Na  Na42  1  0.51927622  0.53867403  0.38458106  1
  Na  Na43  1  0.54535638  0.47191019  0.27804936  1
  Na  Na44  1  0.51778075  0.05362516  0.40013537  1
  Na  Na45  1  0.42915691  0.76420481  0.33930856  1
  Na  Na46  1  0.51691017  0.99854587  0.46919180  1
  Na  Na47  1  0.98817319  0.35443314  0.42397977  1
  Na  Na48  1  0.83303647  0.65645327  0.47247332  1
  Na  Na49  1  0.99547859  0.86661506  0.42515871  1
  Na  Na50  1  0.01685889  0.49866233  0.46920357  1
  Na  Na51  1  0.33311359  0.15644446  0.47247071  1
  Na  Na52  1  0.48786037  0.85429670  0.42394837  1
  Na  Na53  1  0.49567062  0.36665692  0.42518180  1
  P  P54  1  0.00110492  0.62567537  0.07183423  1
  P  P55  1  0.99724861  0.91392641  0.11947871  1
  P  P56  1  0.49743123  0.41393895  0.11946303  1
  P  P57  1  0.50079150  0.12564723  0.07186565  1
  P  P58  1  0.01085162  0.51670045  0.21492392  1
  P  P59  1  0.00785483  0.21223090  0.17437869  1
  P  P60  1  0.01936038  0.81401700  0.26581272  1
  P  P61  1  0.51943189  0.31404810  0.26581698  1
  P  P62  1  0.51061420  0.01668937  0.21497416  1
  P  P63  1  0.50785335  0.71224908  0.17436259  1
  P  P64  1  0.00865098  0.41553566  0.35714900  1
  P  P65  1  0.01121854  0.11147810  0.31651145  1
  P  P66  1  0.99966873  0.71373509  0.41206500  1
  P  P67  1  0.49972577  0.21376796  0.41208561  1
  P  P68  1  0.50863825  0.91549068  0.35714464  1
  P  P69  1  0.51124761  0.61147261  0.31646645  1
  P  P70  1  0.00590033  0.00195406  0.45943727  1
  P  P71  1  0.50579054  0.50203933  0.45943772  1
  S  S72  1  0.86177835  0.59068210  0.03831799  1
  S  S73  1  0.81925366  0.18838363  0.14243916  1
  S  S74  1  0.79960249  0.87104411  0.09284220  1
  S  S75  1  0.14859890  0.97386514  0.09528214  1
  S  S76  1  0.17351993  0.69742565  0.06133911  1
  S  S77  1  0.80467308  0.65395681  0.10310708  1
  S  S78  1  0.17568894  0.56088174  0.09161115  1
  S  S79  1  0.18033629  0.85116832  0.13715495  1
  S  S80  1  0.29973786  0.37104867  0.09284917  1
  S  S81  1  0.36133301  0.09067803  0.03835429  1
  S  S82  1  0.31935373  0.68839936  0.14240887  1
  S  S83  1  0.64873191  0.47384886  0.09524728  1
  S  S84  1  0.67312345  0.19740769  0.06136277  1
  S  S85  1  0.30440665  0.15389006  0.10315017  1
  S  S86  1  0.68046463  0.35118525  0.13714911  1
  S  S87  1  0.67531835  0.06082807  0.09163566  1
  S  S88  1  0.85600293  0.48609309  0.18041979  1
  S  S89  1  0.82954683  0.08452751  0.28393072  1
  S  S90  1  0.84807775  0.77072461  0.23648755  1
  S  S91  1  0.17854780  0.28189713  0.15984259  1
  S  S92  1  0.18434252  0.87655358  0.24475140  1
  S  S93  1  0.17394346  0.58910660  0.20333242  1
  S  S94  1  0.86104181  0.24128855  0.20971581  1
  S  S95  1  0.85047767  0.95671671  0.15167051  1
  S  S96  1  0.82974309  0.54401779  0.24750417  1
  S  S97  1  0.18338777  0.44866403  0.23022992  1
  S  S98  1  0.17618953  0.13948082  0.18407691  1
  S  S99  1  0.18264924  0.75124723  0.28699191  1
  S  S100  1  0.34801194  0.27075385  0.23651433  1
  S  S101  1  0.35573256  0.98610826  0.18046692  1
  S  S102  1  0.32971123  0.58454047  0.28387139  1
  S  S103  1  0.68450400  0.37653654  0.24474463  1
  S  S104  1  0.67375532  0.08909864  0.20338394  1
  S  S105  1  0.67851924  0.78192654  0.15984109  1
  S  S106  1  0.35072606  0.45676218  0.15164473  1
  S  S107  1  0.32955251  0.04400117  0.24755943  1
  S  S108  1  0.36104412  0.74126502  0.20970968  1
  S  S109  1  0.68258815  0.25125736  0.28700882  1
  S  S110  1  0.68311952  0.94863723  0.23026651  1
  S  S111  1  0.67625857  0.63950784  0.18405089  1
  S  S112  1  0.86174294  0.38580833  0.32195634  1
  S  S113  1  0.80889114  0.97435005  0.42809403  1
  S  S114  1  0.85269997  0.67119813  0.37981767  1
  S  S115  1  0.18285260  0.17997243  0.30144138  1
  S  S116  1  0.18275386  0.77661679  0.39447894  1
  S  S117  1  0.17641758  0.48824896  0.34720462  1
  S  S118  1  0.85715887  0.14131949  0.35124473  1
  S  S119  1  0.84812359  0.85767005  0.29499153  1
  S  S120  1  0.81969420  0.43984174  0.38893496  1
  S  S121  1  0.17944283  0.34623687  0.37203643  1
  S  S122  1  0.17518728  0.03895857  0.32772742  1
  S  S123  1  0.15115332  0.65360363  0.43614401  1
  S  S124  1  0.35267461  0.17124732  0.37984262  1
  S  S125  1  0.36165938  0.88578623  0.32195257  1
  S  S126  1  0.30877698  0.47437228  0.42809790  1
  S  S127  1  0.68280326  0.27665793  0.39450615  1
  S  S128  1  0.67649998  0.98818116  0.34720191  1
  S  S129  1  0.68290265  0.67996640  0.30141448  1
  S  S130  1  0.34825623  0.35776872  0.29498339  1
  S  S131  1  0.31974986  0.93981459  0.38893760  1
  S  S132  1  0.35709501  0.64129590  0.35118983  1
  S  S133  1  0.65122718  0.15361763  0.43615590  1
  S  S134  1  0.67937172  0.84616677  0.37202066  1
  S  S135  1  0.67517616  0.53894661  0.32768452  1
  S  S136  1  0.18033900  0.06697229  0.43984799  1
  S  S137  1  0.86692214  0.03628752  0.49314713  1
  S  S138  1  0.80226921  0.75659029  0.43871207  1
  S  S139  1  0.17820220  0.92994976  0.46969407  1
  S  S140  1  0.68021603  0.56704992  0.43982953  1
  S  S141  1  0.30232108  0.25661371  0.43873456  1
  S  S142  1  0.36689965  0.53639782  0.49314474  1
  S  S143  1  0.67820373  0.43005765  0.46969327  1
