# generated using pymatgen
data_Li3PS4
_symmetry_space_group_name_H-M   'P 1'
_cell_length_a   6.25995100
_cell_length_b   8.10679100
_cell_length_c   39.05167957
_cell_angle_alpha   90.00000000
_cell_angle_beta   90.00000000
_cell_angle_gamma   90.00000000
_symmetry_Int_Tables_number   1
_chemical_formula_structural   Li3PS4
_chemical_formula_sum   'Li36 P12 S48'
_cell_volume   1981.79910325
_cell_formula_units_Z   12
loop_
 _symmetry_equiv_pos_site_id
 _symmetry_equiv_pos_as_xyz
  1  'x, y, z'
loop_
 _atom_site_type_symbol
 _atom_site_label
 _atom_site_symmetry_multiplicity
 _atom_site_fract_x
 _atom_site_fract_y
 _atom_site_fract_z
 _atom_site_occupancy
  Li  Li0  1  0.11415239  0.96768744  0.19394351  1
  Li  Li1  1  0.61192287  0.03654232  0.13871630  1
  Li  Li2  1  0.37230843  0.99840186  0.02701475  1
  Li  Li3  1  0.37129957  0.50046827  0.02701424  1
  Li  Li4  1  0.61160728  0.46327215  0.13868044  1
  Li  Li5  1  0.11408312  0.53233206  0.19395694  1
  Li  Li6  1  0.50023457  0.00003994  0.24999825  1
  Li  Li7  1  0.98192759  0.97866891  0.08489482  1
  Li  Li8  1  0.98096173  0.52176620  0.08488736  1
  Li  Li9  1  0.50024261  0.49998560  0.24999136  1
  Li  Li10  1  0.89007222  0.03360913  0.30604424  1
  Li  Li11  1  0.62725545  0.00153450  0.47294206  1
  Li  Li12  1  0.38833885  0.96295361  0.36132082  1
  Li  Li13  1  0.38831262  0.53708047  0.36132241  1
  Li  Li14  1  0.62725195  0.49880491  0.47297540  1
  Li  Li15  1  0.89013018  0.46647984  0.30604074  1
  Li  Li16  1  0.01756117  0.02132590  0.41512980  1
  Li  Li17  1  0.01787651  0.47865337  0.41508590  1
  Li  Li18  1  0.39010210  0.03393895  0.69392598  1
  Li  Li19  1  0.88835308  0.96307813  0.63865674  1
  Li  Li20  1  0.12714479  0.00132410  0.52704784  1
  Li  Li21  1  0.12727219  0.49880704  0.52701753  1
  Li  Li22  1  0.88817586  0.53676813  0.63871447  1
  Li  Li23  1  0.38514970  0.46847591  0.69408971  1
  Li  Li24  1  0.00028121  0.99990734  0.74997831  1
  Li  Li25  1  0.51773598  0.02129431  0.58491210  1
  Li  Li26  1  0.51785872  0.47873349  0.58492361  1
  Li  Li27  1  0.99956671  0.49991479  0.75001210  1
  Li  Li28  1  0.61470814  0.96839734  0.80597484  1
  Li  Li29  1  0.87238766  0.99847022  0.97292867  1
  Li  Li30  1  0.11166622  0.03668025  0.86131418  1
  Li  Li31  1  0.11145837  0.46323566  0.86132714  1
  Li  Li32  1  0.87146705  0.50051751  0.97297777  1
  Li  Li33  1  0.60951286  0.53389179  0.80606225  1
  Li  Li34  1  0.48197420  0.97863643  0.91507754  1
  Li  Li35  1  0.48193026  0.52137569  0.91507137  1
  P  P36  1  0.84847685  0.24986611  0.22002427  1
  P  P37  1  0.15327150  0.75012969  0.28007204  1
  P  P38  1  0.35304248  0.74987459  0.11205995  1
  P  P39  1  0.65622652  0.24955849  0.05572727  1
  P  P40  1  0.34237391  0.75008386  0.44430752  1
  P  P41  1  0.64693722  0.25007673  0.38785996  1
  P  P42  1  0.65209795  0.74979385  0.72000857  1
  P  P43  1  0.34752062  0.24981880  0.78000094  1
  P  P44  1  0.14678819  0.25004928  0.61211100  1
  P  P45  1  0.84238162  0.75004391  0.55570997  1
  P  P46  1  0.15691247  0.24987102  0.94422801  1
  P  P47  1  0.85299358  0.74999303  0.88788264  1
  S  S48  1  0.73182621  0.46353442  0.19859020  1
  S  S49  1  0.27083849  0.53651460  0.30139959  1
  S  S50  1  0.23501363  0.53787970  0.13377289  1
  S  S51  1  0.76010915  0.46712829  0.03375637  1
  S  S52  1  0.76077308  0.03226313  0.03373458  1
  S  S53  1  0.23529249  0.96200487  0.13375966  1
  S  S54  1  0.27068834  0.96382952  0.30139890  1
  S  S55  1  0.73226891  0.03582415  0.19868065  1
  S  S56  1  0.27364118  0.75007683  0.23005786  1
  S  S57  1  0.72783996  0.25008739  0.26998833  1
  S  S58  1  0.79466033  0.24970990  0.10436208  1
  S  S59  1  0.23619260  0.74964593  0.06172541  1
  S  S60  1  0.17399631  0.24997972  0.21627657  1
  S  S61  1  0.82819395  0.75006887  0.28405437  1
  S  S62  1  0.67962763  0.74985990  0.11721691  1
  S  S63  1  0.33158302  0.24936424  0.05752297  1
  S  S64  1  0.23844615  0.53254065  0.46626465  1
  S  S65  1  0.76496617  0.46200642  0.36611316  1
  S  S66  1  0.76493484  0.03810984  0.36612718  1
  S  S67  1  0.23835941  0.96758776  0.46627089  1
  S  S68  1  0.76335401  0.25015842  0.43822267  1
  S  S69  1  0.20402959  0.75004968  0.39567558  1
  S  S70  1  0.66689186  0.75011020  0.44243289  1
  S  S71  1  0.32039212  0.25006629  0.38274795  1
  S  S72  1  0.76754084  0.53550604  0.69868897  1
  S  S73  1  0.22914449  0.46308649  0.80138764  1
  S  S74  1  0.26473626  0.46205266  0.63384741  1
  S  S75  1  0.73841870  0.53250407  0.53374412  1
  S  S76  1  0.73830822  0.96758710  0.53375222  1
  S  S77  1  0.26486203  0.03810283  0.63385577  1
  S  S78  1  0.23202484  0.03559760  0.80133169  1
  S  S79  1  0.77037557  0.96302070  0.69858664  1
  S  S80  1  0.22711481  0.24995187  0.73000417  1
  S  S81  1  0.77258476  0.75002752  0.76999209  1
  S  S82  1  0.70410254  0.74998635  0.60435276  1
  S  S83  1  0.26335580  0.25016998  0.56176513  1
  S  S84  1  0.32671796  0.75106869  0.71620627  1
  S  S85  1  0.67287142  0.25108004  0.78385283  1
  S  S86  1  0.82023282  0.24997921  0.61724373  1
  S  S87  1  0.16691767  0.75007490  0.55758051  1
  S  S88  1  0.26069648  0.46746926  0.96619911  1
  S  S89  1  0.73488071  0.53814644  0.86612167  1
  S  S90  1  0.73515916  0.96213693  0.86619859  1
  S  S91  1  0.26111032  0.03244633  0.96621536  1
  S  S92  1  0.73628784  0.74986651  0.93822760  1
  S  S93  1  0.29549911  0.24990834  0.89560681  1
  S  S94  1  0.83230170  0.24968857  0.94237568  1
  S  S95  1  0.17952940  0.74992794  0.88274727  1
