# generated using pymatgen
data_Li3PS4
_symmetry_space_group_name_H-M   'P 1'
_cell_length_a   6.25995100
_cell_length_b   8.10679100
_cell_length_c   39.05114670
_cell_angle_alpha   90.00000000
_cell_angle_beta   90.00000000
_cell_angle_gamma   90.00000000
_symmetry_Int_Tables_number   1
_chemical_formula_structural   Li3PS4
_chemical_formula_sum   'Li36 P12 S48'
_cell_volume   1981.77206102
_cell_formula_units_Z   12
loop_
 _symmetry_equiv_pos_site_id
 _symmetry_equiv_pos_as_xyz
  1  'x, y, z'
loop_
 _atom_site_type_symbol
 _atom_site_label
 _atom_site_symmetry_multiplicity
 _atom_site_fract_x
 _atom_site_fract_y
 _atom_site_fract_z
 _atom_site_occupancy
  Li  Li0  1  0.11407460  0.96779290  0.19395579  1
  Li  Li1  1  0.61166279  0.03669923  0.13873164  1
  Li  Li2  1  0.37100657  0.99946801  0.02702643  1
  Li  Li3  1  0.37099125  0.50052809  0.02702488  1
  Li  Li4  1  0.61166654  0.46330744  0.13873136  1
  Li  Li5  1  0.11407852  0.53221355  0.19395497  1
  Li  Li6  1  0.50001694  0.00000221  0.24999943  1
  Li  Li7  1  0.98158526  0.97851563  0.08492477  1
  Li  Li8  1  0.98169394  0.52145763  0.08490951  1
  Li  Li9  1  0.50001496  0.50000258  0.24999946  1
  Li  Li10  1  0.88591371  0.03221691  0.30604903  1
  Li  Li11  1  0.62904078  0.00054584  0.47297743  1
  Li  Li12  1  0.38835066  0.96334810  0.36125880  1
  Li  Li13  1  0.38835504  0.53663560  0.36125652  1
  Li  Li14  1  0.62902485  0.49942519  0.47298206  1
  Li  Li15  1  0.88591170  0.46778451  0.30604972  1
  Li  Li16  1  0.01827248  0.02144250  0.41508982  1
  Li  Li17  1  0.01833029  0.47853961  0.41509614  1
  Li  Li18  1  0.38589796  0.03223886  0.69396280  1
  Li  Li19  1  0.88835130  0.96332325  0.63874368  1
  Li  Li20  1  0.12903545  0.00056824  0.52702590  1
  Li  Li21  1  0.12913548  0.49947565  0.52704626  1
  Li  Li22  1  0.88832573  0.53669145  0.63873369  1
  Li  Li23  1  0.38590191  0.46776385  0.69395926  1
  Li  Li24  1  0.99998513  0.99998535  0.75000187  1
  Li  Li25  1  0.51845235  0.02150322  0.58493177  1
  Li  Li26  1  0.51825885  0.47857734  0.58490976  1
  Li  Li27  1  0.99998338  0.50001498  0.75000078  1
  Li  Li28  1  0.61409025  0.96778812  0.80604652  1
  Li  Li29  1  0.87088225  0.99941339  0.97296028  1
  Li  Li30  1  0.11164080  0.03659378  0.86125031  1
  Li  Li31  1  0.11164286  0.46339948  0.86125048  1
  Li  Li32  1  0.87088060  0.50055381  0.97295704  1
  Li  Li33  1  0.61408917  0.53220953  0.80604617  1
  Li  Li34  1  0.48185592  0.97888032  0.91507559  1
  Li  Li35  1  0.48186674  0.52098159  0.91508207  1
  P  P36  1  0.84818367  0.25001931  0.22005781  1
  P  P37  1  0.15185684  0.74998311  0.27994525  1
  P  P38  1  0.35302387  0.75000599  0.11210233  1
  P  P39  1  0.65514499  0.25000092  0.05586599  1
  P  P40  1  0.34499317  0.74995866  0.44412685  1
  P  P41  1  0.64697725  0.25000009  0.38791632  1
  P  P42  1  0.65172642  0.74999646  0.72007004  1
  P  P43  1  0.34808312  0.25000047  0.77995075  1
  P  P44  1  0.14702780  0.24999862  0.61211225  1
  P  P45  1  0.84497637  0.75010193  0.55587235  1
  P  P46  1  0.15490491  0.24996921  0.94410288  1
  P  P47  1  0.85301090  0.74998777  0.88789280  1
  S  S48  1  0.73181922  0.46393815  0.19867581  1
  S  S49  1  0.23504374  0.53792955  0.13381461  1
  S  S50  1  0.75917671  0.46738934  0.03383669  1
  S  S51  1  0.75920009  0.03262157  0.03383497  1
  S  S52  1  0.23504051  0.96207837  0.13381487  1
  S  S53  1  0.73178654  0.03613967  0.19867537  1
  S  S54  1  0.27294856  0.75000314  0.22999505  1
  S  S55  1  0.72708450  0.25003566  0.27000880  1
  S  S56  1  0.79420100  0.25001224  0.10444238  1
  S  S57  1  0.23611382  0.75000430  0.06175999  1
  S  S58  1  0.17373059  0.25001078  0.21632769  1
  S  S59  1  0.82633735  0.75000158  0.28367815  1
  S  S60  1  0.67965947  0.75000564  0.11724726  1
  S  S61  1  0.33043878  0.24999766  0.05773674  1
  S  S62  1  0.26819264  0.53604531  0.30131398  1
  S  S63  1  0.24089509  0.53267680  0.46616308  1
  S  S64  1  0.76500490  0.46205660  0.36620445  1
  S  S65  1  0.76500292  0.03793596  0.36620146  1
  S  S66  1  0.24092104  0.96729965  0.46615152  1
  S  S67  1  0.26818795  0.96390104  0.30131580  1
  S  S68  1  0.76390661  0.24998427  0.43825859  1
  S  S69  1  0.20607361  0.74997395  0.39554443  1
  S  S70  1  0.66968590  0.74993410  0.44226649  1
  S  S71  1  0.32038822  0.24999654  0.38276151  1
  S  S72  1  0.76815703  0.53611524  0.69868137  1
  S  S73  1  0.26501371  0.46207885  0.63381243  1
  S  S74  1  0.74089318  0.53271208  0.53384803  1
  S  S75  1  0.74085321  0.96743898  0.53384724  1
  S  S76  1  0.26501198  0.03794408  0.63381855  1
  S  S77  1  0.76812399  0.96392969  0.69868337  1
  S  S78  1  0.22673989  0.25000427  0.73001265  1
  S  S79  1  0.77286884  0.74998782  0.77001664  1
  S  S80  1  0.70594044  0.75003078  0.60445325  1
  S  S81  1  0.26400371  0.24997602  0.56176720  1
  S  S82  1  0.32619712  0.74998850  0.71632671  1
  S  S83  1  0.67367932  0.24998653  0.78366940  1
  S  S84  1  0.82044592  0.24999550  0.61725419  1
  S  S85  1  0.16965110  0.75009166  0.55774338  1
  S  S86  1  0.23180125  0.46399388  0.80132402  1
  S  S87  1  0.25913782  0.46725730  0.96611918  1
  S  S88  1  0.73505104  0.53793325  0.86618214  1
  S  S89  1  0.73505487  0.96205133  0.86618507  1
  S  S90  1  0.25916151  0.03268627  0.96611412  1
  S  S91  1  0.23180309  0.03602650  0.80132399  1
  S  S92  1  0.73593901  0.74998616  0.93823041  1
  S  S93  1  0.29366119  0.24996465  0.89550909  1
  S  S94  1  0.83020952  0.24994262  0.94226377  1
  S  S95  1  0.17958521  0.74999588  0.88276650  1
