# generated using pymatgen
data_Li3PS4
_symmetry_space_group_name_H-M   'P 1'
_cell_length_a   6.25995100
_cell_length_b   8.10679100
_cell_length_c   39.05182649
_cell_angle_alpha   90.00000000
_cell_angle_beta   90.00000000
_cell_angle_gamma   90.00000000
_symmetry_Int_Tables_number   1
_chemical_formula_structural   Li3PS4
_chemical_formula_sum   'Li36 P12 S48'
_cell_volume   1981.80655906
_cell_formula_units_Z   12
loop_
 _symmetry_equiv_pos_site_id
 _symmetry_equiv_pos_as_xyz
  1  'x, y, z'
loop_
 _atom_site_type_symbol
 _atom_site_label
 _atom_site_symmetry_multiplicity
 _atom_site_fract_x
 _atom_site_fract_y
 _atom_site_fract_z
 _atom_site_occupancy
  Li  Li0  1  0.11404994  0.96779362  0.19396183  1
  Li  Li1  1  0.61159368  0.03672323  0.13873009  1
  Li  Li2  1  0.37108883  0.99949230  0.02702930  1
  Li  Li3  1  0.37097649  0.50053434  0.02704480  1
  Li  Li4  1  0.61160568  0.46345983  0.13871838  1
  Li  Li5  1  0.11405504  0.53220747  0.19396078  1
  Li  Li6  1  0.50002172  0.99999188  0.25000347  1
  Li  Li7  1  0.98195703  0.97899093  0.08492547  1
  Li  Li8  1  0.98195866  0.52106902  0.08492448  1
  Li  Li9  1  0.49999766  0.49999072  0.24999606  1
  Li  Li10  1  0.88593629  0.03218237  0.30603971  1
  Li  Li11  1  0.62907372  0.00054941  0.47295828  1
  Li  Li12  1  0.38836411  0.96333498  0.36126692  1
  Li  Li13  1  0.38834334  0.53667736  0.36126725  1
  Li  Li14  1  0.62889898  0.49934753  0.47297988  1
  Li  Li15  1  0.88593785  0.46781458  0.30603443  1
  Li  Li16  1  0.01798031  0.02095117  0.41509406  1
  Li  Li17  1  0.01788145  0.47876349  0.41509848  1
  Li  Li18  1  0.38594274  0.03219623  0.69396176  1
  Li  Li19  1  0.88838662  0.96339973  0.63871088  1
  Li  Li20  1  0.12893395  0.00048560  0.52702454  1
  Li  Li21  1  0.12884107  0.49937973  0.52701046  1
  Li  Li22  1  0.88837563  0.53654308  0.63870129  1
  Li  Li23  1  0.38596485  0.46780742  0.69396427  1
  Li  Li24  1  0.99999778  0.99997838  0.74999710  1
  Li  Li25  1  0.51811193  0.02124833  0.58490939  1
  Li  Li26  1  0.51787502  0.47877823  0.58490042  1
  Li  Li27  1  0.00001972  0.50002922  0.74999658  1
  Li  Li28  1  0.61406389  0.96776887  0.80603224  1
  Li  Li29  1  0.87091748  0.99937707  0.97296632  1
  Li  Li30  1  0.11162848  0.03668384  0.86128755  1
  Li  Li31  1  0.11163107  0.46332590  0.86128551  1
  Li  Li32  1  0.87101947  0.50058755  0.97297493  1
  Li  Li33  1  0.61407268  0.53219912  0.80603398  1
  Li  Li34  1  0.48206814  0.97892786  0.91508706  1
  Li  Li35  1  0.48191569  0.52104204  0.91507470  1
  P  P36  1  0.84815522  0.25001524  0.22007648  1
  P  P37  1  0.35295181  0.75004620  0.11209454  1
  P  P38  1  0.65492656  0.25001998  0.05591271  1
  P  P39  1  0.15186173  0.75000203  0.27992300  1
  P  P40  1  0.34507358  0.74994830  0.44410182  1
  P  P41  1  0.64710510  0.25001374  0.38790128  1
  P  P42  1  0.65188873  0.75003132  0.72007926  1
  P  P43  1  0.14704916  0.24996147  0.61209451  1
  P  P44  1  0.84504358  0.74992962  0.55591096  1
  P  P45  1  0.34815398  0.24995708  0.77992846  1
  P  P46  1  0.15491834  0.25007510  0.94410146  1
  P  P47  1  0.85287638  0.75002892  0.88789445  1
  S  S48  1  0.73182384  0.46386543  0.19867732  1
  S  S49  1  0.23509293  0.53796382  0.13381779  1
  S  S50  1  0.75904849  0.46732075  0.03388287  1
  S  S51  1  0.75910909  0.03273932  0.03388191  1
  S  S52  1  0.23509130  0.96209980  0.13382325  1
  S  S53  1  0.73188630  0.03611634  0.19869611  1
  S  S54  1  0.27315125  0.75002307  0.22997839  1
  S  S55  1  0.79374538  0.25007754  0.10450604  1
  S  S56  1  0.23596541  0.75006534  0.06175098  1
  S  S57  1  0.17368118  0.25001156  0.21635542  1
  S  S58  1  0.67948261  0.75004200  0.11723590  1
  S  S59  1  0.33018520  0.25007990  0.05774898  1
  S  S60  1  0.26814196  0.53614201  0.30131698  1
  S  S61  1  0.24077114  0.53267418  0.46611671  1
  S  S62  1  0.76500769  0.46206305  0.36618120  1
  S  S63  1  0.76503364  0.03793703  0.36619675  1
  S  S64  1  0.24102071  0.96730135  0.46611949  1
  S  S65  1  0.26814367  0.96387066  0.30131676  1
  S  S66  1  0.72695924  0.25002656  0.27002302  1
  S  S67  1  0.76406458  0.25004126  0.43825028  1
  S  S68  1  0.20639321  0.75004505  0.39551045  1
  S  S69  1  0.82632047  0.74999713  0.28364047  1
  S  S70  1  0.66980269  0.74986519  0.44225479  1
  S  S71  1  0.32062387  0.25000043  0.38275387  1
  S  S72  1  0.76815588  0.53614303  0.69869122  1
  S  S73  1  0.26494038  0.46201568  0.63381228  1
  S  S74  1  0.74071792  0.53263497  0.53389066  1
  S  S75  1  0.74093304  0.96725814  0.53388776  1
  S  S76  1  0.26500013  0.03792088  0.63380446  1
  S  S77  1  0.76812688  0.96394453  0.69868908  1
  S  S78  1  0.22700665  0.25000097  0.72997726  1
  S  S79  1  0.70635199  0.74995355  0.60450675  1
  S  S80  1  0.26400983  0.24997412  0.56174525  1
  S  S81  1  0.32631061  0.74999685  0.71637954  1
  S  S82  1  0.82052976  0.24997018  0.61723045  1
  S  S83  1  0.16978942  0.74988626  0.55774630  1
  S  S84  1  0.23194218  0.46388438  0.80130616  1
  S  S85  1  0.25910756  0.46737599  0.96612310  1
  S  S86  1  0.73503458  0.53794040  0.86618043  1
  S  S87  1  0.73500680  0.96209464  0.86617858  1
  S  S88  1  0.25905122  0.03276359  0.96611829  1
  S  S89  1  0.23186182  0.03606211  0.80131085  1
  S  S90  1  0.77332896  0.74999897  0.77001244  1
  S  S91  1  0.73585950  0.75008783  0.93823993  1
  S  S92  1  0.29364870  0.25007396  0.89550705  1
  S  S93  1  0.67370535  0.24988991  0.78365605  1
  S  S94  1  0.83019895  0.25011139  0.94224784  1
  S  S95  1  0.17934488  0.74998750  0.88275097  1
