# generated using pymatgen
data_Li3PS4
_symmetry_space_group_name_H-M   'P 1'
_cell_length_a   6.25995100
_cell_length_b   8.10679100
_cell_length_c   52.23591112
_cell_angle_alpha   90.00000000
_cell_angle_beta   90.00000000
_cell_angle_gamma   90.00000000
_symmetry_Int_Tables_number   1
_chemical_formula_structural   Li3PS4
_chemical_formula_sum   'Li48 P16 S64'
_cell_volume   2650.87399479
_cell_formula_units_Z   16
loop_
 _symmetry_equiv_pos_site_id
 _symmetry_equiv_pos_as_xyz
  1  'x, y, z'
loop_
 _atom_site_type_symbol
 _atom_site_label
 _atom_site_symmetry_multiplicity
 _atom_site_fract_x
 _atom_site_fract_y
 _atom_site_fract_z
 _atom_site_occupancy
  Li  Li0  1  0.20278606  0.97001233  0.14671106  1
  Li  Li1  1  0.99980312  0.04245659  0.22973965  1
  Li  Li2  1  0.66767302  0.03807778  0.10539738  1
  Li  Li3  1  0.44684549  0.97580657  0.02215323  1
  Li  Li4  1  0.49148650  0.53780098  0.02156986  1
  Li  Li5  1  0.70208270  0.46931218  0.10375944  1
  Li  Li6  1  0.95405361  0.47482849  0.22854927  1
  Li  Li7  1  0.16910840  0.53923065  0.14478079  1
  Li  Li8  1  0.64311447  0.95387420  0.18917559  1
  Li  Li9  1  0.01396737  0.95116426  0.06455679  1
  Li  Li10  1  0.13895870  0.45425544  0.06110674  1
  Li  Li11  1  0.51757913  0.45160837  0.18568743  1
  Li  Li12  1  0.20666247  0.97534459  0.39598942  1
  Li  Li13  1  0.98108931  0.03446391  0.47873159  1
  Li  Li14  1  0.70814278  0.03082670  0.35304824  1
  Li  Li15  1  0.49994196  0.96055192  0.27011184  1
  Li  Li16  1  0.45609044  0.53079103  0.27126084  1
  Li  Li17  1  0.66333751  0.46226467  0.35492320  1
  Li  Li18  1  0.96095664  0.47013257  0.47745746  1
  Li  Li19  1  0.16545930  0.54447952  0.39467213  1
  Li  Li20  1  0.63906933  0.95434396  0.43877487  1
  Li  Li21  1  0.14782424  0.05330065  0.31043455  1
  Li  Li22  1  0.01627506  0.55227621  0.31407329  1
  Li  Li23  1  0.51675802  0.45570582  0.43522148  1
  Li  Li24  1  0.54614437  0.53251500  0.64680077  1
  Li  Li25  1  0.75092400  0.46058188  0.72993823  1
  Li  Li26  1  0.07760393  0.46439350  0.60539117  1
  Li  Li27  1  0.28899013  0.53017081  0.52253094  1
  Li  Li28  1  0.27107796  0.96661727  0.52136387  1
  Li  Li29  1  0.04611006  0.03113132  0.60425011  1
  Li  Li30  1  0.79395899  0.03065476  0.72874837  1
  Li  Li31  1  0.57784484  0.96567639  0.64527588  1
  Li  Li32  1  0.10337547  0.55218213  0.68947398  1
  Li  Li33  1  0.72850924  0.54730580  0.56463725  1
  Li  Li34  1  0.61185720  0.04628258  0.56123427  1
  Li  Li35  1  0.23304800  0.05220910  0.68594301  1
  Li  Li36  1  0.58330108  0.53806132  0.89464305  1
  Li  Li37  1  0.80327931  0.47599542  0.97786080  1
  Li  Li38  1  0.04838753  0.47036064  0.85331394  1
  Li  Li39  1  0.25169358  0.54196134  0.77027057  1
  Li  Li40  1  0.29683571  0.97459082  0.77141994  1
  Li  Li41  1  0.08279476  0.03968708  0.85525635  1
  Li  Li42  1  0.75346212  0.03988873  0.97808021  1
  Li  Li43  1  0.54838192  0.96940771  0.89621586  1
  Li  Li44  1  0.23680138  0.45086050  0.93533710  1
  Li  Li45  1  0.60716202  0.45389957  0.81080638  1
  Li  Li46  1  0.73566566  0.95106831  0.81430876  1
  Li  Li47  1  0.11002284  0.95377459  0.93908183  1
  P  P48  1  0.92284976  0.25128629  0.16521669  1
  P  P49  1  0.24012886  0.74984876  0.20976081  1
  P  P50  1  0.42143246  0.75024631  0.08505018  1
  P  P51  1  0.73511888  0.25049596  0.04066643  1
  P  P52  1  0.92139317  0.25090660  0.41470103  1
  P  P53  1  0.23624476  0.75127615  0.45932442  1
  P  P54  1  0.42245898  0.75346612  0.33460189  1
  P  P55  1  0.74016924  0.25323118  0.29000641  1
  P  P56  1  0.82585774  0.25238607  0.66549054  1
  P  P57  1  0.50991336  0.75315061  0.71000310  1
  P  P58  1  0.32628496  0.75166025  0.58524853  1
  P  P59  1  0.01432873  0.25012323  0.54078952  1
  P  P60  1  0.83011355  0.25032750  0.91483858  1
  P  P61  1  0.51460589  0.75027886  0.95926297  1
  P  P62  1  0.32874786  0.75155309  0.83478413  1
  P  P63  1  0.01117781  0.25021977  0.79023010  1
  S  S64  1  0.79273698  0.46104558  0.14973717  1
  S  S65  1  0.34044244  0.53224301  0.22611203  1
  S  S66  1  0.31790649  0.53318302  0.10142770  1
  S  S67  1  0.86875257  0.45799749  0.02482972  1
  S  S68  1  0.83761614  0.03507337  0.02389842  1
  S  S69  1  0.29121821  0.95949402  0.10063783  1
  S  S70  1  0.37419030  0.95846956  0.22530129  1
  S  S71  1  0.81814989  0.03451754  0.14884260  1
  S  S72  1  0.35408504  0.74285276  0.17228578  1
  S  S73  1  0.80926447  0.24516151  0.20270703  1
  S  S74  1  0.85191854  0.24284865  0.07799309  1
  S  S75  1  0.30517685  0.74469525  0.04767623  1
  S  S76  1  0.24837813  0.25715382  0.16135970  1
  S  S77  1  0.91494017  0.76145475  0.21360076  1
  S  S78  1  0.74716555  0.75653128  0.08875424  1
  S  S79  1  0.40902503  0.25970010  0.03708262  1
  S  S80  1  0.78922127  0.46053088  0.39933173  1
  S  S81  1  0.34760030  0.53724886  0.47576542  1
  S  S82  1  0.28868197  0.54465719  0.35005492  1
  S  S83  1  0.84126400  0.47078005  0.27368020  1
  S  S84  1  0.87431065  0.04443052  0.27459055  1
  S  S85  1  0.32131208  0.97109199  0.35087402  1
  S  S86  1  0.36239564  0.96026730  0.47548468  1
  S  S87  1  0.82035383  0.03363250  0.39831859  1
  S  S88  1  0.35376184  0.74734031  0.42196747  1
  S  S89  1  0.80553040  0.24360925  0.45210171  1
  S  S90  1  0.85269540  0.26044742  0.32751532  1
  S  S91  1  0.30944119  0.75977834  0.29710004  1
  S  S92  1  0.24676924  0.26201708  0.41094094  1
  S  S93  1  0.91008469  0.75437080  0.46269879  1
  S  S94  1  0.74766472  0.74331225  0.33855744  1
  S  S95  1  0.41507068  0.24308462  0.28590971  1
  S  S96  1  0.95493870  0.04182898  0.65016135  1
  S  S97  1  0.40876301  0.97082443  0.72629144  1
  S  S98  1  0.43072146  0.96839065  0.60160368  1
  S  S99  1  0.88910854  0.04055877  0.52473279  1
  S  S100  1  0.90265354  0.46368763  0.52422704  1
  S  S101  1  0.45459239  0.54151688  0.60080221  1
  S  S102  1  0.37619163  0.54428168  0.72544884  1
  S  S103  1  0.93077687  0.46863211  0.64899796  1
  S  S104  1  0.39650547  0.76021245  0.67251677  1
  S  S105  1  0.94037702  0.25914046  0.70292273  1
  S  S106  1  0.89681587  0.25624554  0.57812448  1
  S  S107  1  0.44427850  0.75690188  0.54790389  1
  S  S108  1  0.50016996  0.24660147  0.66171789  1
  S  S109  1  0.83497360  0.74297193  0.71403314  1
  S  S110  1  0.00051952  0.74550380  0.58868429  1
  S  S111  1  0.34056170  0.24677012  0.53738300  1
  S  S112  1  0.93376058  0.03303570  0.89859588  1
  S  S113  1  0.37914022  0.95685743  0.97517779  1
  S  S114  1  0.45895596  0.96144478  0.85020099  1
  S  S115  1  0.91077130  0.03276410  0.77383517  1
  S  S116  1  0.87744969  0.45908823  0.77473825  1
  S  S117  1  0.43341412  0.53487815  0.85118785  1
  S  S118  1  0.41199527  0.53427102  0.97583893  1
  S  S119  1  0.96035283  0.45967969  0.89931630  1
  S  S120  1  0.39889550  0.74309613  0.92189683  1
  S  S121  1  0.94513538  0.24503839  0.95227388  1
  S  S122  1  0.89724756  0.24292174  0.82770575  1
  S  S123  1  0.44215758  0.74518635  0.79728151  1
  S  S124  1  0.50445491  0.25657480  0.91107168  1
  S  S125  1  0.84039770  0.76044600  0.96303042  1
  S  S126  1  0.00316771  0.75762637  0.83869096  1
  S  S127  1  0.33650751  0.26135858  0.78642446  1
