# generated using pymatgen
data_Li3PS4
_symmetry_space_group_name_H-M   'P 1'
_cell_length_a   6.25995100
_cell_length_b   8.10679100
_cell_length_c   39.05787780
_cell_angle_alpha   90.00000000
_cell_angle_beta   90.00000000
_cell_angle_gamma   90.00000000
_symmetry_Int_Tables_number   1
_chemical_formula_structural   Li3PS4
_chemical_formula_sum   'Li36 P12 S48'
_cell_volume   1982.11365198
_cell_formula_units_Z   12
loop_
 _symmetry_equiv_pos_site_id
 _symmetry_equiv_pos_as_xyz
  1  'x, y, z'
loop_
 _atom_site_type_symbol
 _atom_site_label
 _atom_site_symmetry_multiplicity
 _atom_site_fract_x
 _atom_site_fract_y
 _atom_site_fract_z
 _atom_site_occupancy
  Li  Li0  1  0.11415334  0.96782479  0.19393475  1
  Li  Li1  1  0.61186072  0.03612692  0.13898780  1
  Li  Li2  1  0.37082021  0.99950272  0.02704070  1
  Li  Li3  1  0.37081078  0.50048580  0.02704273  1
  Li  Li4  1  0.61187709  0.46386813  0.13899092  1
  Li  Li5  1  0.11414745  0.53219352  0.19393156  1
  Li  Li6  1  0.49999458  0.99999285  0.25000368  1
  Li  Li7  1  0.98073339  0.97804578  0.08495810  1
  Li  Li8  1  0.98071719  0.52195342  0.08495546  1
  Li  Li9  1  0.49999761  0.50000623  0.25000316  1
  Li  Li10  1  0.88581809  0.03218142  0.30606668  1
  Li  Li11  1  0.62916583  0.00045489  0.47295882  1
  Li  Li12  1  0.38813267  0.96386109  0.36101534  1
  Li  Li13  1  0.38790801  0.53616085  0.36098255  1
  Li  Li14  1  0.62914823  0.49952879  0.47296069  1
  Li  Li15  1  0.88580269  0.46782022  0.30606580  1
  Li  Li16  1  0.01926464  0.02196279  0.41504514  1
  Li  Li17  1  0.01925989  0.47803202  0.41504655  1
  Li  Li18  1  0.38582190  0.03217319  0.69393752  1
  Li  Li19  1  0.88814317  0.96387520  0.63899345  1
  Li  Li20  1  0.12919977  0.00051911  0.52704917  1
  Li  Li21  1  0.12921082  0.49938984  0.52706549  1
  Li  Li22  1  0.88814873  0.53612005  0.63898812  1
  Li  Li23  1  0.38584314  0.46783786  0.69393877  1
  Li  Li24  1  0.00000572  0.00000299  0.75000063  1
  Li  Li25  1  0.51914632  0.02173825  0.58495959  1
  Li  Li26  1  0.51918255  0.47821964  0.58495959  1
  Li  Li27  1  0.99997441  0.50000766  0.75000232  1
  Li  Li28  1  0.61416592  0.96783234  0.80606682  1
  Li  Li29  1  0.87083231  0.99953692  0.97295877  1
  Li  Li30  1  0.11195933  0.03615793  0.86100282  1
  Li  Li31  1  0.11208073  0.46383610  0.86097927  1
  Li  Li32  1  0.87083094  0.50045884  0.97295791  1
  Li  Li33  1  0.61418831  0.53216086  0.80606439  1
  Li  Li34  1  0.48073558  0.97803654  0.91504330  1
  Li  Li35  1  0.48074142  0.52196019  0.91504179  1
  P  P36  1  0.84859648  0.25003142  0.22018321  1
  P  P37  1  0.15132221  0.74997303  0.27981956  1
  P  P38  1  0.35293470  0.74998244  0.11210201  1
  P  P39  1  0.65501499  0.24998900  0.05597060  1
  P  P40  1  0.34491132  0.74996623  0.44403709  1
  P  P41  1  0.64700975  0.24999444  0.38789640  1
  P  P42  1  0.65140893  0.75008037  0.72017799  1
  P  P43  1  0.34861088  0.25004650  0.77981736  1
  P  P44  1  0.14713087  0.25000087  0.61212394  1
  P  P45  1  0.84509364  0.74999893  0.55596596  1
  P  P46  1  0.15501763  0.25000080  0.94401485  1
  P  P47  1  0.85296493  0.75000275  0.88789203  1
  S  S48  1  0.73221566  0.46398722  0.19883086  1
  S  S49  1  0.23513514  0.53789356  0.13381514  1
  S  S50  1  0.75914315  0.46720593  0.03389336  1
  S  S51  1  0.75915493  0.03276675  0.03389708  1
  S  S52  1  0.23512643  0.96204745  0.13382414  1
  S  S53  1  0.73214276  0.03610100  0.19882594  1
  S  S54  1  0.27272491  0.74998319  0.22990147  1
  S  S55  1  0.72722700  0.25000287  0.27010159  1
  S  S56  1  0.79350118  0.24999744  0.10459388  1
  S  S57  1  0.23584191  0.75000261  0.06178757  1
  S  S58  1  0.17406242  0.24999351  0.21637151  1
  S  S59  1  0.67965200  0.74999331  0.11723634  1
  S  S60  1  0.33038228  0.24998667  0.05780225  1
  S  S61  1  0.26767283  0.53598787  0.30117352  1
  S  S62  1  0.24073459  0.53277931  0.46612230  1
  S  S63  1  0.76481987  0.46207337  0.36618373  1
  S  S64  1  0.76482635  0.03789482  0.36618638  1
  S  S65  1  0.24079247  0.96720759  0.46610323  1
  S  S66  1  0.26774293  0.96388713  0.30117933  1
  S  S67  1  0.76405251  0.24999441  0.43821289  1
  S  S68  1  0.20648017  0.74997832  0.39541315  1
  S  S69  1  0.82584775  0.75000059  0.28361907  1
  S  S70  1  0.66952910  0.74997616  0.44219577  1
  S  S71  1  0.32029887  0.24998840  0.38275588  1
  S  S72  1  0.76782060  0.53613225  0.69882356  1
  S  S73  1  0.26488902  0.46212717  0.63382984  1
  S  S74  1  0.74091112  0.53277158  0.53390293  1
  S  S75  1  0.74090714  0.96721491  0.53390083  1
  S  S76  1  0.26487021  0.03790326  0.63384533  1
  S  S77  1  0.76773567  0.96406917  0.69882956  1
  S  S78  1  0.22724479  0.25002053  0.72989736  1
  S  S79  1  0.77277774  0.75001946  0.77010053  1
  S  S80  1  0.70669398  0.74999807  0.60459309  1
  S  S81  1  0.26449537  0.24992971  0.56182463  1
  S  S82  1  0.32593117  0.75000705  0.71637265  1
  S  S83  1  0.82041765  0.24999812  0.61724115  1
  S  S84  1  0.16974518  0.74999696  0.55774960  1
  S  S85  1  0.23226629  0.46401816  0.80116992  1
  S  S86  1  0.25915737  0.46720895  0.96609647  1
  S  S87  1  0.73517125  0.53793132  0.86617404  1
  S  S88  1  0.73515645  0.96209696  0.86618417  1
  S  S89  1  0.25916276  0.03278984  0.96609585  1
  S  S90  1  0.23216094  0.03610293  0.80117547  1
  S  S91  1  0.73590264  0.74999321  0.93820849  1
  S  S92  1  0.29347477  0.25000329  0.89538749  1
  S  S93  1  0.67408557  0.25000418  0.78362408  1
  S  S94  1  0.83039971  0.24999959  0.94218847  1
  S  S95  1  0.17967559  0.75000130  0.88275692  1
