# generated using pymatgen
data_Li3PS4
_symmetry_space_group_name_H-M   'P 1'
_cell_length_a   6.25995100
_cell_length_b   8.10679100
_cell_length_c   39.05037544
_cell_angle_alpha   90.00000000
_cell_angle_beta   90.00000000
_cell_angle_gamma   90.00000000
_symmetry_Int_Tables_number   1
_chemical_formula_structural   Li3PS4
_chemical_formula_sum   'Li36 P12 S48'
_cell_volume   1981.73292121
_cell_formula_units_Z   12
loop_
 _symmetry_equiv_pos_site_id
 _symmetry_equiv_pos_as_xyz
  1  'x, y, z'
loop_
 _atom_site_type_symbol
 _atom_site_label
 _atom_site_symmetry_multiplicity
 _atom_site_fract_x
 _atom_site_fract_y
 _atom_site_fract_z
 _atom_site_occupancy
  Li  Li0  1  0.11451612  0.96856450  0.19406710  1
  Li  Li1  1  0.61158917  0.03656509  0.13869808  1
  Li  Li2  1  0.37114318  0.99932713  0.02711902  1
  Li  Li3  1  0.37106457  0.50058733  0.02709418  1
  Li  Li4  1  0.61123906  0.46296004  0.13865519  1
  Li  Li5  1  0.10938809  0.53414332  0.19390345  1
  Li  Li6  1  0.49992065  0.99998952  0.25000327  1
  Li  Li7  1  0.98179219  0.97852150  0.08491503  1
  Li  Li8  1  0.98173781  0.52122131  0.08492121  1
  Li  Li9  1  0.49993674  0.50004387  0.25000009  1
  Li  Li10  1  0.88508452  0.03163021  0.30597815  1
  Li  Li11  1  0.62730963  0.00134428  0.47293017  1
  Li  Li12  1  0.38816150  0.96325622  0.36128668  1
  Li  Li13  1  0.38839857  0.53673913  0.36134064  1
  Li  Li14  1  0.62726673  0.49879266  0.47297410  1
  Li  Li15  1  0.89041591  0.46582839  0.30610210  1
  Li  Li16  1  0.01793771  0.02124541  0.41506787  1
  Li  Li17  1  0.01790341  0.47875547  0.41506712  1
  Li  Li18  1  0.39043307  0.03382097  0.69390250  1
  Li  Li19  1  0.88849317  0.96332594  0.63866174  1
  Li  Li20  1  0.12722155  0.00120650  0.52702997  1
  Li  Li21  1  0.12721066  0.49873483  0.52702578  1
  Li  Li22  1  0.88850514  0.53671388  0.63865381  1
  Li  Li23  1  0.39055499  0.46629870  0.69392465  1
  Li  Li24  1  0.00040043  0.00007954  0.75000675  1
  Li  Li25  1  0.51793517  0.02118774  0.58491979  1
  Li  Li26  1  0.51790556  0.47882917  0.58492067  1
  Li  Li27  1  0.00024569  0.49997973  0.75000961  1
  Li  Li28  1  0.61455215  0.96837378  0.80592527  1
  Li  Li29  1  0.87234120  0.99848840  0.97298095  1
  Li  Li30  1  0.11169413  0.03666338  0.86131334  1
  Li  Li31  1  0.11167677  0.46331926  0.86131629  1
  Li  Li32  1  0.87142032  0.50058472  0.97297286  1
  Li  Li33  1  0.61398566  0.53251706  0.80607421  1
  Li  Li34  1  0.48212780  0.97882274  0.91528558  1
  Li  Li35  1  0.48174139  0.52121824  0.91507587  1
  P  P36  1  0.84714212  0.24968887  0.21995706  1
  P  P37  1  0.35247922  0.74994526  0.11210597  1
  P  P38  1  0.65617281  0.24972791  0.05581370  1
  P  P39  1  0.15229068  0.75034083  0.28002134  1
  P  P40  1  0.34218258  0.75001695  0.44427716  1
  P  P41  1  0.64674467  0.24993851  0.38789054  1
  P  P42  1  0.65381425  0.75019220  0.71986881  1
  P  P43  1  0.14729691  0.25003317  0.61208882  1
  P  P44  1  0.84220867  0.75001163  0.55575041  1
  P  P45  1  0.34857775  0.25037054  0.77998109  1
  P  P46  1  0.15706489  0.24993592  0.94428666  1
  P  P47  1  0.85307408  0.74998815  0.88793021  1
  S  S48  1  0.72875174  0.46303159  0.19860287  1
  S  S49  1  0.23456041  0.53798732  0.13386696  1
  S  S50  1  0.76004914  0.46709881  0.03378826  1
  S  S51  1  0.75984774  0.03223237  0.03381648  1
  S  S52  1  0.23477878  0.96205640  0.13383660  1
  S  S53  1  0.73146507  0.03531683  0.19867143  1
  S  S54  1  0.27238828  0.75027185  0.23001210  1
  S  S55  1  0.72704352  0.24977146  0.26996614  1
  S  S56  1  0.79509679  0.24980820  0.10440136  1
  S  S57  1  0.23558016  0.74998760  0.06176458  1
  S  S58  1  0.17241687  0.25123223  0.21599949  1
  S  S59  1  0.67906056  0.74973982  0.11721217  1
  S  S60  1  0.33143177  0.24991322  0.05779056  1
  S  S61  1  0.27082233  0.53705588  0.30138276  1
  S  S62  1  0.23820289  0.53255464  0.46625025  1
  S  S63  1  0.76487437  0.46183585  0.36612278  1
  S  S64  1  0.76460814  0.03783499  0.36618839  1
  S  S65  1  0.23821802  0.96747084  0.46625274  1
  S  S66  1  0.26784387  0.96470492  0.30131366  1
  S  S67  1  0.76319065  0.25002378  0.43824309  1
  S  S68  1  0.20409299  0.75000456  0.39561236  1
  S  S69  1  0.82699622  0.74880121  0.28398391  1
  S  S70  1  0.66668315  0.74998758  0.44241616  1
  S  S71  1  0.32015628  0.25003709  0.38275182  1
  S  S72  1  0.77162025  0.53644352  0.69860997  1
  S  S73  1  0.26520065  0.46197362  0.63385939  1
  S  S74  1  0.73829033  0.53253410  0.53376414  1
  S  S75  1  0.73827218  0.96744505  0.53375358  1
  S  S76  1  0.26518210  0.03805571  0.63385196  1
  S  S77  1  0.77136124  0.96409529  0.69863207  1
  S  S78  1  0.22812879  0.25016811  0.72999964  1
  S  S79  1  0.77332020  0.75021006  0.76992800  1
  S  S80  1  0.70404500  0.75002937  0.60440083  1
  S  S81  1  0.26357623  0.25000502  0.56171290  1
  S  S82  1  0.32894243  0.75004275  0.71563252  1
  S  S83  1  0.82066306  0.25005051  0.61721960  1
  S  S84  1  0.16671052  0.74997858  0.55761179  1
  S  S85  1  0.23180291  0.46415451  0.80136039  1
  S  S86  1  0.26089247  0.46741726  0.96626297  1
  S  S87  1  0.73517542  0.53786773  0.86621789  1
  S  S88  1  0.73499981  0.96196745  0.86620688  1
  S  S89  1  0.26111266  0.03254577  0.96631114  1
  S  S90  1  0.23222222  0.03640519  0.80134578  1
  S  S91  1  0.73629270  0.74983746  0.93828222  1
  S  S92  1  0.29548579  0.24991295  0.89566188  1
  S  S93  1  0.67409352  0.25057692  0.78380025  1
  S  S94  1  0.83251340  0.24963123  0.94244384  1
  S  S95  1  0.17963736  0.75002294  0.88278857  1
