# generated using pymatgen
data_Li3PS4
_symmetry_space_group_name_H-M   'P 1'
_cell_length_a   6.25995100
_cell_length_b   13.05789500
_cell_length_c   49.15748966
_cell_angle_alpha   90.00000000
_cell_angle_beta   90.00000000
_cell_angle_gamma   90.00000000
_symmetry_Int_Tables_number   1
_chemical_formula_structural   Li3PS4
_chemical_formula_sum   'Li72 P24 S96'
_cell_volume   4018.22084583
_cell_formula_units_Z   24
loop_
 _symmetry_equiv_pos_site_id
 _symmetry_equiv_pos_as_xyz
  1  'x, y, z'
loop_
 _atom_site_type_symbol
 _atom_site_label
 _atom_site_symmetry_multiplicity
 _atom_site_fract_x
 _atom_site_fract_y
 _atom_site_fract_z
 _atom_site_occupancy
  Li  Li0  1  0.07983508  0.15790271  0.09180156  1
  Li  Li1  1  0.28495495  0.82406271  0.07875916  1
  Li  Li2  1  0.58536918  0.31381972  0.07696322  1
  Li  Li3  1  0.78342198  0.65322734  0.09051853  1
  Li  Li4  1  0.51199963  0.33342415  0.99917025  1
  Li  Li5  1  0.77679521  0.70298659  0.00363939  1
  Li  Li6  1  0.72636347  0.99551884  0.07659109  1
  Li  Li7  1  0.23189428  0.48004035  0.09249453  1
  Li  Li8  1  0.60804060  0.98830483  0.99572371  1
  Li  Li9  1  0.07395830  0.15748061  0.25662054  1
  Li  Li10  1  0.28125046  0.82274351  0.24509848  1
  Li  Li11  1  0.57442791  0.31506129  0.24292979  1
  Li  Li12  1  0.78253909  0.65044576  0.25455272  1
  Li  Li13  1  0.74110325  0.65631330  0.16079251  1
  Li  Li14  1  0.52869845  0.32264465  0.17126013  1
  Li  Li15  1  0.24116973  0.81600887  0.17367143  1
  Li  Li16  1  0.02871362  0.15046351  0.16290188  1
  Li  Li17  1  0.72228461  0.99377511  0.24178061  1
  Li  Li18  1  0.22237396  0.47849693  0.25848793  1
  Li  Li19  1  0.09292348  0.49360587  0.17605629  1
  Li  Li20  1  0.59098359  0.97896930  0.15885762  1
  Li  Li21  1  0.10173781  0.15638472  0.42396222  1
  Li  Li22  1  0.27906735  0.82124991  0.40995957  1
  Li  Li23  1  0.58812818  0.31661510  0.40820970  1
  Li  Li24  1  0.76976718  0.65335607  0.41948768  1
  Li  Li25  1  0.73967153  0.65628077  0.32596351  1
  Li  Li26  1  0.52842607  0.32127632  0.33644356  1
  Li  Li27  1  0.24110544  0.81455139  0.33887015  1
  Li  Li28  1  0.02915766  0.14881050  0.32881201  1
  Li  Li29  1  0.73547257  0.99396816  0.40816011  1
  Li  Li30  1  0.22441975  0.47808373  0.42336443  1
  Li  Li31  1  0.08863856  0.49189187  0.34113347  1
  Li  Li32  1  0.59279492  0.97799308  0.32429583  1
  Li  Li33  1  0.80591988  0.53992412  0.50334397  1
  Li  Li34  1  0.71228977  0.22045511  0.51320866  1
  Li  Li35  1  0.53784845  0.90292113  0.50053028  1
  Li  Li36  1  0.74138114  0.56851454  0.59167310  1
  Li  Li37  1  0.54135840  0.90152874  0.57855520  1
  Li  Li38  1  0.24200510  0.41039445  0.57670073  1
  Li  Li39  1  0.04216610  0.07165968  0.59031292  1
  Li  Li40  1  0.31497902  0.39145302  0.49919773  1
  Li  Li41  1  0.04765117  0.02076184  0.50399780  1
  Li  Li42  1  0.09987324  0.73128762  0.57613204  1
  Li  Li43  1  0.59659317  0.24471814  0.59255483  1
  Li  Li44  1  0.22190092  0.73692868  0.49505039  1
  Li  Li45  1  0.74916913  0.56762406  0.75652988  1
  Li  Li46  1  0.54096829  0.90266026  0.74520661  1
  Li  Li47  1  0.24898667  0.40979818  0.74295191  1
  Li  Li48  1  0.04145559  0.07369153  0.75434471  1
  Li  Li49  1  0.08350744  0.07092403  0.66055429  1
  Li  Li50  1  0.29453556  0.40230828  0.67103101  1
  Li  Li51  1  0.58319283  0.91089388  0.67336480  1
  Li  Li52  1  0.79427009  0.57511586  0.66258090  1
  Li  Li53  1  0.09980331  0.73135351  0.74132344  1
  Li  Li54  1  0.60012144  0.24541032  0.75845000  1
  Li  Li55  1  0.73388154  0.23193552  0.67612940  1
  Li  Li56  1  0.23262389  0.74565689  0.65847006  1
  Li  Li57  1  0.72166179  0.56724653  0.92411659  1
  Li  Li58  1  0.54527433  0.90341969  0.90975048  1
  Li  Li59  1  0.23784941  0.40811584  0.90804311  1
  Li  Li60  1  0.05996906  0.07122253  0.91956438  1
  Li  Li61  1  0.08492976  0.06783454  0.82577458  1
  Li  Li62  1  0.29343489  0.40372547  0.83667103  1
  Li  Li63  1  0.58296525  0.91007398  0.83914836  1
  Li  Li64  1  0.79405645  0.57551663  0.82866619  1
  Li  Li65  1  0.08797947  0.72919463  0.90836622  1
  Li  Li66  1  0.60136696  0.24531506  0.92368105  1
  Li  Li67  1  0.73718527  0.23143945  0.84108877  1
  Li  Li68  1  0.23446265  0.74612642  0.82402763  1
  Li  Li69  1  0.01827987  0.18607785  0.00337507  1
  Li  Li70  1  0.11115313  0.50311229  0.01410274  1
  Li  Li71  1  0.29168935  0.82131292  0.00056710  1
  P  P72  1  0.31907992  0.07767649  0.04272410  1
  P  P73  1  0.51506955  0.57786906  0.04282370  1
  P  P74  1  0.31539323  0.07526758  0.20825892  1
  P  P75  1  0.00053248  0.89795165  0.12560623  1
  P  P76  1  0.82165034  0.39817101  0.12580924  1
  P  P77  1  0.49843286  0.57545147  0.20874659  1
  P  P78  1  0.32471007  0.07500678  0.37384938  1
  P  P79  1  0.99861965  0.89741679  0.29094663  1
  P  P80  1  0.81487671  0.39698365  0.29107730  1
  P  P81  1  0.49645627  0.57427926  0.37329075  1
  P  P82  1  0.01138797  0.89603683  0.45729518  1
  P  P83  1  0.82427936  0.40423406  0.45704530  1
  P  P84  1  0.50595815  0.64772377  0.54254215  1
  P  P85  1  0.31093148  0.14708067  0.54276809  1
  P  P86  1  0.50788313  0.65018999  0.70812581  1
  P  P87  1  0.82453596  0.82798694  0.62531091  1
  P  P88  1  0.00383886  0.32793036  0.62550005  1
  P  P89  1  0.32549228  0.15024968  0.70853764  1
  P  P90  1  0.50049279  0.64931950  0.87384867  1
  P  P91  1  0.82532218  0.82730327  0.79100271  1
  P  P92  1  0.00813781  0.32764816  0.79103198  1
  P  P93  1  0.33046388  0.15053601  0.87316783  1
  P  P94  1  0.81558671  0.82927247  0.95724386  1
  P  P95  1  0.00272117  0.32043406  0.95694771  1
  S  S96  1  0.41288074  0.14676118  0.00715760  1
  S  S97  1  0.39299425  0.63901931  0.00772125  1
  S  S98  1  0.40150320  0.64180184  0.07830959  1
  S  S99  1  0.95930362  0.33716776  0.09140575  1
  S  S100  1  0.89869637  0.83307431  0.08967175  1
  S  S101  1  0.45349106  0.13645049  0.07758573  1
  S  S102  1  0.43099610  0.92752454  0.04040157  1
  S  S103  1  0.41052366  0.42670794  0.04280305  1
  S  S104  1  0.99310698  0.09340240  0.04572583  1
  S  S105  1  0.84163871  0.59783246  0.04344255  1
  S  S106  1  0.41651826  0.14085824  0.17236929  1
  S  S107  1  0.86639550  0.83578738  0.15998085  1
  S  S108  1  0.91842138  0.33213282  0.16176120  1
  S  S109  1  0.36531059  0.63708856  0.17418887  1
  S  S110  1  0.39546348  0.64072470  0.24448792  1
  S  S111  1  0.94894552  0.33587563  0.25652389  1
  S  S112  1  0.89547090  0.83210311  0.25511512  1
  S  S113  1  0.44896991  0.13676560  0.24273937  1
  S  S114  1  0.88804704  0.04813393  0.12472636  1
  S  S115  1  0.42813144  0.92522076  0.20705274  1
  S  S116  1  0.38680401  0.42515634  0.20960884  1
  S  S117  1  0.93376546  0.54812584  0.12737735  1
  S  S118  1  0.99020882  0.09166530  0.21007838  1
  S  S119  1  0.32560518  0.88079719  0.12699292  1
  S  S120  1  0.49691897  0.38085879  0.12336697  1
  S  S121  1  0.82364559  0.59233841  0.20710743  1
  S  S122  1  0.41903049  0.13970253  0.33756514  1
  S  S123  1  0.86586409  0.83537415  0.32542210  1
  S  S124  1  0.91633542  0.33088789  0.32683247  1
  S  S125  1  0.36404628  0.63486749  0.33857526  1
  S  S126  1  0.38896306  0.64071423  0.40865885  1
  S  S127  1  0.96095357  0.33287304  0.42408693  1
  S  S128  1  0.89521690  0.83195861  0.42201261  1
  S  S129  1  0.46891904  0.13637266  0.40775492  1
  S  S130  1  0.88682043  0.04763518  0.29002382  1
  S  S131  1  0.43208532  0.92412740  0.37247376  1
  S  S132  1  0.38813124  0.42354689  0.37475727  1
  S  S133  1  0.92681837  0.54698842  0.29232133  1
  S  S134  1  0.00091643  0.09425054  0.37690967  1
  S  S135  1  0.32369478  0.88083471  0.29244112  1
  S  S136  1  0.48967217  0.38012499  0.28923262  1
  S  S137  1  0.82167943  0.59183091  0.37212974  1
  S  S138  1  0.89573233  0.83890405  0.49350186  1
  S  S139  1  0.92801509  0.35577157  0.49482223  1
  S  S140  1  0.92839175  0.04804294  0.45713956  1
  S  S141  1  0.92234852  0.55482200  0.45584631  1
  S  S142  1  0.33439191  0.86245117  0.45804099  1
  S  S143  1  0.50008033  0.37768572  0.45456518  1
  S  S144  1  0.41232592  0.57846575  0.50698176  1
  S  S145  1  0.43166084  0.08440961  0.50775981  1
  S  S146  1  0.42403290  0.08358388  0.57832115  1
  S  S147  1  0.86708863  0.38921462  0.59110458  1
  S  S148  1  0.92654515  0.89259728  0.58933040  1
  S  S149  1  0.36923477  0.58923711  0.57727586  1
  S  S150  1  0.39507130  0.79808605  0.54013791  1
  S  S151  1  0.41775678  0.29795142  0.54255579  1
  S  S152  1  0.83157397  0.63191290  0.54567604  1
  S  S153  1  0.98402484  0.12831772  0.54339462  1
  S  S154  1  0.40697858  0.58424608  0.67224438  1
  S  S155  1  0.95855512  0.89079529  0.65959375  1
  S  S156  1  0.90605213  0.39357150  0.66146166  1
  S  S157  1  0.45863144  0.08949718  0.67388600  1
  S  S158  1  0.42799303  0.08419037  0.74421805  1
  S  S159  1  0.87366014  0.38903992  0.75652216  1
  S  S160  1  0.92719963  0.89266318  0.75509906  1
  S  S161  1  0.37405855  0.58870411  0.74260074  1
  S  S162  1  0.93679090  0.67783326  0.62447513  1
  S  S163  1  0.39534165  0.80028021  0.70683870  1
  S  S164  1  0.43695371  0.30043117  0.70955592  1
  S  S165  1  0.89182079  0.17782221  0.62704144  1
  S  S166  1  0.83303539  0.63369390  0.70987269  1
  S  S167  1  0.49948384  0.84464788  0.62671050  1
  S  S168  1  0.32882861  0.34475765  0.62320552  1
  S  S169  1  0.00019590  0.13320205  0.70698329  1
  S  S170  1  0.40549064  0.58448130  0.83759430  1
  S  S171  1  0.95880255  0.88912487  0.82544934  1
  S  S172  1  0.90634982  0.39325249  0.82683575  1
  S  S173  1  0.46168844  0.08984455  0.83840550  1
  S  S174  1  0.43934572  0.08386376  0.90845869  1
  S  S175  1  0.86564432  0.39123733  0.92395437  1
  S  S176  1  0.93158476  0.89290807  0.92190175  1
  S  S177  1  0.35619565  0.58805391  0.90776541  1
  S  S178  1  0.93692487  0.67715302  0.78998322  1
  S  S179  1  0.39290431  0.80006099  0.87246399  1
  S  S180  1  0.43859567  0.30118383  0.87464888  1
  S  S181  1  0.89708829  0.17741634  0.79217703  1
  S  S182  1  0.82404855  0.62971922  0.87690717  1
  S  S183  1  0.50014758  0.84416092  0.79258372  1
  S  S184  1  0.33320295  0.34484949  0.78923440  1
  S  S185  1  0.00544534  0.13265871  0.87218802  1
  S  S186  1  0.93251862  0.88471449  0.99357852  1
  S  S187  1  0.89769756  0.36933600  0.99467414  1
  S  S188  1  0.89587646  0.67677680  0.95690163  1
  S  S189  1  0.90535718  0.16969435  0.95589756  1
  S  S190  1  0.49346247  0.86426659  0.95823963  1
  S  S191  1  0.32678966  0.34714649  0.95452187  1
