# generated using pymatgen
data_Li3PS4
_symmetry_space_group_name_H-M   'P 1'
_cell_length_a   6.25995100
_cell_length_b   15.36973200
_cell_length_c   41.67387356
_cell_angle_alpha   90.00000000
_cell_angle_beta   90.00000000
_cell_angle_gamma   90.00000000
_symmetry_Int_Tables_number   1
_chemical_formula_structural   Li3PS4
_chemical_formula_sum   'Li72 P24 S96'
_cell_volume   4009.60045267
_cell_formula_units_Z   24
loop_
 _symmetry_equiv_pos_site_id
 _symmetry_equiv_pos_as_xyz
  1  'x, y, z'
loop_
 _atom_site_type_symbol
 _atom_site_label
 _atom_site_symmetry_multiplicity
 _atom_site_fract_x
 _atom_site_fract_y
 _atom_site_fract_z
 _atom_site_occupancy
  Li  Li0  1  0.87296839  0.99074263  0.11598888  1
  Li  Li1  1  0.85989017  0.87439414  0.02481491  1
  Li  Li2  1  0.34676134  0.43378555  0.97624084  1
  Li  Li3  1  0.51076182  0.64064165  0.05493070  1
  Li  Li4  1  0.60030966  0.51764376  0.10981947  1
  Li  Li5  1  0.36185586  0.25137733  0.05829935  1
  Li  Li6  1  0.95048509  0.13443481  0.01916118  1
  Li  Li7  1  0.39273722  0.85115536  0.09112569  1
  Li  Li8  1  0.93433865  0.39478850  0.09101343  1
  Li  Li9  1  0.87075484  0.71108010  0.28249441  1
  Li  Li10  1  0.08570289  0.48542554  0.21623528  1
  Li  Li11  1  0.40246819  0.12851523  0.13120506  1
  Li  Li12  1  0.61704400  0.35116821  0.19849928  1
  Li  Li13  1  0.58527726  0.23579298  0.27078188  1
  Li  Li14  1  0.37507955  0.97830188  0.22615347  1
  Li  Li15  1  0.09879721  0.61685186  0.14704127  1
  Li  Li16  1  0.91130369  0.87333880  0.18998564  1
  Li  Li17  1  0.43048767  0.58241207  0.25637804  1
  Li  Li18  1  0.05483310  0.22455624  0.17118049  1
  Li  Li19  1  0.94032839  0.09884283  0.25672027  1
  Li  Li20  1  0.55194634  0.73911583  0.17632987  1
  Li  Li21  1  0.88947004  0.41577369  0.45824609  1
  Li  Li22  1  0.06977906  0.20126893  0.38704996  1
  Li  Li23  1  0.40318081  0.85451425  0.29380932  1
  Li  Li24  1  0.61163876  0.07659622  0.36477757  1
  Li  Li25  1  0.56928608  0.95502440  0.43543614  1
  Li  Li26  1  0.37841333  0.69707072  0.37764788  1
  Li  Li27  1  0.11059459  0.33336035  0.31251737  1
  Li  Li28  1  0.90648595  0.58715710  0.35369042  1
  Li  Li29  1  0.42765583  0.28793559  0.43408601  1
  Li  Li30  1  0.04667253  0.95223308  0.33486552  1
  Li  Li31  1  0.93870658  0.81484349  0.41687789  1
  Li  Li32  1  0.55162707  0.43965374  0.34425683  1
  Li  Li33  1  0.52647899  0.56416029  0.42910080  1
  Li  Li34  1  0.65190763  0.69527650  0.49929604  1
  Li  Li35  1  0.11544059  0.03810022  0.48950162  1
  Li  Li36  1  0.62602555  0.03403061  0.61564954  1
  Li  Li37  1  0.64069809  0.15368883  0.52371674  1
  Li  Li38  1  0.15170911  0.59144547  0.47649938  1
  Li  Li39  1  0.99992032  0.38617976  0.55626841  1
  Li  Li40  1  0.89853495  0.50765254  0.61097911  1
  Li  Li41  1  0.13908868  0.77513763  0.55806447  1
  Li  Li42  1  0.55953109  0.89344138  0.51890444  1
  Li  Li43  1  0.10625057  0.17313435  0.59039103  1
  Li  Li44  1  0.56574867  0.62903162  0.59052211  1
  Li  Li45  1  0.62807979  0.31278553  0.78275027  1
  Li  Li46  1  0.41340434  0.53915472  0.71613197  1
  Li  Li47  1  0.10015976  0.89653790  0.63114111  1
  Li  Li48  1  0.88374662  0.67339011  0.69856810  1
  Li  Li49  1  0.90965587  0.78886233  0.77081686  1
  Li  Li50  1  0.12617937  0.04686405  0.72644689  1
  Li  Li51  1  0.39945690  0.40686764  0.64688423  1
  Li  Li52  1  0.58851620  0.15017381  0.68966933  1
  Li  Li53  1  0.06793196  0.44210134  0.75646282  1
  Li  Li54  1  0.45177808  0.80056084  0.67112457  1
  Li  Li55  1  0.56280308  0.92735690  0.75701971  1
  Li  Li56  1  0.94808395  0.28408063  0.67619710  1
  Li  Li57  1  0.61111858  0.60862168  0.95814808  1
  Li  Li58  1  0.43046358  0.82348980  0.88711134  1
  Li  Li59  1  0.09602024  0.17092442  0.79390799  1
  Li  Li60  1  0.88474640  0.94896781  0.86476830  1
  Li  Li61  1  0.92997691  0.07041989  0.93557402  1
  Li  Li62  1  0.11960957  0.32730165  0.87746675  1
  Li  Li63  1  0.38872974  0.69149391  0.81229574  1
  Li  Li64  1  0.58880663  0.43831373  0.85370691  1
  Li  Li65  1  0.07462290  0.73865687  0.93516166  1
  Li  Li66  1  0.44977725  0.07217805  0.83536062  1
  Li  Li67  1  0.55591720  0.21116468  0.91671012  1
  Li  Li68  1  0.94690888  0.58395978  0.84398140  1
  Li  Li69  1  0.97532395  0.46058191  0.92819668  1
  Li  Li70  1  0.84642165  0.32827193  0.99920687  1
  Li  Li71  1  0.38933994  0.98822114  0.98996276  1
  P  P72  1  0.17292030  0.00467247  0.05929961  1
  P  P73  1  0.83657536  0.75226132  0.11190905  1
  P  P74  1  0.63858965  0.46838173  0.03140072  1
  P  P75  1  0.15129449  0.73356200  0.22466334  1
  P  P76  1  0.83372084  0.46567437  0.27744327  1
  P  P77  1  0.65381306  0.10948052  0.19260515  1
  P  P78  1  0.34017747  0.37625671  0.13966420  1
  P  P79  1  0.14472878  0.44909582  0.39231376  1
  P  P80  1  0.83240269  0.17648599  0.44803525  1
  P  P81  1  0.65367672  0.83427824  0.35445816  1
  P  P82  1  0.33695223  0.10057647  0.30562559  1
  P  P83  1  0.34833446  0.78800021  0.46215327  1
  P  P84  1  0.33064015  0.02126476  0.55881030  1
  P  P85  1  0.66367157  0.27247783  0.61167434  1
  P  P86  1  0.86420960  0.55651813  0.53175802  1
  P  P87  1  0.34818959  0.29078819  0.72463723  1
  P  P88  1  0.66444603  0.55862014  0.77750406  1
  P  P89  1  0.84752298  0.91629456  0.69254778  1
  P  P90  1  0.16026410  0.64982816  0.63950550  1
  P  P91  1  0.35238803  0.57621571  0.89228249  1
  P  P92  1  0.66830094  0.84862452  0.94833643  1
  P  P93  1  0.84427211  0.18989165  0.85453163  1
  P  P94  1  0.16138635  0.92391786  0.80552579  1
  P  P95  1  0.15097554  0.23650820  0.96202094  1
  S  S96  1  0.31983681  0.10448862  0.03515128  1
  S  S97  1  0.68124709  0.34238990  0.04922668  1
  S  S98  1  0.21795002  0.48365936  0.11732521  1
  S  S99  1  0.73820705  0.46836465  0.98260454  1
  S  S100  1  0.69381960  0.77222951  0.06795508  1
  S  S101  1  0.26412219  0.99536669  0.10662460  1
  S  S102  1  0.24772480  0.89278677  0.03499333  1
  S  S103  1  0.22170355  0.26923203  0.11426701  1
  S  S104  1  0.81899810  0.54395693  0.06041981  1
  S  S105  1  0.84707068  0.02534910  0.05762098  1
  S  S106  1  0.15746798  0.73274854  0.10925544  1
  S  S107  1  0.33491440  0.51344236  0.02955081  1
  S  S108  1  0.28432808  0.83743652  0.20095261  1
  S  S109  1  0.71552350  0.64604713  0.13685062  1
  S  S110  1  0.75855733  0.00197812  0.21775129  1
  S  S111  1  0.20958798  0.20462222  0.28151977  1
  S  S112  1  0.23452378  0.36010697  0.18625079  1
  S  S113  1  0.78150119  0.12343857  0.14760134  1
  S  S114  1  0.70626749  0.47934113  0.23245000  1
  S  S115  1  0.25574063  0.72084854  0.27138871  1
  S  S116  1  0.73324362  0.85735527  0.13928785  1
  S  S117  1  0.26394202  0.62383177  0.20085802  1
  S  S118  1  0.22162307  0.99250712  0.28068644  1
  S  S119  1  0.77018177  0.21523796  0.21877035  1
  S  S120  1  0.82634898  0.74725737  0.22573497  1
  S  S121  1  0.15929700  0.45633368  0.27447471  1
  S  S122  1  0.32803744  0.10115606  0.18929767  1
  S  S123  1  0.66731703  0.38572612  0.14144750  1
  S  S124  1  0.28397931  0.54646365  0.36531575  1
  S  S125  1  0.72798271  0.35733851  0.30224092  1
  S  S126  1  0.75981700  0.72210934  0.37725191  1
  S  S127  1  0.19712968  0.89915573  0.44787481  1
  S  S128  1  0.22864694  0.08595005  0.35206640  1
  S  S129  1  0.78173974  0.84947594  0.30976516  1
  S  S130  1  0.69374629  0.19415676  0.40337003  1
  S  S131  1  0.26331539  0.44391451  0.43870851  1
  S  S132  1  0.71901263  0.57166802  0.30340550  1
  S  S133  1  0.24261826  0.33775284  0.36923442  1
  S  S134  1  0.26579695  0.68930558  0.43046988  1
  S  S135  1  0.76805281  0.93593806  0.38253325  1
  S  S136  1  0.81842193  0.46714383  0.39443921  1
  S  S137  1  0.15725000  0.16557715  0.44271575  1
  S  S138  1  0.32763889  0.82905746  0.35105055  1
  S  S139  1  0.66249551  0.11170348  0.30740792  1
  S  S140  1  0.73385237  0.06514464  0.47148159  1
  S  S141  1  0.27505276  0.72622106  0.50430889  1
  S  S142  1  0.72814355  0.27900817  0.47594233  1
  S  S143  1  0.67026506  0.82104660  0.46579051  1
  S  S144  1  0.18814631  0.92104006  0.53436126  1
  S  S145  1  0.81973799  0.68274910  0.54920451  1
  S  S146  1  0.28042166  0.54169279  0.61731229  1
  S  S147  1  0.76205497  0.55513835  0.48305116  1
  S  S148  1  0.80755260  0.25437606  0.56772084  1
  S  S149  1  0.23638247  0.02956960  0.60600047  1
  S  S150  1  0.25413407  0.13313386  0.53453563  1
  S  S151  1  0.28029123  0.75619601  0.61394321  1
  S  S152  1  0.68602936  0.48106805  0.56114242  1
  S  S153  1  0.65706930  0.00214197  0.55745639  1
  S  S154  1  0.34239922  0.29158642  0.60887186  1
  S  S155  1  0.16861813  0.51225793  0.52968733  1
  S  S156  1  0.21557179  0.18680271  0.70094477  1
  S  S157  1  0.78323604  0.37807112  0.63714208  1
  S  S158  1  0.74259637  0.02347986  0.71784485  1
  S  S159  1  0.28818340  0.82041226  0.78110725  1
  S  S160  1  0.26654317  0.66578591  0.68608430  1
  S  S161  1  0.72018133  0.90263035  0.64750708  1
  S  S162  1  0.79255197  0.54515970  0.73252829  1
  S  S163  1  0.24322586  0.30393432  0.77136488  1
  S  S164  1  0.76624676  0.16694877  0.63889217  1
  S  S165  1  0.23535557  0.40049386  0.70081476  1
  S  S166  1  0.27695344  0.03252834  0.78093189  1
  S  S167  1  0.73039802  0.81032576  0.71857066  1
  S  S168  1  0.67278086  0.27692722  0.72574729  1
  S  S169  1  0.33899388  0.56789855  0.77444925  1
  S  S170  1  0.17296548  0.92453642  0.68921727  1
  S  S171  1  0.83287918  0.64141468  0.64136020  1
  S  S172  1  0.21092098  0.47839963  0.86564618  1
  S  S173  1  0.77010742  0.66694569  0.80227554  1
  S  S174  1  0.73852168  0.30264622  0.87700681  1
  S  S175  1  0.30245612  0.12509461  0.94809899  1
  S  S176  1  0.26887225  0.93796181  0.85204949  1
  S  S177  1  0.71700008  0.17424726  0.80982656  1
  S  S178  1  0.80736235  0.83097998  0.90371485  1
  S  S179  1  0.23512216  0.58170755  0.93872477  1
  S  S180  1  0.77857708  0.45276702  0.80358364  1
  S  S181  1  0.25599657  0.68729700  0.86901650  1
  S  S182  1  0.23560052  0.33471612  0.93024955  1
  S  S183  1  0.72878255  0.08884054  0.88275494  1
  S  S184  1  0.67831931  0.55708480  0.89421927  1
  S  S185  1  0.34377605  0.86072328  0.94280754  1
  S  S186  1  0.17051116  0.19499232  0.85129058  1
  S  S187  1  0.83560096  0.91278573  0.80741260  1
  S  S188  1  0.76900891  0.95955837  0.97184347  1
  S  S189  1  0.22286799  0.29816327  0.00426143  1
  S  S190  1  0.77000097  0.74558288  0.97619829  1
  S  S191  1  0.82904495  0.20377986  0.96550179  1
