# generated using pymatgen
data_Li3PS4
_symmetry_space_group_name_H-M   'P 1'
_cell_length_a   6.25995100
_cell_length_b   15.36973200
_cell_length_c   48.78454275
_cell_angle_alpha   90.00000000
_cell_angle_beta   90.00000000
_cell_angle_gamma   90.00000000
_symmetry_Int_Tables_number   1
_chemical_formula_structural   Li3PS4
_chemical_formula_sum   'Li84 P28 S112'
_cell_volume   4693.74473685
_cell_formula_units_Z   28
loop_
 _symmetry_equiv_pos_site_id
 _symmetry_equiv_pos_as_xyz
  1  'x, y, z'
loop_
 _atom_site_type_symbol
 _atom_site_label
 _atom_site_symmetry_multiplicity
 _atom_site_fract_x
 _atom_site_fract_y
 _atom_site_fract_z
 _atom_site_occupancy
  Li  Li0  1  0.12078722  0.58941708  0.07349265  1
  Li  Li1  1  0.37066321  0.30540201  0.02092715  1
  Li  Li2  1  0.61033117  0.47744689  0.07006270  1
  Li  Li3  1  0.33510054  0.72325137  0.99502925  1
  Li  Li4  1  0.44527801  0.09354528  0.09287561  1
  Li  Li5  1  0.87206591  0.75201070  0.05665738  1
  Li  Li6  1  0.92740736  0.99928715  0.05288508  1
  Li  Li7  1  0.43174129  0.71589367  0.11248231  1
  Li  Li8  1  0.91498750  0.38983904  0.03210683  1
  Li  Li9  1  0.07460048  0.23412280  0.09982380  1
  Li  Li10  1  0.88531167  0.84905954  0.13507733  1
  Li  Li11  1  0.08337505  0.34564861  0.21972549  1
  Li  Li12  1  0.37965409  0.98459748  0.15296978  1
  Li  Li13  1  0.57992007  0.20544727  0.20950576  1
  Li  Li14  1  0.63226457  0.35484489  0.12691695  1
  Li  Li15  1  0.42283894  0.82128379  0.23034072  1
  Li  Li16  1  0.12812857  0.46831912  0.15760858  1
  Li  Li17  1  0.92669638  0.72896940  0.19549250  1
  Li  Li18  1  0.43560603  0.43315447  0.25697450  1
  Li  Li19  1  0.93696293  0.11530182  0.17368185  1
  Li  Li20  1  0.07222059  0.96559327  0.24223910  1
  Li  Li21  1  0.57367372  0.58419981  0.18436288  1
  Li  Li22  1  0.88074150  0.56609955  0.27429067  1
  Li  Li23  1  0.09670222  0.06192769  0.36608018  1
  Li  Li24  1  0.38757983  0.70704159  0.28945909  1
  Li  Li25  1  0.58583140  0.93054570  0.35060437  1
  Li  Li26  1  0.63220509  0.08382602  0.26947413  1
  Li  Li27  1  0.43616035  0.54121080  0.36783337  1
  Li  Li28  1  0.13824599  0.19160397  0.30306984  1
  Li  Li29  1  0.93508045  0.44741227  0.33804804  1
  Li  Li30  1  0.45084077  0.15626646  0.40173680  1
  Li  Li31  1  0.93860507  0.83874116  0.31262145  1
  Li  Li32  1  0.08324107  0.69125265  0.37468301  1
  Li  Li33  1  0.58584053  0.29866430  0.33209171  1
  Li  Li34  1  0.90531741  0.28753798  0.42137285  1
  Li  Li35  1  0.40701109  0.43792667  0.43699522  1
  Li  Li36  1  0.64871924  0.75836512  0.48480679  1
  Li  Li37  1  0.65570317  0.80893612  0.40896861  1
  Li  Li38  1  0.12292451  0.41100686  0.52842837  1
  Li  Li39  1  0.14887520  0.89369917  0.44157829  1
  Li  Li40  1  0.79608227  0.16947021  0.48688649  1
  Li  Li41  1  0.91012232  0.57144840  0.43914110  1
  Li  Li42  1  0.45554123  0.70836013  0.57354105  1
  Li  Li43  1  0.20718960  0.99450599  0.52058294  1
  Li  Li44  1  0.97009769  0.82155888  0.57014576  1
  Li  Li45  1  0.23605539  0.57715670  0.49546369  1
  Li  Li46  1  0.12822491  0.20599711  0.59243556  1
  Li  Li47  1  0.70804532  0.54651371  0.55719498  1
  Li  Li48  1  0.65134860  0.30045463  0.55289854  1
  Li  Li49  1  0.14402006  0.58362056  0.61253666  1
  Li  Li50  1  0.66619267  0.90863748  0.53206943  1
  Li  Li51  1  0.49865632  0.06425826  0.59979673  1
  Li  Li52  1  0.68969247  0.45095831  0.63522387  1
  Li  Li53  1  0.49367600  0.95464098  0.71966809  1
  Li  Li54  1  0.19436647  0.31478621  0.65303402  1
  Li  Li55  1  0.99139361  0.09441079  0.70929021  1
  Li  Li56  1  0.94381734  0.94534847  0.62694884  1
  Li  Li57  1  0.15252181  0.47877193  0.73036492  1
  Li  Li58  1  0.44629925  0.83155626  0.65743996  1
  Li  Li59  1  0.65044561  0.57134361  0.69574929  1
  Li  Li60  1  0.13822135  0.86667727  0.75710068  1
  Li  Li61  1  0.63468840  0.18599467  0.67348662  1
  Li  Li62  1  0.50038985  0.33418163  0.74268491  1
  Li  Li63  1  0.00379516  0.71621244  0.68450733  1
  Li  Li64  1  0.69392364  0.73385636  0.77487910  1
  Li  Li65  1  0.47962878  0.23846911  0.86627977  1
  Li  Li66  1  0.18934058  0.59348766  0.78977604  1
  Li  Li67  1  0.98605046  0.36951885  0.85107897  1
  Li  Li68  1  0.93878808  0.21640394  0.76969321  1
  Li  Li69  1  0.14014553  0.75940896  0.86768575  1
  Li  Li70  1  0.43489921  0.10864164  0.80302981  1
  Li  Li71  1  0.63871320  0.85415165  0.83795725  1
  Li  Li72  1  0.12024540  0.14385037  0.90179905  1
  Li  Li73  1  0.63426506  0.46162486  0.81304325  1
  Li  Li74  1  0.49016537  0.61031322  0.87481765  1
  Li  Li75  1  0.98735509  0.00136964  0.83221943  1
  Li  Li76  1  0.66656477  0.01359704  0.92142800  1
  Li  Li77  1  0.16671620  0.86242684  0.93655540  1
  Li  Li78  1  0.92750529  0.54082914  0.98472210  1
  Li  Li79  1  0.91829000  0.49031896  0.90919943  1
  Li  Li80  1  0.45622394  0.88895213  0.02838728  1
  Li  Li81  1  0.42616087  0.40648137  0.94157111  1
  Li  Li82  1  0.77524372  0.13169607  0.98709101  1
  Li  Li83  1  0.66537689  0.72933724  0.93915020  1
  P  P84  1  0.17756831  0.86964591  0.08673378  1
  P  P85  1  0.66399525  0.22868493  0.05983929  1
  P  P86  1  0.32274468  0.49873615  0.02168627  1
  P  P87  1  0.16899133  0.58779412  0.22428653  1
  P  P88  1  0.86077155  0.60396387  0.12784552  1
  P  P89  1  0.66665266  0.96166029  0.20172827  1
  P  P90  1  0.34378767  0.22896604  0.15625088  1
  P  P91  1  0.17846668  0.31074123  0.37012763  1
  P  P92  1  0.84750759  0.32144750  0.27284980  1
  P  P93  1  0.66957734  0.68291530  0.33892388  1
  P  P94  1  0.34812146  0.95386321  0.29746121  1
  P  P95  1  0.85519098  0.03991174  0.41883544  1
  P  P96  1  0.71177151  0.42190722  0.48909043  1
  P  P97  1  0.31827110  0.67979020  0.43066871  1
  P  P98  1  0.39965616  0.42977311  0.58685708  1
  P  P99  1  0.91120515  0.07023989  0.55964160  1
  P  P100  1  0.25372105  0.80077398  0.52165036  1
  P  P101  1  0.40754133  0.71233309  0.72453362  1
  P  P102  1  0.71672252  0.69571610  0.62796662  1
  P  P103  1  0.90757921  0.33798838  0.70193428  1
  P  P104  1  0.22899142  0.07127894  0.65626499  1
  P  P105  1  0.39524597  0.99017161  0.86999053  1
  P  P106  1  0.72672630  0.97883575  0.77303400  1
  P  P107  1  0.90503629  0.61739190  0.83911613  1
  P  P108  1  0.22415191  0.34630060  0.79793289  1
  P  P109  1  0.71933880  0.26025975  0.91913376  1
  P  P110  1  0.86388687  0.87876973  0.98886298  1
  P  P111  1  0.25627162  0.62035413  0.93061307  1
  S  S112  1  0.30272212  0.97499566  0.06632850  1
  S  S113  1  0.81366332  0.12740600  0.07899773  1
  S  S114  1  0.14573315  0.61128018  0.02124354  1
  S  S115  1  0.24633873  0.43998468  0.05835819  1
  S  S116  1  0.74735241  0.25276363  0.01934825  1
  S  S117  1  0.73780405  0.61649291  0.08853176  1
  S  S118  1  0.27546503  0.85660568  0.12673047  1
  S  S119  1  0.26664233  0.76059793  0.06520748  1
  S  S120  1  0.20642369  0.41546943  0.99162061  1
  S  S121  1  0.77781945  0.33755772  0.08076644  1
  S  S122  1  0.84876151  0.88127588  0.08607680  1
  S  S123  1  0.34192496  0.20700379  0.05970775  1
  S  S124  1  0.64774944  0.51978913  0.02201938  1
  S  S125  1  0.30339195  0.69135656  0.20385695  1
  S  S126  1  0.74473196  0.49551710  0.14768244  1
  S  S127  1  0.80091882  0.85761304  0.22171018  1
  S  S128  1  0.24431686  0.33469345  0.13369012  1
  S  S129  1  0.20714568  0.21730243  0.19429547  1
  S  S130  1  0.76671191  0.97641647  0.16172671  1
  S  S131  1  0.70906727  0.33358356  0.23476936  1
  S  S132  1  0.26861087  0.57610069  0.26433045  1
  S  S133  1  0.74292381  0.70810296  0.15023312  1
  S  S134  1  0.27911829  0.47726279  0.20421761  1
  S  S135  1  0.23437848  0.12110804  0.13457359  1
  S  S136  1  0.77817867  0.07145374  0.22223106  1
  S  S137  1  0.84329541  0.60206474  0.22489652  1
  S  S138  1  0.18538292  0.59084213  0.12558078  1
  S  S139  1  0.34101704  0.94789070  0.20110178  1
  S  S140  1  0.66878280  0.23796381  0.16045587  1
  S  S141  1  0.30986912  0.40799510  0.34652132  1
  S  S142  1  0.74928085  0.21434813  0.29489284  1
  S  S143  1  0.80769805  0.58148625  0.35999052  1
  S  S144  1  0.24582473  0.06187421  0.27624506  1
  S  S145  1  0.21187913  0.93856054  0.33542229  1
  S  S146  1  0.77483111  0.69829300  0.29926311  1
  S  S147  1  0.72158403  0.05121193  0.38012281  1
  S  S148  1  0.29068566  0.30353145  0.40975447  1
  S  S149  1  0.74212435  0.42928296  0.29455142  1
  S  S150  1  0.28042312  0.19710137  0.35090097  1
  S  S151  1  0.23727712  0.84797547  0.27467435  1
  S  S152  1  0.77659194  0.79277364  0.35965219  1
  S  S153  1  0.85397750  0.32842332  0.37195006  1
  S  S154  1  0.17207950  0.31068091  0.26825640  1
  S  S155  1  0.34619464  0.66326065  0.33684674  1
  S  S156  1  0.67284480  0.96323899  0.30152979  1
  S  S157  1  0.76192617  0.93142699  0.43982842  1
  S  S158  1  0.82327494  0.31062071  0.50837749  1
  S  S159  1  0.26180822  0.78676474  0.40639076  1
  S  S160  1  0.11512943  0.68391064  0.46295396  1
  S  S161  1  0.80334554  0.42250253  0.44839678  1
  S  S162  1  0.74369172  0.15171466  0.43865372  1
  S  S163  1  0.24632512  0.56474064  0.41015778  1
  S  S164  1  0.85203911  0.52403321  0.50991262  1
  S  S165  1  0.18193764  0.03457974  0.41520476  1
  S  S166  1  0.38294083  0.42889425  0.48818614  1
  S  S167  1  0.63709919  0.68521538  0.44117171  1
  S  S168  1  0.27534033  0.32459248  0.56629745  1
  S  S169  1  0.76032024  0.17125993  0.57880199  1
  S  S170  1  0.42957093  0.68792334  0.52124536  1
  S  S171  1  0.33211090  0.85920971  0.55828010  1
  S  S172  1  0.82867050  0.04672502  0.51909409  1
  S  S173  1  0.84056503  0.68274744  0.58870173  1
  S  S174  1  0.29987967  0.44289532  0.62675906  1
  S  S175  1  0.31223658  0.53888798  0.56523125  1
  S  S176  1  0.36929487  0.88376562  0.49148833  1
  S  S177  1  0.79900715  0.96125322  0.58064442  1
  S  S178  1  0.72853578  0.41773756  0.58646139  1
  S  S179  1  0.23309649  0.09229572  0.55961399  1
  S  S180  1  0.92856920  0.77954825  0.52211516  1
  S  S181  1  0.27356242  0.60877065  0.70405182  1
  S  S182  1  0.83165671  0.80434999  0.64780511  1
  S  S183  1  0.77434450  0.44212453  0.72196589  1
  S  S184  1  0.32958152  0.96532971  0.63382166  1
  S  S185  1  0.36481814  0.08305981  0.69434184  1
  S  S186  1  0.80807403  0.32392655  0.66187404  1
  S  S187  1  0.86643087  0.96661647  0.73502575  1
  S  S188  1  0.30686985  0.72429364  0.76452406  1
  S  S189  1  0.83359840  0.59162348  0.65043485  1
  S  S190  1  0.29835325  0.82271979  0.70427624  1
  S  S191  1  0.33852255  0.17884351  0.63443967  1
  S  S192  1  0.79445082  0.22819642  0.72228165  1
  S  S193  1  0.73314886  0.69807635  0.72528583  1
  S  S194  1  0.39210138  0.70889634  0.62546198  1
  S  S195  1  0.23331746  0.35104980  0.70131941  1
  S  S196  1  0.90382362  0.06224860  0.66029758  1
  S  S197  1  0.26417637  0.89289186  0.84638144  1
  S  S198  1  0.82447146  0.08585834  0.79515543  1
  S  S199  1  0.76769240  0.71945836  0.85993888  1
  S  S200  1  0.32629316  0.23843128  0.77660242  1
  S  S201  1  0.36047846  0.36186215  0.83587799  1
  S  S202  1  0.80118339  0.60149687  0.79942528  1
  S  S203  1  0.85395643  0.24917100  0.88045353  1
  S  S204  1  0.28219915  0.99712998  0.90958938  1
  S  S205  1  0.83269632  0.87102357  0.79472550  1
  S  S206  1  0.29398664  0.10382415  0.85081137  1
  S  S207  1  0.33517889  0.45201025  0.77502653  1
  S  S208  1  0.79708752  0.50794156  0.85996793  1
  S  S209  1  0.71966705  0.97240629  0.87199268  1
  S  S210  1  0.40253798  0.98961088  0.76820994  1
  S  S211  1  0.22868756  0.63673415  0.83706687  1
  S  S212  1  0.89941333  0.33660302  0.80207789  1
  S  S213  1  0.81250752  0.36860533  0.94019495  1
  S  S214  1  0.75350058  0.98982311  0.00835688  1
  S  S215  1  0.31223259  0.51340634  0.90632526  1
  S  S216  1  0.45984163  0.61630141  0.96286089  1
  S  S217  1  0.77163263  0.87870620  0.94818435  1
  S  S218  1  0.83008108  0.14837423  0.93892698  1
  S  S219  1  0.32921760  0.73535956  0.91008260  1
  S  S220  1  0.72387721  0.77624188  0.00953051  1
  S  S221  1  0.39282979  0.26562229  0.91531022  1
  S  S222  1  0.19271882  0.87160723  0.98787858  1
  S  S223  1  0.93772728  0.61507934  0.94121057  1
