# generated using pymatgen
data_Li3PS4
_symmetry_space_group_name_H-M   'P 1'
_cell_length_a   6.25995100
_cell_length_b   15.36973200
_cell_length_c   48.79723323
_cell_angle_alpha   90.00000000
_cell_angle_beta   90.00000000
_cell_angle_gamma   90.00000000
_symmetry_Int_Tables_number   1
_chemical_formula_structural   Li3PS4
_chemical_formula_sum   'Li84 P28 S112'
_cell_volume   4694.96573545
_cell_formula_units_Z   28
loop_
 _symmetry_equiv_pos_site_id
 _symmetry_equiv_pos_as_xyz
  1  'x, y, z'
loop_
 _atom_site_type_symbol
 _atom_site_label
 _atom_site_symmetry_multiplicity
 _atom_site_fract_x
 _atom_site_fract_y
 _atom_site_fract_z
 _atom_site_occupancy
  Li  Li0  1  0.13325907  0.58217751  0.07365499  1
  Li  Li1  1  0.38627604  0.29092569  0.01957340  1
  Li  Li2  1  0.62278876  0.46800356  0.07073058  1
  Li  Li3  1  0.35524089  0.71221172  0.99482929  1
  Li  Li4  1  0.45844178  0.08369276  0.09239592  1
  Li  Li5  1  0.87880346  0.74374944  0.05732864  1
  Li  Li6  1  0.93352569  0.98981827  0.05286627  1
  Li  Li7  1  0.44513678  0.70774685  0.11250456  1
  Li  Li8  1  0.92819000  0.37950679  0.03216318  1
  Li  Li9  1  0.09173729  0.22652367  0.09948217  1
  Li  Li10  1  0.89906114  0.83934747  0.13520699  1
  Li  Li11  1  0.10055642  0.33647791  0.21997039  1
  Li  Li12  1  0.39131504  0.97657003  0.15343104  1
  Li  Li13  1  0.60001211  0.19679273  0.20928509  1
  Li  Li14  1  0.64200102  0.34568916  0.12683392  1
  Li  Li15  1  0.43689809  0.81153236  0.23043868  1
  Li  Li16  1  0.13924052  0.45963821  0.15787907  1
  Li  Li17  1  0.93606114  0.71999435  0.19599416  1
  Li  Li18  1  0.45645745  0.42448202  0.25680827  1
  Li  Li19  1  0.95375377  0.10504183  0.17363003  1
  Li  Li20  1  0.08365166  0.95554393  0.24275520  1
  Li  Li21  1  0.58480555  0.57644002  0.18420772  1
  Li  Li22  1  0.89959429  0.55602250  0.27479520  1
  Li  Li23  1  0.10591774  0.05040290  0.36609836  1
  Li  Li24  1  0.40177883  0.69793271  0.28957223  1
  Li  Li25  1  0.60039369  0.92038061  0.35048567  1
  Li  Li26  1  0.64300385  0.07563689  0.26946660  1
  Li  Li27  1  0.44749132  0.52967665  0.36756256  1
  Li  Li28  1  0.15072341  0.18235879  0.30289153  1
  Li  Li29  1  0.94890148  0.43572738  0.33813225  1
  Li  Li30  1  0.46587415  0.14361040  0.40177951  1
  Li  Li31  1  0.95271799  0.82802081  0.31279904  1
  Li  Li32  1  0.09535161  0.67941637  0.37448571  1
  Li  Li33  1  0.59949275  0.28757568  0.33227167  1
  Li  Li34  1  0.92220435  0.27385977  0.42138952  1
  Li  Li35  1  0.42022877  0.42391428  0.43701219  1
  Li  Li36  1  0.65528844  0.74245802  0.48518488  1
  Li  Li37  1  0.66547235  0.79799106  0.40903846  1
  Li  Li38  1  0.13643496  0.39602070  0.52841464  1
  Li  Li39  1  0.15764403  0.87964052  0.44193205  1
  Li  Li40  1  0.80754199  0.15462692  0.48701816  1
  Li  Li41  1  0.92067306  0.55855392  0.43899129  1
  Li  Li42  1  0.46491807  0.69437085  0.57344514  1
  Li  Li43  1  0.21567865  0.98204899  0.52011682  1
  Li  Li44  1  0.97710452  0.80638206  0.57029190  1
  Li  Li45  1  0.24455066  0.56181980  0.49499607  1
  Li  Li46  1  0.13891509  0.19060601  0.59280032  1
  Li  Li47  1  0.71780161  0.53028276  0.55730132  1
  Li  Li48  1  0.66297653  0.28463647  0.55299201  1
  Li  Li49  1  0.15328434  0.56873495  0.61248847  1
  Li  Li50  1  0.67307350  0.89432470  0.53203032  1
  Li  Li51  1  0.50859649  0.04913568  0.59941249  1
  Li  Li52  1  0.69641832  0.43680741  0.63549448  1
  Li  Li53  1  0.50512625  0.93882483  0.71965066  1
  Li  Li54  1  0.20570948  0.29872433  0.65304407  1
  Li  Li55  1  0.00079952  0.07795622  0.70916384  1
  Li  Li56  1  0.95381919  0.92966374  0.62709116  1
  Li  Li57  1  0.16919793  0.46225653  0.73016479  1
  Li  Li58  1  0.45832073  0.81650597  0.65784401  1
  Li  Li59  1  0.66582586  0.55502392  0.69628716  1
  Li  Li60  1  0.14899892  0.85045056  0.75660850  1
  Li  Li61  1  0.64471675  0.17093960  0.67372828  1
  Li  Li62  1  0.51511280  0.31988351  0.74236557  1
  Li  Li63  1  0.01392488  0.70003020  0.68468872  1
  Li  Li64  1  0.70728873  0.71896725  0.77445821  1
  Li  Li65  1  0.49092230  0.22477361  0.86627957  1
  Li  Li66  1  0.20343285  0.57778869  0.78947622  1
  Li  Li67  1  0.99956450  0.35489987  0.85012884  1
  Li  Li68  1  0.95097714  0.20075479  0.76941991  1
  Li  Li69  1  0.15290167  0.74565465  0.86749167  1
  Li  Li70  1  0.44884497  0.09362225  0.80281087  1
  Li  Li71  1  0.65074512  0.83921091  0.83820570  1
  Li  Li72  1  0.13623831  0.13144495  0.90176280  1
  Li  Li73  1  0.64862266  0.44748080  0.81294720  1
  Li  Li74  1  0.50713840  0.59491610  0.87431816  1
  Li  Li75  1  0.99981402  0.98847505  0.83216900  1
  Li  Li76  1  0.67998273  0.00022269  0.92141689  1
  Li  Li77  1  0.17852649  0.85004734  0.93675220  1
  Li  Li78  1  0.94396835  0.53309622  0.98561542  1
  Li  Li79  1  0.93667665  0.47743278  0.90894867  1
  Li  Li80  1  0.46145897  0.87739986  0.02845717  1
  Li  Li81  1  0.44030335  0.39408221  0.94158171  1
  Li  Li82  1  0.78847798  0.11921373  0.98690328  1
  Li  Li83  1  0.68013709  0.71645689  0.93852690  1
  P  P84  1  0.18773487  0.86132413  0.08675256  1
  P  P85  1  0.67803063  0.21909324  0.05969394  1
  P  P86  1  0.33785919  0.48848833  0.02237075  1
  P  P87  1  0.18236624  0.57845405  0.22450384  1
  P  P88  1  0.87161459  0.59531535  0.12808252  1
  P  P89  1  0.67998131  0.95265073  0.20191736  1
  P  P90  1  0.35896821  0.21955640  0.15625611  1
  P  P91  1  0.19218281  0.29849067  0.36985881  1
  P  P92  1  0.86305114  0.31200195  0.27299202  1
  P  P93  1  0.68269772  0.67210856  0.33896684  1
  P  P94  1  0.36161650  0.94406890  0.29773736  1
  P  P95  1  0.86660457  0.02722966  0.41893644  1
  P  P96  1  0.72399902  0.40722782  0.48910217  1
  P  P97  1  0.33022909  0.66652933  0.43047934  1
  P  P98  1  0.40969176  0.41370722  0.58693650  1
  P  P99  1  0.92145886  0.05538030  0.55955212  1
  P  P100  1  0.26227595  0.78648479  0.52188783  1
  P  P101  1  0.42000730  0.69620790  0.72451817  1
  P  P102  1  0.72645469  0.68075748  0.62813988  1
  P  P103  1  0.92018849  0.32240282  0.70179990  1
  P  P104  1  0.24105657  0.05567618  0.65610067  1
  P  P105  1  0.40827605  0.97654950  0.86994281  1
  P  P106  1  0.73856439  0.96329124  0.77281444  1
  P  P107  1  0.92004220  0.60297367  0.83880746  1
  P  P108  1  0.23858688  0.33140067  0.79735820  1
  P  P109  1  0.73365440  0.24721734  0.91890069  1
  P  P110  1  0.87441327  0.86673052  0.98907502  1
  P  P111  1  0.27056278  0.60812214  0.93053175  1
  S  S112  1  0.31078408  0.96616549  0.06593968  1
  S  S113  1  0.82690235  0.11806983  0.07902988  1
  S  S114  1  0.16503630  0.60219436  0.02149736  1
  S  S115  1  0.25787353  0.43232109  0.05922055  1
  S  S116  1  0.76313771  0.24165917  0.01914981  1
  S  S117  1  0.74860298  0.60819959  0.08879006  1
  S  S118  1  0.27561436  0.75194279  0.06529561  1
  S  S119  1  0.22023482  0.40515216  0.99233010  1
  S  S120  1  0.79081041  0.32785658  0.08068386  1
  S  S121  1  0.85864777  0.87275186  0.08650516  1
  S  S122  1  0.35563211  0.19789706  0.05939920  1
  S  S123  1  0.66301600  0.50848401  0.02249635  1
  S  S124  1  0.31424823  0.68258720  0.20405437  1
  S  S125  1  0.75526894  0.48657817  0.14770420  1
  S  S126  1  0.81356810  0.84871614  0.22206179  1
  S  S127  1  0.25687534  0.32555710  0.13394241  1
  S  S128  1  0.22444670  0.20752660  0.19440099  1
  S  S129  1  0.77960123  0.96670314  0.16190343  1
  S  S130  1  0.72554863  0.32415523  0.23486193  1
  S  S131  1  0.28859267  0.84885171  0.12661306  1
  S  S132  1  0.75359854  0.69929065  0.15056476  1
  S  S133  1  0.29359668  0.46832613  0.20427187  1
  S  S134  1  0.24901154  0.11209096  0.13442710  1
  S  S135  1  0.79307332  0.06235711  0.22229842  1
  S  S136  1  0.85668794  0.59178064  0.22522785  1
  S  S137  1  0.19607932  0.58261249  0.12589421  1
  S  S138  1  0.35438381  0.93909197  0.20144848  1
  S  S139  1  0.68418404  0.22869412  0.16016417  1
  S  S140  1  0.32345957  0.39591197  0.34632197  1
  S  S141  1  0.76354312  0.20490129  0.29495440  1
  S  S142  1  0.82024429  0.57034402  0.35993510  1
  S  S143  1  0.25738202  0.05189982  0.27656547  1
  S  S144  1  0.22606361  0.92782085  0.33568889  1
  S  S145  1  0.78846419  0.68784256  0.29934369  1
  S  S146  1  0.73231752  0.03922221  0.38025934  1
  S  S147  1  0.28410126  0.56661019  0.26443332  1
  S  S148  1  0.75652526  0.41975380  0.29463263  1
  S  S149  1  0.29225167  0.18490915  0.35055670  1
  S  S150  1  0.25139339  0.83817402  0.27484237  1
  S  S151  1  0.78877385  0.78182922  0.35981196  1
  S  S152  1  0.86799496  0.31666105  0.37199124  1
  S  S153  1  0.18760770  0.30139904  0.26844325  1
  S  S154  1  0.35935550  0.65235056  0.33679471  1
  S  S155  1  0.68641824  0.95412149  0.30164447  1
  S  S156  1  0.77184539  0.91921869  0.44004424  1
  S  S157  1  0.83539447  0.29597998  0.50839917  1
  S  S158  1  0.27239624  0.77384166  0.40639730  1
  S  S159  1  0.12731262  0.67034956  0.46280087  1
  S  S160  1  0.81630418  0.40871765  0.44845883  1
  S  S161  1  0.30603685  0.29069024  0.40941380  1
  S  S162  1  0.75713628  0.13927361  0.43877551  1
  S  S163  1  0.25871195  0.55138134  0.41001562  1
  S  S164  1  0.86288684  0.50945306  0.51002681  1
  S  S165  1  0.19291136  0.02131053  0.41510582  1
  S  S166  1  0.39481212  0.41362016  0.48807086  1
  S  S167  1  0.64910748  0.67267922  0.44092136  1
  S  S168  1  0.28590687  0.30855249  0.56633428  1
  S  S169  1  0.77146785  0.15625471  0.57884934  1
  S  S170  1  0.43600694  0.67295996  0.52139015  1
  S  S171  1  0.34079672  0.84404880  0.55860677  1
  S  S172  1  0.83788870  0.03220970  0.51902218  1
  S  S173  1  0.84989133  0.66767777  0.58886480  1
  S  S174  1  0.32267783  0.52292045  0.56532022  1
  S  S175  1  0.37983313  0.86963554  0.49183977  1
  S  S176  1  0.80888442  0.94651394  0.58054889  1
  S  S177  1  0.73856043  0.40181674  0.58672052  1
  S  S178  1  0.24344987  0.07742365  0.55944869  1
  S  S179  1  0.93719968  0.76590597  0.52209275  1
  S  S180  1  0.28699552  0.59262513  0.70399335  1
  S  S181  1  0.84233567  0.78914568  0.64800993  1
  S  S182  1  0.78951944  0.42641698  0.72215530  1
  S  S183  1  0.34066376  0.94968813  0.63365075  1
  S  S184  1  0.37587372  0.06696508  0.69425173  1
  S  S185  1  0.81901453  0.30922437  0.66182421  1
  S  S186  1  0.87780327  0.95032198  0.73480006  1
  S  S187  1  0.30820482  0.42713172  0.62675286  1
  S  S188  1  0.84397728  0.57658750  0.65057623  1
  S  S189  1  0.30952276  0.80674869  0.70443210  1
  S  S190  1  0.35191411  0.16329006  0.63441238  1
  S  S191  1  0.80626488  0.21263139  0.72207749  1
  S  S192  1  0.74588685  0.68231832  0.72527469  1
  S  S193  1  0.40208623  0.69381109  0.62569531  1
  S  S194  1  0.24623492  0.33470325  0.70109418  1
  S  S195  1  0.91576638  0.04727127  0.66009780  1
  S  S196  1  0.27640196  0.87949303  0.84630897  1
  S  S197  1  0.83676520  0.07077365  0.79471307  1
  S  S198  1  0.78168694  0.70451760  0.85978798  1
  S  S199  1  0.33954855  0.22329063  0.77612245  1
  S  S200  1  0.37414172  0.34700132  0.83535619  1
  S  S201  1  0.81499503  0.58707079  0.79919231  1
  S  S202  1  0.86625854  0.23536601  0.88014218  1
  S  S203  1  0.31978436  0.70848191  0.76447849  1
  S  S204  1  0.84441602  0.85587488  0.79465052  1
  S  S205  1  0.30760382  0.09015518  0.85066427  1
  S  S206  1  0.35133191  0.43710741  0.77462536  1
  S  S207  1  0.81342351  0.49324999  0.85968244  1
  S  S208  1  0.73249221  0.95831555  0.87192434  1
  S  S209  1  0.41437854  0.97415521  0.76809021  1
  S  S210  1  0.24334888  0.62286571  0.83672900  1
  S  S211  1  0.91355702  0.32253041  0.80127535  1
  S  S212  1  0.82751447  0.35563373  0.93983703  1
  S  S213  1  0.76212347  0.97798282  0.00828861  1
  S  S214  1  0.32835260  0.50091386  0.90636014  1
  S  S215  1  0.47428355  0.60443847  0.96272468  1
  S  S216  1  0.78272909  0.86554886  0.94837910  1
  S  S217  1  0.29552257  0.98396161  0.90953592  1
  S  S218  1  0.84424532  0.13541255  0.93875625  1
  S  S219  1  0.34072248  0.72321240  0.90996009  1
  S  S220  1  0.73516708  0.76464321  0.01000255  1
  S  S221  1  0.40676439  0.25267414  0.91534612  1
  S  S222  1  0.20330847  0.86028146  0.98804497  1
  S  S223  1  0.95169041  0.60184325  0.94107521  1
