# generated using pymatgen
data_Li3PS4
_symmetry_space_group_name_H-M   'P 1'
_cell_length_a   6.25995100
_cell_length_b   15.36973200
_cell_length_c   47.65528362
_cell_angle_alpha   90.00000000
_cell_angle_beta   90.00000000
_cell_angle_gamma   90.00000000
_symmetry_Int_Tables_number   1
_chemical_formula_structural   Li3PS4
_chemical_formula_sum   'Li84 P28 S112'
_cell_volume   4585.09445920
_cell_formula_units_Z   28
loop_
 _symmetry_equiv_pos_site_id
 _symmetry_equiv_pos_as_xyz
  1  'x, y, z'
loop_
 _atom_site_type_symbol
 _atom_site_label
 _atom_site_symmetry_multiplicity
 _atom_site_fract_x
 _atom_site_fract_y
 _atom_site_fract_z
 _atom_site_occupancy
  Li  Li0  1  0.09447766  0.66934071  0.07501970  1
  Li  Li1  1  0.31482404  0.27452247  0.00652749  1
  Li  Li2  1  0.61138087  0.52285621  0.06261772  1
  Li  Li3  1  0.59794385  0.39935412  0.12643786  1
  Li  Li4  1  0.40142181  0.14342469  0.08817618  1
  Li  Li5  1  0.77339441  0.64287283  0.98331914  1
  Li  Li6  1  0.07060746  0.01566908  0.04260195  1
  Li  Li7  1  0.45429672  0.74587168  0.11128735  1
  Li  Li8  1  0.05192974  0.39583563  0.04532024  1
  Li  Li9  1  0.99035605  0.26559031  0.10449157  1
  Li  Li10  1  0.51735589  0.90820388  0.03057536  1
  Li  Li11  1  0.87408372  0.88003006  0.12965457  1
  Li  Li12  1  0.12375602  0.37649683  0.22239146  1
  Li  Li13  1  0.37478618  0.01165680  0.14931073  1
  Li  Li14  1  0.59872614  0.24100594  0.20706815  1
  Li  Li15  1  0.61903305  0.11719970  0.26942134  1
  Li  Li16  1  0.41526654  0.85632408  0.23187251  1
  Li  Li17  1  0.12064213  0.50024195  0.15924798  1
  Li  Li18  1  0.90640979  0.76136942  0.19711938  1
  Li  Li19  1  0.55233252  0.50443551  0.24690109  1
  Li  Li20  1  0.94629308  0.14073396  0.17403612  1
  Li  Li21  1  0.05969669  0.99811533  0.24260464  1
  Li  Li22  1  0.52701281  0.62787321  0.18051806  1
  Li  Li23  1  0.90118937  0.60295415  0.28018786  1
  Li  Li24  1  0.12464526  0.09779909  0.37026080  1
  Li  Li25  1  0.37405377  0.73967879  0.29553080  1
  Li  Li26  1  0.59637402  0.96592097  0.35240495  1
  Li  Li27  1  0.61819775  0.83269510  0.41116167  1
  Li  Li28  1  0.43495409  0.57403785  0.37516014  1
  Li  Li29  1  0.08509493  0.21496018  0.30422736  1
  Li  Li30  1  0.88872918  0.47531305  0.34131470  1
  Li  Li31  1  0.55592987  0.23098409  0.38892262  1
  Li  Li32  1  0.93870954  0.87169393  0.31613123  1
  Li  Li33  1  0.07144365  0.72083979  0.38883755  1
  Li  Li34  1  0.44097500  0.35471160  0.31607565  1
  Li  Li35  1  0.91797858  0.30340114  0.42532317  1
  Li  Li36  1  0.39154273  0.45156769  0.44076022  1
  Li  Li37  1  0.72239253  0.70181805  0.49032803  1
  Li  Li38  1  0.95403739  0.95026445  0.45509247  1
  Li  Li39  1  0.27462852  0.32813070  0.51744725  1
  Li  Li40  1  0.94216587  0.57811828  0.44987566  1
  Li  Li41  1  0.52530887  0.06510034  0.47239052  1
  Li  Li42  1  0.94883102  0.80607432  0.57497376  1
  Li  Li43  1  0.73485256  0.20124618  0.50759433  1
  Li  Li44  1  0.43210522  0.95126741  0.56182941  1
  Li  Li45  1  0.45391329  0.07377706  0.62656433  1
  Li  Li46  1  0.65121525  0.33260465  0.58816490  1
  Li  Li47  1  0.27807338  0.83251693  0.48328176  1
  Li  Li48  1  0.97553185  0.46063540  0.54213764  1
  Li  Li49  1  0.58828337  0.72699054  0.61030761  1
  Li  Li50  1  0.99378188  0.07873719  0.54611938  1
  Li  Li51  1  0.06846732  0.21069054  0.60633529  1
  Li  Li52  1  0.52800294  0.56706038  0.52977019  1
  Li  Li53  1  0.17248803  0.59256505  0.62963535  1
  Li  Li54  1  0.92484672  0.09678586  0.72315732  1
  Li  Li55  1  0.67305358  0.46244119  0.64981751  1
  Li  Li56  1  0.44505152  0.23331643  0.70738777  1
  Li  Li57  1  0.43155455  0.35753530  0.76999219  1
  Li  Li58  1  0.64163111  0.61791032  0.73175173  1
  Li  Li59  1  0.94476289  0.97810035  0.65949806  1
  Li  Li60  1  0.15899027  0.71662725  0.69809629  1
  Li  Li61  1  0.48482611  0.96767069  0.74540574  1
  Li  Li62  1  0.09291104  0.33609078  0.67507321  1
  Li  Li63  1  0.99156124  0.47822750  0.74348567  1
  Li  Li64  1  0.58375314  0.84178098  0.67354853  1
  Li  Li65  1  0.13868310  0.87370568  0.78085986  1
  Li  Li66  1  0.92798188  0.37791509  0.87036331  1
  Li  Li67  1  0.67184920  0.73500205  0.79522321  1
  Li  Li68  1  0.45396856  0.50860918  0.85267598  1
  Li  Li69  1  0.43503204  0.64264330  0.91086868  1
  Li  Li70  1  0.61694852  0.90046851  0.87509699  1
  Li  Li71  1  0.96593267  0.26021729  0.80466503  1
  Li  Li72  1  0.16514432  0.00071155  0.84212181  1
  Li  Li73  1  0.49266399  0.24386944  0.88938370  1
  Li  Li74  1  0.10820673  0.60483117  0.81616863  1
  Li  Li75  1  0.98148330  0.75479486  0.88889887  1
  Li  Li76  1  0.61118613  0.12077030  0.81618714  1
  Li  Li77  1  0.13030330  0.17219990  0.92560977  1
  Li  Li78  1  0.65452641  0.02233207  0.94078471  1
  Li  Li79  1  0.32864435  0.77287672  0.99004697  1
  Li  Li80  1  0.09777507  0.52721734  0.95477891  1
  Li  Li81  1  0.77361453  0.14798094  0.01634045  1
  Li  Li82  1  0.10702992  0.89629503  0.95024036  1
  Li  Li83  1  0.52843820  0.41238364  0.97252763  1
  P  P84  1  0.21278763  0.89785397  0.08477003  1
  P  P85  1  0.62101952  0.28492711  0.05594673  1
  P  P86  1  0.29097093  0.53307181  0.01478765  1
  P  P87  1  0.16353749  0.62271713  0.22767960  1
  P  P88  1  0.85368906  0.63304105  0.12928539  1
  P  P89  1  0.65711408  0.99360463  0.20071416  1
  P  P90  1  0.33465266  0.26019724  0.15490709  1
  P  P91  1  0.15640305  0.34379524  0.37194556  1
  P  P92  1  0.84330319  0.35489501  0.27352610  1
  P  P93  1  0.67154055  0.71720449  0.34532718  1
  P  P94  1  0.34275453  0.98458536  0.29957861  1
  P  P95  1  0.79462988  0.07654440  0.41607542  1
  P  P96  1  0.74221095  0.44376425  0.48581843  1
  P  P97  1  0.39851682  0.69163294  0.44436760  1
  P  P98  1  0.83332250  0.57714978  0.58444022  1
  P  P99  1  0.42742020  0.19038355  0.55645086  1
  P  P100  1  0.75773893  0.94251888  0.51473727  1
  P  P101  1  0.88743420  0.85217889  0.72775902  1
  P  P102  1  0.19621679  0.84051041  0.62957323  1
  P  P103  1  0.39340612  0.48057713  0.70128735  1
  P  P104  1  0.71314972  0.21404343  0.65527238  1
  P  P105  1  0.89366336  0.13164566  0.87232252  1
  P  P106  1  0.20713138  0.12053420  0.77397583  1
  P  P107  1  0.37700251  0.75804640  0.84531679  1
  P  P108  1  0.70696745  0.49025514  0.79977137  1
  P  P109  1  0.25580392  0.39889835  0.91632605  1
  P  P110  1  0.30621009  0.03095453  0.98604647  1
  P  P111  1  0.65235788  0.78316608  0.94426337  1
  S  S112  1  0.39587792  0.99913720  0.06966125  1
  S  S113  1  0.76223550  0.17290088  0.07047539  1
  S  S114  1  0.15296518  0.63440573  0.99372326  1
  S  S115  1  0.22511449  0.53187039  0.05697098  1
  S  S116  1  0.69745954  0.29849255  0.01426064  1
  S  S117  1  0.72703599  0.64846080  0.08996625  1
  S  S118  1  0.26437837  0.87693881  0.12695330  1
  S  S119  1  0.32430596  0.79051378  0.06308433  1
  S  S120  1  0.16076026  0.42339359  0.99639411  1
  S  S121  1  0.75765022  0.38538239  0.07911762  1
  S  S122  1  0.89609780  0.92427319  0.07889665  1
  S  S123  1  0.29682680  0.27434742  0.06056328  1
  S  S124  1  0.61753331  0.53081355  0.01056723  1
  S  S125  1  0.28203995  0.72816854  0.20617438  1
  S  S126  1  0.73969777  0.52701738  0.15122534  1
  S  S127  1  0.79008579  0.89169656  0.22251051  1
  S  S128  1  0.21850240  0.36695926  0.13391743  1
  S  S129  1  0.22013896  0.24584007  0.19495230  1
  S  S130  1  0.76054210  0.00653947  0.15996073  1
  S  S131  1  0.73899370  0.36856247  0.23271310  1
  S  S132  1  0.28027464  0.60880302  0.26762919  1
  S  S133  1  0.73831434  0.74076905  0.15119991  1
  S  S134  1  0.28251333  0.51502700  0.20595712  1
  S  S135  1  0.21390986  0.15337203  0.13296805  1
  S  S136  1  0.77162936  0.10403307  0.22148511  1
  S  S137  1  0.83683819  0.63335554  0.22913778  1
  S  S138  1  0.17835581  0.62200709  0.12668114  1
  S  S139  1  0.33215836  0.98007146  0.20017303  1
  S  S140  1  0.66206635  0.26859871  0.15585145  1
  S  S141  1  0.26910711  0.45099956  0.35042454  1
  S  S142  1  0.71126428  0.25217212  0.29485531  1
  S  S143  1  0.81072626  0.61364506  0.36541949  1
  S  S144  1  0.23512970  0.09193284  0.27777229  1
  S  S145  1  0.21670447  0.97058871  0.33898203  1
  S  S146  1  0.76193641  0.73160912  0.30403878  1
  S  S147  1  0.73201735  0.09753589  0.37414373  1
  S  S148  1  0.28633262  0.32717900  0.41107660  1
  S  S149  1  0.72810664  0.46497235  0.29429581  1
  S  S150  1  0.26667545  0.23670958  0.34940128  1
  S  S151  1  0.22811279  0.87787883  0.27703720  1
  S  S152  1  0.78859782  0.82741521  0.36567127  1
  S  S153  1  0.83204374  0.35502585  0.37477254  1
  S  S154  1  0.16823529  0.34166586  0.27267223  1
  S  S155  1  0.34584522  0.70364261  0.34620156  1
  S  S156  1  0.66865851  0.99415878  0.30178326  1
  S  S157  1  0.61540307  0.97466641  0.43170803  1
  S  S158  1  0.89033174  0.34450600  0.50692521  1
  S  S159  1  0.25562604  0.80327803  0.42940980  1
  S  S160  1  0.33943172  0.68151049  0.48651095  1
  S  S161  1  0.78123603  0.43902270  0.44311134  1
  S  S162  1  0.68772648  0.18378732  0.43833310  1
  S  S163  1  0.26295903  0.58976269  0.42188831  1
  S  S164  1  0.88389772  0.55562214  0.50107641  1
  S  S165  1  0.11233252  0.05105654  0.42047896  1
  S  S166  1  0.41861979  0.44844397  0.49311863  1
  S  S167  1  0.72068613  0.70309344  0.43766377  1
  S  S168  1  0.64961022  0.47642621  0.56913849  1
  S  S169  1  0.28711650  0.30240958  0.57119449  1
  S  S170  1  0.89649261  0.84132651  0.49370377  1
  S  S171  1  0.81905616  0.94329797  0.55707174  1
  S  S172  1  0.35181374  0.17789175  0.51470770  1
  S  S173  1  0.31491430  0.82607662  0.58975455  1
  S  S174  1  0.78150461  0.59753175  0.62663853  1
  S  S175  1  0.72233425  0.68482279  0.56277836  1
  S  S176  1  0.89016854  0.05251838  0.49681826  1
  S  S177  1  0.29111186  0.08932952  0.57940421  1
  S  S178  1  0.14987167  0.55058803  0.57859320  1
  S  S179  1  0.75162535  0.20077020  0.56118374  1
  S  S180  1  0.43145597  0.94564576  0.51008263  1
  S  S181  1  0.77786577  0.74513514  0.70605859  1
  S  S182  1  0.31919740  0.94481414  0.65137332  1
  S  S183  1  0.26429050  0.58324810  0.72300714  1
  S  S184  1  0.83192589  0.10804307  0.63406136  1
  S  S185  1  0.82566663  0.22780965  0.69538532  1
  S  S186  1  0.28798300  0.46751869  0.66055600  1
  S  S187  1  0.30951741  0.10663872  0.73303804  1
  S  S188  1  0.76071596  0.86640309  0.76715865  1
  S  S189  1  0.31195017  0.73183213  0.65074032  1
  S  S190  1  0.77122360  0.95894196  0.70530808  1
  S  S191  1  0.83338778  0.32146631  0.63350475  1
  S  S192  1  0.27661491  0.37071532  0.72210831  1
  S  S193  1  0.21297174  0.84241280  0.73024627  1
  S  S194  1  0.86975405  0.85367993  0.62755213  1
  S  S195  1  0.71891599  0.49257914  0.70045518  1
  S  S196  1  0.38589036  0.20474710  0.65601003  1
  S  S197  1  0.78293346  0.02446631  0.85061502  1
  S  S198  1  0.34009086  0.22322786  0.79519241  1
  S  S199  1  0.23990274  0.86148977  0.86571964  1
  S  S200  1  0.81483919  0.38281915  0.77808681  1
  S  S201  1  0.83338492  0.50456911  0.83913202  1
  S  S202  1  0.28403030  0.74463057  0.80409586  1
  S  S203  1  0.31877778  0.37724770  0.87441216  1
  S  S204  1  0.76211770  0.14749352  0.91139959  1
  S  S205  1  0.32064000  0.01045034  0.79464932  1
  S  S206  1  0.78394971  0.23884696  0.84984107  1
  S  S207  1  0.82190769  0.59692643  0.77716649  1
  S  S208  1  0.26039032  0.64775500  0.86563233  1
  S  S209  1  0.21811711  0.12095062  0.87533767  1
  S  S210  1  0.88220406  0.13438961  0.77307736  1
  S  S211  1  0.70276236  0.77116216  0.84590243  1
  S  S212  1  0.38125843  0.48113586  0.80204822  1
  S  S213  1  0.43614220  0.50093167  0.93162895  1
  S  S214  1  0.15994865  0.13077009  0.00711139  1
  S  S215  1  0.79568993  0.67153084  0.92929908  1
  S  S216  1  0.71118177  0.79384176  0.98633018  1
  S  S217  1  0.26645280  0.03588772  0.94336730  1
  S  S218  1  0.36175775  0.29167331  0.93869665  1
  S  S219  1  0.78780240  0.88509413  0.92177858  1
  S  S220  1  0.16505817  0.91925412  0.00144467  1
  S  S221  1  0.93834075  0.42487563  0.92063347  1
  S  S222  1  0.62994200  0.02561421  0.99326950  1
  S  S223  1  0.33014982  0.77152700  0.93755988  1
