# generated using pymatgen
data_Li3PS4
_symmetry_space_group_name_H-M   'P 1'
_cell_length_a   6.25995100
_cell_length_b   15.36973200
_cell_length_c   47.67739638
_cell_angle_alpha   90.00000000
_cell_angle_beta   90.00000000
_cell_angle_gamma   90.00000000
_symmetry_Int_Tables_number   1
_chemical_formula_structural   Li3PS4
_chemical_formula_sum   'Li84 P28 S112'
_cell_volume   4587.22201142
_cell_formula_units_Z   28
loop_
 _symmetry_equiv_pos_site_id
 _symmetry_equiv_pos_as_xyz
  1  'x, y, z'
loop_
 _atom_site_type_symbol
 _atom_site_label
 _atom_site_symmetry_multiplicity
 _atom_site_fract_x
 _atom_site_fract_y
 _atom_site_fract_z
 _atom_site_occupancy
  Li  Li0  1  0.08301810  0.67051512  0.07470862  1
  Li  Li1  1  0.29019005  0.27232483  0.00842652  1
  Li  Li2  1  0.60971989  0.52224858  0.06072576  1
  Li  Li3  1  0.59465366  0.39830293  0.12618320  1
  Li  Li4  1  0.39585692  0.13941371  0.08901323  1
  Li  Li5  1  0.74165437  0.64446965  0.98329883  1
  Li  Li6  1  0.05538400  0.02067644  0.04389412  1
  Li  Li7  1  0.44425503  0.74431562  0.11122094  1
  Li  Li8  1  0.05866733  0.39540814  0.04815534  1
  Li  Li9  1  0.98672561  0.26205240  0.10459590  1
  Li  Li10  1  0.48895105  0.90842455  0.02782292  1
  Li  Li11  1  0.87204266  0.87897653  0.12963291  1
  Li  Li12  1  0.10592126  0.37489869  0.22139856  1
  Li  Li13  1  0.37070886  0.00901742  0.15009602  1
  Li  Li14  1  0.59209252  0.23833839  0.20762535  1
  Li  Li15  1  0.61517924  0.11517370  0.26948031  1
  Li  Li16  1  0.41180346  0.85376207  0.23208850  1
  Li  Li17  1  0.12233228  0.50064141  0.15853562  1
  Li  Li18  1  0.91357999  0.76176399  0.19627190  1
  Li  Li19  1  0.49750798  0.48766152  0.25014142  1
  Li  Li20  1  0.94116500  0.13950758  0.17412981  1
  Li  Li21  1  0.05874810  0.99446790  0.24294665  1
  Li  Li22  1  0.55607385  0.62338435  0.18371375  1
  Li  Li23  1  0.88378641  0.60111498  0.27889460  1
  Li  Li24  1  0.11665995  0.09473348  0.37043798  1
  Li  Li25  1  0.36953315  0.73788341  0.29546814  1
  Li  Li26  1  0.59162733  0.96528010  0.35278919  1
  Li  Li27  1  0.59915819  0.83180329  0.41120069  1
  Li  Li28  1  0.42165150  0.57291622  0.37493314  1
  Li  Li29  1  0.08340056  0.21347949  0.30376996  1
  Li  Li30  1  0.87792990  0.47563087  0.34147551  1
  Li  Li31  1  0.54350704  0.23159447  0.38879552  1
  Li  Li32  1  0.93363836  0.86946351  0.31638341  1
  Li  Li33  1  0.06085138  0.71822986  0.38885772  1
  Li  Li34  1  0.43852708  0.35064684  0.31684082  1
  Li  Li35  1  0.90278652  0.30506247  0.42516106  1
  Li  Li36  1  0.38385320  0.45333588  0.43905294  1
  Li  Li37  1  0.69182582  0.70161526  0.49081797  1
  Li  Li38  1  0.92490913  0.95593799  0.45633386  1
  Li  Li39  1  0.23621373  0.33134584  0.51693033  1
  Li  Li40  1  0.93211474  0.57914321  0.45180679  1
  Li  Li41  1  0.48450735  0.06543962  0.47039433  1
  Li  Li42  1  0.88999087  0.80553549  0.57489181  1
  Li  Li43  1  0.68522160  0.20319868  0.50834456  1
  Li  Li44  1  0.37028818  0.95241349  0.56023031  1
  Li  Li45  1  0.38252333  0.07720148  0.62655327  1
  Li  Li46  1  0.58298901  0.33395157  0.58895537  1
  Li  Li47  1  0.23860328  0.83020145  0.48277372  1
  Li  Li48  1  0.91735677  0.45549993  0.54429594  1
  Li  Li49  1  0.52841736  0.73089398  0.61115991  1
  Li  Li50  1  0.92398024  0.08054475  0.54737141  1
  Li  Li51  1  0.99667052  0.21203863  0.60560469  1
  Li  Li52  1  0.48667966  0.56684745  0.52845190  1
  Li  Li53  1  0.10360592  0.59529432  0.62994087  1
  Li  Li54  1  0.85452381  0.10028757  0.72273817  1
  Li  Li55  1  0.60513570  0.46573457  0.65020866  1
  Li  Li56  1  0.37748848  0.23693761  0.70776805  1
  Li  Li57  1  0.36233386  0.36123811  0.76979378  1
  Li  Li58  1  0.56695168  0.62208596  0.73246190  1
  Li  Li59  1  0.85934264  0.97522676  0.65891554  1
  Li  Li60  1  0.06868694  0.71418861  0.69650620  1
  Li  Li61  1  0.42754215  0.97297108  0.74689124  1
  Li  Li62  1  0.02481341  0.33840533  0.67516867  1
  Li  Li63  1  0.92055517  0.48208526  0.74354061  1
  Li  Li64  1  0.43295904  0.84971981  0.68237840  1
  Li  Li65  1  0.07839733  0.87310855  0.78012462  1
  Li  Li66  1  0.86061319  0.37814584  0.87049101  1
  Li  Li67  1  0.60383388  0.73729865  0.79573028  1
  Li  Li68  1  0.38737833  0.51009922  0.85335272  1
  Li  Li69  1  0.37458802  0.64340483  0.91168573  1
  Li  Li70  1  0.55413989  0.90129659  0.87560768  1
  Li  Li71  1  0.89876269  0.26230948  0.80438761  1
  Li  Li72  1  0.09717006  0.99949463  0.84131968  1
  Li  Li73  1  0.42955207  0.24324090  0.88870870  1
  Li  Li74  1  0.04098307  0.60591209  0.81733254  1
  Li  Li75  1  0.91593498  0.75562332  0.88906224  1
  Li  Li76  1  0.54290611  0.12170300  0.81571406  1
  Li  Li77  1  0.06986261  0.17143366  0.92515996  1
  Li  Li78  1  0.59161885  0.02219680  0.93896419  1
  Li  Li79  1  0.28248762  0.77320893  0.99161326  1
  Li  Li80  1  0.04836894  0.51838735  0.95647023  1
  Li  Li81  1  0.73900829  0.14378464  0.01619734  1
  Li  Li82  1  0.04329999  0.89567365  0.95216341  1
  Li  Li83  1  0.48824212  0.40973304  0.97061544  1
  P  P84  1  0.20617994  0.89788870  0.08422870  1
  P  P85  1  0.84780497  0.63193011  0.12875965  1
  P  P86  1  0.60996565  0.28232504  0.05595302  1
  P  P87  1  0.26871055  0.53114891  0.01438517  1
  P  P88  1  0.15790212  0.62164004  0.22709957  1
  P  P89  1  0.83570570  0.35295541  0.27353474  1
  P  P90  1  0.65434736  0.99153056  0.20110802  1
  P  P91  1  0.33021137  0.25883020  0.15508982  1
  P  P92  1  0.14329836  0.34299035  0.37169675  1
  P  P93  1  0.77877861  0.07758138  0.41570363  1
  P  P94  1  0.66251254  0.71567099  0.34537662  1
  P  P95  1  0.33903700  0.98252196  0.29973726  1
  P  P96  1  0.71344532  0.44380670  0.48572594  1
  P  P97  1  0.37755636  0.69104478  0.44401940  1
  P  P98  1  0.76743329  0.57770468  0.58462416  1
  P  P99  1  0.12769961  0.84381767  0.62881672  1
  P  P100  1  0.36787716  0.19199838  0.55620848  1
  P  P101  1  0.70896702  0.94406693  0.51410644  1
  P  P102  1  0.81538303  0.85393251  0.72729480  1
  P  P103  1  0.13843294  0.12208239  0.77339361  1
  P  P104  1  0.32233069  0.48426780  0.70144830  1
  P  P105  1  0.64399007  0.21680550  0.65537382  1
  P  P106  1  0.83035802  0.13169911  0.87169023  1
  P  P107  1  0.19621543  0.39751463  0.91582945  1
  P  P108  1  0.31237825  0.75915947  0.84584017  1
  P  P109  1  0.63848741  0.49296464  0.80015430  1
  P  P110  1  0.26065304  0.03190659  0.98534029  1
  P  P111  1  0.59713620  0.78342261  0.94453363  1
  S  S112  1  0.38864722  0.99853370  0.06850820  1
  S  S113  1  0.75342094  0.17085861  0.07060796  1
  S  S114  1  0.12474302  0.63085230  0.99316074  1
  S  S115  1  0.22011770  0.53388480  0.05695941  1
  S  S116  1  0.67266478  0.29477139  0.01403751  1
  S  S117  1  0.71550527  0.64714703  0.08973433  1
  S  S118  1  0.26368199  0.87668050  0.12627208  1
  S  S119  1  0.31315652  0.79027173  0.06227612  1
  S  S120  1  0.13140219  0.42000623  0.99791796  1
  S  S121  1  0.74753997  0.38380423  0.07861027  1
  S  S122  1  0.88928847  0.92468536  0.07932857  1
  S  S123  1  0.17191308  0.62139359  0.12553545  1
  S  S124  1  0.28584366  0.27031758  0.06167604  1
  S  S125  1  0.59354619  0.52650439  0.00830752  1
  S  S126  1  0.28636925  0.72535138  0.20584595  1
  S  S127  1  0.73935099  0.52510778  0.15086868  1
  S  S128  1  0.78694264  0.88919838  0.22267621  1
  S  S129  1  0.21438480  0.36507051  0.13388476  1
  S  S130  1  0.21454359  0.24466623  0.19509801  1
  S  S131  1  0.75672408  0.00457596  0.16032948  1
  S  S132  1  0.72577162  0.36632278  0.23302502  1
  S  S133  1  0.26596396  0.60778909  0.26756952  1
  S  S134  1  0.73506531  0.73921916  0.15100666  1
  S  S135  1  0.27518889  0.51238996  0.20599842  1
  S  S136  1  0.20952916  0.15112149  0.13351426  1
  S  S137  1  0.76905189  0.10201378  0.22179410  1
  S  S138  1  0.83199899  0.63388692  0.22809133  1
  S  S139  1  0.16165665  0.34133909  0.27209777  1
  S  S140  1  0.32907351  0.97813873  0.20064308  1
  S  S141  1  0.65740600  0.26742202  0.15623691  1
  S  S142  1  0.25742596  0.44947861  0.34994227  1
  S  S143  1  0.70914233  0.24952896  0.29505364  1
  S  S144  1  0.79858967  0.61204802  0.36576403  1
  S  S145  1  0.23144449  0.08970557  0.27782281  1
  S  S146  1  0.21221470  0.96829188  0.33909532  1
  S  S147  1  0.75619902  0.72980299  0.30421877  1
  S  S148  1  0.72456795  0.09852564  0.37361177  1
  S  S149  1  0.27153608  0.32735942  0.41089904  1
  S  S150  1  0.71859637  0.46237464  0.29444689  1
  S  S151  1  0.25493643  0.23525922  0.34950524  1
  S  S152  1  0.22404614  0.87592693  0.27719679  1
  S  S153  1  0.77877735  0.82549855  0.36592646  1
  S  S154  1  0.81896801  0.35440968  0.37434412  1
  S  S155  1  0.09560204  0.05084601  0.42113592  1
  S  S156  1  0.33667206  0.70243078  0.34590261  1
  S  S157  1  0.66463721  0.99228042  0.30200516  1
  S  S158  1  0.59518740  0.97591306  0.43054335  1
  S  S159  1  0.85435079  0.34367256  0.50715847  1
  S  S160  1  0.23656494  0.80315486  0.42920537  1
  S  S161  1  0.30865381  0.67985354  0.48595212  1
  S  S162  1  0.76924747  0.44105414  0.44333271  1
  S  S163  1  0.67016047  0.18495818  0.43764147  1
  S  S164  1  0.24251097  0.58989777  0.42114361  1
  S  S165  1  0.84897690  0.55480602  0.50248559  1
  S  S166  1  0.38803559  0.44740084  0.49118425  1
  S  S167  1  0.70009305  0.70170864  0.43808744  1
  S  S168  1  0.58517227  0.47664857  0.56909271  1
  S  S169  1  0.22438011  0.30332170  0.57100904  1
  S  S170  1  0.85390975  0.84391805  0.49317209  1
  S  S171  1  0.75848202  0.94239740  0.55665270  1
  S  S172  1  0.30294157  0.18016423  0.51430130  1
  S  S173  1  0.25830395  0.82879627  0.58969993  1
  S  S174  1  0.71135759  0.59892594  0.62668650  1
  S  S175  1  0.65945693  0.68501978  0.56259736  1
  S  S176  1  0.84400874  0.05533254  0.49741036  1
  S  S177  1  0.23075408  0.09025221  0.57872523  1
  S  S178  1  0.08438336  0.55117224  0.57953289  1
  S  S179  1  0.80352733  0.85452369  0.62585682  1
  S  S180  1  0.69201690  0.20382918  0.56171112  1
  S  S181  1  0.38377517  0.94784081  0.50809894  1
  S  S182  1  0.69496908  0.74892719  0.70581029  1
  S  S183  1  0.23916738  0.94984379  0.65105539  1
  S  S184  1  0.19105818  0.58699628  0.72299061  1
  S  S185  1  0.76184362  0.11049972  0.63432075  1
  S  S186  1  0.75636256  0.23103772  0.69552463  1
  S  S187  1  0.21876568  0.47063455  0.66074235  1
  S  S188  1  0.24040376  0.10799899  0.73252350  1
  S  S189  1  0.69998382  0.86748360  0.76732567  1
  S  S190  1  0.24105490  0.73606613  0.65090232  1
  S  S191  1  0.69709045  0.96194249  0.70578259  1
  S  S192  1  0.76605294  0.32421991  0.63377275  1
  S  S193  1  0.20633892  0.37426239  0.72227863  1
  S  S194  1  0.14271163  0.84270785  0.72883454  1
  S  S195  1  0.81351066  0.13635934  0.77277241  1
  S  S196  1  0.64753465  0.49716672  0.70090203  1
  S  S197  1  0.31671454  0.20829887  0.65612778  1
  S  S198  1  0.71669127  0.02469705  0.85013138  1
  S  S199  1  0.27305426  0.22454426  0.79452658  1
  S  S200  1  0.17675761  0.86296130  0.86611916  1
  S  S201  1  0.74612777  0.38593026  0.77821776  1
  S  S202  1  0.76566332  0.50609868  0.83955616  1
  S  S203  1  0.21809205  0.74527070  0.80467112  1
  S  S204  1  0.25211388  0.37673657  0.87375192  1
  S  S205  1  0.70170651  0.14776318  0.91085624  1
  S  S206  1  0.25283104  0.01159336  0.79400832  1
  S  S207  1  0.71891525  0.23919637  0.84944529  1
  S  S208  1  0.75357358  0.59983275  0.77767867  1
  S  S209  1  0.19624653  0.64923971  0.86637823  1
  S  S210  1  0.15463204  0.12040798  0.87436106  1
  S  S211  1  0.87908543  0.42374118  0.92108852  1
  S  S212  1  0.63827998  0.77170502  0.84626881  1
  S  S213  1  0.31285906  0.48364828  0.80245155  1
  S  S214  1  0.37881950  0.49925167  0.93080438  1
  S  S215  1  0.12025205  0.13240804  0.00663166  1
  S  S216  1  0.73778581  0.67128570  0.92970479  1
  S  S217  1  0.66565816  0.79444989  0.98652119  1
  S  S218  1  0.20491804  0.03422904  0.94296562  1
  S  S219  1  0.30442555  0.29025347  0.93782382  1
  S  S220  1  0.73302747  0.88440059  0.92165253  1
  S  S221  1  0.12477535  0.92126476  0.00234740  1
  S  S222  1  0.58608914  0.02764156  0.99087985  1
  S  S223  1  0.27463908  0.77318141  0.93855866  1
