# generated using pymatgen
data_Li3PS4
_symmetry_space_group_name_H-M   'P 1'
_cell_length_a   6.25995100
_cell_length_b   20.81799400
_cell_length_c   51.17362498
_cell_angle_alpha   90.00000000
_cell_angle_beta   90.00000000
_cell_angle_gamma   90.00000000
_symmetry_Int_Tables_number   1
_chemical_formula_structural   Li3PS4
_chemical_formula_sum   'Li120 P40 S160'
_cell_volume   6668.92748178
_cell_formula_units_Z   40
loop_
 _symmetry_equiv_pos_site_id
 _symmetry_equiv_pos_as_xyz
  1  'x, y, z'
loop_
 _atom_site_type_symbol
 _atom_site_label
 _atom_site_symmetry_multiplicity
 _atom_site_fract_x
 _atom_site_fract_y
 _atom_site_fract_z
 _atom_site_occupancy
  Li  Li0  1  0.89820320  0.75584636  0.08754731  1
  Li  Li1  1  0.08354355  0.34733863  0.11349006  1
  Li  Li2  1  0.12898162  0.61717693  0.00801281  1
  Li  Li3  1  0.36708061  0.14181023  0.01559346  1
  Li  Li4  1  0.38856326  0.84169438  0.11642294  1
  Li  Li5  1  0.57458586  0.25560370  0.08941230  1
  Li  Li6  1  0.65917955  0.42106542  0.03464919  1
  Li  Li7  1  0.63451245  0.12104736  0.13124595  1
  Li  Li8  1  0.40325012  0.97079291  0.07100032  1
  Li  Li9  1  0.15708341  0.47633678  0.06876441  1
  Li  Li10  1  0.92883555  0.62738791  0.13014670  1
  Li  Li11  1  0.92641321  0.93211796  0.03909294  1
  Li  Li12  1  0.44422968  0.37989071  0.15343865  1
  Li  Li13  1  0.45606881  0.68212098  0.05296119  1
  Li  Li14  1  0.94314649  0.21692825  0.04851839  1
  Li  Li15  1  0.94790979  0.91243626  0.14818635  1
  Li  Li16  1  0.06247102  0.06141836  0.09628248  1
  Li  Li17  1  0.58007001  0.53887546  0.10606217  1
  Li  Li18  1  0.58411458  0.82481898  0.01053474  1
  Li  Li19  1  0.90651801  0.14830400  0.28804014  1
  Li  Li20  1  0.88585136  0.45273912  0.18545290  1
  Li  Li21  1  0.13553392  0.73256468  0.31431747  1
  Li  Li22  1  0.12059538  0.03615857  0.21442292  1
  Li  Li23  1  0.41580859  0.53807280  0.21222469  1
  Li  Li24  1  0.41660570  0.23659801  0.31193229  1
  Li  Li25  1  0.59677764  0.95004750  0.18852187  1
  Li  Li26  1  0.62654372  0.64895686  0.28558809  1
  Li  Li27  1  0.62423059  0.81794494  0.23006480  1
  Li  Li28  1  0.59084792  0.52191135  0.32913590  1
  Li  Li29  1  0.42383331  0.66597928  0.17125620  1
  Li  Li30  1  0.37821565  0.36909295  0.26920322  1
  Li  Li31  1  0.09775442  0.86179935  0.26963857  1
  Li  Li32  1  0.13074576  0.17146071  0.17034277  1
  Li  Li33  1  0.88056401  0.01387211  0.33045362  1
  Li  Li34  1  0.90326370  0.32129117  0.23064506  1
  Li  Li35  1  0.57363530  0.80723179  0.34590636  1
  Li  Li36  1  0.54618945  0.10277774  0.24916786  1
  Li  Li37  1  0.05514321  0.58125775  0.25172694  1
  Li  Li38  1  0.06368087  0.27434873  0.35238632  1
  Li  Li39  1  0.05613283  0.75040487  0.19621698  1
  Li  Li40  1  0.93932772  0.43112710  0.30480146  1
  Li  Li41  1  0.44391634  0.95099926  0.29358490  1
  Li  Li42  1  0.54988663  0.23786257  0.20474448  1
  Li  Li43  1  0.89719751  0.54436868  0.48678327  1
  Li  Li44  1  0.92741891  0.84393734  0.38704510  1
  Li  Li45  1  0.11254669  0.43223054  0.41160095  1
  Li  Li46  1  0.43154028  0.93416741  0.40970369  1
  Li  Li47  1  0.62694464  0.34664857  0.38309516  1
  Li  Li48  1  0.65811299  0.04307486  0.48476751  1
  Li  Li49  1  0.56068802  0.22062528  0.42727195  1
  Li  Li50  1  0.38528794  0.06576795  0.36962624  1
  Li  Li51  1  0.39346950  0.76930217  0.46639805  1
  Li  Li52  1  0.89901520  0.18856260  0.46984284  1
  Li  Li53  1  0.09159487  0.55919572  0.36938823  1
  Li  Li54  1  0.88481172  0.71213066  0.42957548  1
  Li  Li55  1  0.57103080  0.50365221  0.44500436  1
  Li  Li56  1  0.08535983  0.96727196  0.45302827  1
  Li  Li57  1  0.95502663  0.12890238  0.40555737  1
  Li  Li58  1  0.40069658  0.37441635  0.48270180  1
  Li  Li59  1  0.44288555  0.65056522  0.39391665  1
  Li  Li60  1  0.14771719  0.69369636  0.58754967  1
  Li  Li61  1  0.96165334  0.10279827  0.61343527  1
  Li  Li62  1  0.91791467  0.83330288  0.50730960  1
  Li  Li63  1  0.68424520  0.30940548  0.51530735  1
  Li  Li64  1  0.65320969  0.60732721  0.61588660  1
  Li  Li65  1  0.47581122  0.19482678  0.58913537  1
  Li  Li66  1  0.39033270  0.02860481  0.53505813  1
  Li  Li67  1  0.41579087  0.32893528  0.63132625  1
  Li  Li68  1  0.64462258  0.47927959  0.57116174  1
  Li  Li69  1  0.89270502  0.97267691  0.56865687  1
  Li  Li70  1  0.12634515  0.82242485  0.63023028  1
  Li  Li71  1  0.12081309  0.51740386  0.53932121  1
  Li  Li72  1  0.59797298  0.06757631  0.65278060  1
  Li  Li73  1  0.59501146  0.76702106  0.55248048  1
  Li  Li74  1  0.11127299  0.23316751  0.54847316  1
  Li  Li75  1  0.08370225  0.54177109  0.64919774  1
  Li  Li76  1  0.98653309  0.39000644  0.59637176  1
  Li  Li77  1  0.47100173  0.90910460  0.60584548  1
  Li  Li78  1  0.45886943  0.62589447  0.51044166  1
  Li  Li79  1  0.13987917  0.30197928  0.78766391  1
  Li  Li80  1  0.15875121  0.99667082  0.68571398  1
  Li  Li81  1  0.91416366  0.71702400  0.81422743  1
  Li  Li82  1  0.92608847  0.41384451  0.71443542  1
  Li  Li83  1  0.63075320  0.91215122  0.71197610  1
  Li  Li84  1  0.63774686  0.21625288  0.81234429  1
  Li  Li85  1  0.44502706  0.49985499  0.68771495  1
  Li  Li86  1  0.40999373  0.79967518  0.78522479  1
  Li  Li87  1  0.45305168  0.62721101  0.72980675  1
  Li  Li88  1  0.45697565  0.92859040  0.82925498  1
  Li  Li89  1  0.65258915  0.77911678  0.67051216  1
  Li  Li90  1  0.66661441  0.08162684  0.76938279  1
  Li  Li91  1  0.95922089  0.58799196  0.76992438  1
  Li  Li92  1  0.92210621  0.27859799  0.67014915  1
  Li  Li93  1  0.16876615  0.43618830  0.83010930  1
  Li  Li94  1  0.14854440  0.12833160  0.73037214  1
  Li  Li95  1  0.47258641  0.64164094  0.84554281  1
  Li  Li96  1  0.49625091  0.34455435  0.74858079  1
  Li  Li97  1  0.98007161  0.87250093  0.75274024  1
  Li  Li98  1  0.98590322  0.17612328  0.85293803  1
  Li  Li99  1  0.08387192  0.71252921  0.70434300  1
  Li  Li100  1  0.10493733  0.01936815  0.80497969  1
  Li  Li101  1  0.60791503  0.49719112  0.79373157  1
  Li  Li102  1  0.51340897  0.20954644  0.70305483  1
  Li  Li103  1  0.15181574  0.90621154  0.98638244  1
  Li  Li104  1  0.12153884  0.60605109  0.88707445  1
  Li  Li105  1  0.93843870  0.01753478  0.91173596  1
  Li  Li106  1  0.61969722  0.51706480  0.90992241  1
  Li  Li107  1  0.42381785  0.10391066  0.88345765  1
  Li  Li108  1  0.38954914  0.40759020  0.98449247  1
  Li  Li109  1  0.48899045  0.22958164  0.92763979  1
  Li  Li110  1  0.66676501  0.38451746  0.86977773  1
  Li  Li111  1  0.65544924  0.68097710  0.96694420  1
  Li  Li112  1  0.14967645  0.26159577  0.96983681  1
  Li  Li113  1  0.95701131  0.89066786  0.86908961  1
  Li  Li114  1  0.16313266  0.73779727  0.92961656  1
  Li  Li115  1  0.48062907  0.94689903  0.94507204  1
  Li  Li116  1  0.96544401  0.48290878  0.95298242  1
  Li  Li117  1  0.09340181  0.32234796  0.90551024  1
  Li  Li118  1  0.65165774  0.07515154  0.98305085  1
  Li  Li119  1  0.60781699  0.79909702  0.89385523  1
  P  P120  1  0.17432255  0.50834313  0.14308693  1
  P  P121  1  0.17712229  0.80931201  0.04353677  1
  P  P122  1  0.86923731  0.59174969  0.05745645  1
  P  P123  1  0.84658457  0.28516218  0.15800506  1
  P  P124  1  0.66956747  0.78486604  0.15796824  1
  P  P125  1  0.65280809  0.08941953  0.05961863  1
  P  P126  1  0.34216292  0.31147783  0.04347524  1
  P  P127  1  0.35133818  0.00749602  0.14400674  1
  P  P128  1  0.16793025  0.90044607  0.34206991  1
  P  P129  1  0.16450537  0.20341555  0.24302970  1
  P  P130  1  0.84723691  0.98144406  0.25751417  1
  P  P131  1  0.84724816  0.67852497  0.35721168  1
  P  P132  1  0.66340720  0.17971357  0.35689348  1
  P  P133  1  0.66034146  0.48253046  0.25648271  1
  P  P134  1  0.35913928  0.70378074  0.24315767  1
  P  P135  1  0.34318889  0.40168452  0.34137718  1
  P  P136  1  0.16041458  0.59642989  0.44294792  1
  P  P137  1  0.83331313  0.37567333  0.45308996  1
  P  P138  1  0.68156015  0.87962173  0.45409942  1
  P  P139  1  0.34725014  0.09697145  0.44416101  1
  P  P140  1  0.87628696  0.94088759  0.64278143  1
  P  P141  1  0.86946712  0.64012921  0.54333369  1
  P  P142  1  0.18025521  0.85752233  0.55719763  1
  P  P143  1  0.20083937  0.16461219  0.65784124  1
  P  P144  1  0.38699268  0.66450840  0.65784905  1
  P  P145  1  0.39738003  0.36079271  0.55959445  1
  P  P146  1  0.70891003  0.13890100  0.54340367  1
  P  P147  1  0.69575513  0.44242848  0.64398334  1
  P  P148  1  0.88146848  0.54948280  0.84213186  1
  P  P149  1  0.88522016  0.24629694  0.74289459  1
  P  P150  1  0.20509028  0.46811169  0.75736382  1
  P  P151  1  0.20003845  0.77115961  0.85714555  1
  P  P152  1  0.38616402  0.27093028  0.85709398  1
  P  P153  1  0.38443666  0.96729419  0.75667733  1
  P  P154  1  0.69617232  0.74606078  0.74305431  1
  P  P155  1  0.70473820  0.04878529  0.84154479  1
  P  P156  1  0.88788561  0.85345542  0.94295486  1
  P  P157  1  0.21683704  0.07438234  0.95328627  1
  P  P158  1  0.36702310  0.57094015  0.95441361  1
  P  P159  1  0.70048522  0.35384418  0.94410796  1
  S  S160  1  0.30661192  0.59627894  0.13502040  1
  S  S161  1  0.29777225  0.90023128  0.03322093  1
  S  S162  1  0.77102378  0.49932412  0.06702520  1
  S  S163  1  0.77651541  0.00134005  0.07053681  1
  S  S164  1  0.26844467  0.40383372  0.03202550  1
  S  S165  1  0.24920613  0.09920192  0.13543472  1
  S  S166  1  0.20218886  0.28027414  0.07762335  1
  S  S167  1  0.77341869  0.82550790  0.12347449  1
  S  S168  1  0.76310898  0.12355964  0.02453479  1
  S  S169  1  0.74163450  0.62556273  0.02375611  1
  S  S170  1  0.71187967  0.32384536  0.12502221  1
  S  S171  1  0.28586615  0.77520555  0.07858504  1
  S  S172  1  0.74738995  0.64765362  0.08804832  1
  S  S173  1  0.28771998  0.44744356  0.11394301  1
  S  S174  1  0.27884383  0.74946123  0.01474665  1
  S  S175  1  0.22293723  0.24908251  0.01583744  1
  S  S176  1  0.23369731  0.95033548  0.11373401  1
  S  S177  1  0.77243467  0.15165056  0.08781713  1
  S  S178  1  0.84840723  0.51665130  0.14521739  1
  S  S179  1  0.84996597  0.82036908  0.04726412  1
  S  S180  1  0.19596478  0.58772296  0.05510382  1
  S  S181  1  0.17148800  0.28244914  0.15371238  1
  S  S182  1  0.34438378  0.77676782  0.15618150  1
  S  S183  1  0.32728781  0.08215828  0.05751740  1
  S  S184  1  0.66778261  0.30987430  0.04833303  1
  S  S185  1  0.67648790  0.01061092  0.14785074  1
  S  S186  1  0.26837122  0.99243585  0.33374068  1
  S  S187  1  0.28036253  0.29282998  0.23401806  1
  S  S188  1  0.72036276  0.89317164  0.26598366  1
  S  S189  1  0.74562953  0.19358221  0.16692923  1
  S  S190  1  0.80045752  0.69659846  0.16598575  1
  S  S191  1  0.76301663  0.39068666  0.26515200  1
  S  S192  1  0.24083115  0.79399671  0.23480569  1
  S  S193  1  0.21250118  0.48986909  0.33323511  1
  S  S194  1  0.24248148  0.66429945  0.27726022  1
  S  S195  1  0.22048112  0.96803514  0.17707466  1
  S  S196  1  0.79240683  0.21907534  0.32360493  1
  S  S197  1  0.79186873  0.52103191  0.22325358  1
  S  S198  1  0.73894178  0.02125291  0.22310700  1
  S  S199  1  0.74720671  0.71795741  0.32244095  1
  S  S200  1  0.27349936  0.46788531  0.17781727  1
  S  S201  1  0.28361723  0.16473142  0.27699206  1
  S  S202  1  0.73164069  0.04202300  0.28687531  1
  S  S203  1  0.73238091  0.34259643  0.18837121  1
  S  S204  1  0.28131738  0.84334753  0.31161117  1
  S  S205  1  0.28271259  0.14419644  0.21347988  1
  S  S206  1  0.24253175  0.64483031  0.21333660  1
  S  S207  1  0.22850674  0.34056542  0.31231877  1
  S  S208  1  0.78362782  0.84564109  0.18722787  1
  S  S209  1  0.77700526  0.53936707  0.28687224  1
  S  S210  1  0.84245172  0.90316716  0.34608684  1
  S  S211  1  0.83712749  0.20834148  0.24612926  1
  S  S212  1  0.17300893  0.97447446  0.25498763  1
  S  S213  1  0.17317464  0.66993668  0.35530177  1
  S  S214  1  0.33768631  0.17619464  0.35319877  1
  S  S215  1  0.33492925  0.47948795  0.25307041  1
  S  S216  1  0.68281719  0.70842366  0.24513030  1
  S  S217  1  0.66894012  0.41001458  0.34323240  1
  S  S218  1  0.27090859  0.68756359  0.43526846  1
  S  S219  1  0.67143888  0.29239711  0.46304321  1
  S  S220  1  0.71475393  0.59057495  0.36561870  1
  S  S221  1  0.76983949  0.08864575  0.36554328  1
  S  S222  1  0.77874195  0.78747480  0.46352362  1
  S  S223  1  0.20212906  0.18456080  0.43832318  1
  S  S224  1  0.25925729  0.05528357  0.47837385  1
  S  S225  1  0.24109075  0.36190373  0.37599987  1
  S  S226  1  0.80975409  0.91728392  0.42053120  1
  S  S227  1  0.72461075  0.41717939  0.41897765  1
  S  S228  1  0.30201743  0.86175886  0.37508360  1
  S  S229  1  0.28699601  0.55597498  0.47657313  1
  S  S230  1  0.74293723  0.43549422  0.48355590  1
  S  S231  1  0.73486099  0.73974123  0.38632449  1
  S  S232  1  0.27540223  0.54066290  0.41237965  1
  S  S233  1  0.24232146  0.03896662  0.41355546  1
  S  S234  1  0.77589956  0.23730045  0.38721504  1
  S  S235  1  0.79203507  0.93414821  0.48453686  1
  S  S236  1  0.83477992  0.60095721  0.44578570  1
  S  S237  1  0.15030363  0.36011838  0.44833007  1
  S  S238  1  0.35430228  0.87495159  0.44975898  1
  S  S239  1  0.67683467  0.10937522  0.44365249  1
  S  S240  1  0.74751626  0.85265633  0.63454321  1
  S  S241  1  0.74920785  0.54919572  0.53322822  1
  S  S242  1  0.27827941  0.94982136  0.56711788  1
  S  S243  1  0.27303176  0.44875244  0.57054447  1
  S  S244  1  0.78213869  0.04639205  0.53208764  1
  S  S245  1  0.79999524  0.35082796  0.63548615  1
  S  S246  1  0.84865345  0.17011367  0.57753693  1
  S  S247  1  0.27040510  0.62461377  0.62379890  1
  S  S248  1  0.28774246  0.32680509  0.52445341  1
  S  S249  1  0.30821697  0.82400959  0.52347379  1
  S  S250  1  0.33368746  0.12630444  0.62468731  1
  S  S251  1  0.75990799  0.67434783  0.57831534  1
  S  S252  1  0.30175583  0.80145880  0.58776947  1
  S  S253  1  0.76030609  0.00173876  0.61373896  1
  S  S254  1  0.76974962  0.69962993  0.51431511  1
  S  S255  1  0.82813391  0.20151441  0.51586183  1
  S  S256  1  0.81512621  0.49957250  0.61378747  1
  S  S257  1  0.27801723  0.29850518  0.58779736  1
  S  S258  1  0.20221874  0.93388156  0.64511818  1
  S  S259  1  0.19677863  0.62917615  0.54723962  1
  S  S260  1  0.85345654  0.86159006  0.55465779  1
  S  S261  1  0.87562035  0.16728199  0.65395754  1
  S  S262  1  0.71076345  0.66863176  0.65591382  1
  S  S263  1  0.72283279  0.36814339  0.55756134  1
  S  S264  1  0.38302484  0.14028834  0.54814579  1
  S  S265  1  0.37041248  0.43967844  0.64729859  1
  S  S266  1  0.78160827  0.45735134  0.83393401  1
  S  S267  1  0.77064100  0.15654042  0.73407195  1
  S  S268  1  0.33521081  0.55606467  0.76584978  1
  S  S269  1  0.30484350  0.25582850  0.66683917  1
  S  S270  1  0.26889846  0.75489653  0.66578536  1
  S  S271  1  0.28142065  0.05903642  0.76527366  1
  S  S272  1  0.82856671  0.65788056  0.73490308  1
  S  S273  1  0.83463650  0.96051006  0.83320585  1
  S  S274  1  0.79775027  0.78651279  0.77765749  1
  S  S275  1  0.82340176  0.48185798  0.67729168  1
  S  S276  1  0.25815795  0.23169639  0.82374475  1
  S  S277  1  0.25339259  0.92808663  0.72361905  1
  S  S278  1  0.31064441  0.42815562  0.72292100  1
  S  S279  1  0.30021451  0.73132101  0.82240802  1
  S  S280  1  0.77390340  0.98117662  0.67747553  1
  S  S281  1  0.76439776  0.28562289  0.77665798  1
  S  S282  1  0.31868836  0.40732005  0.78675577  1
  S  S283  1  0.31606487  0.10653756  0.68803734  1
  S  S284  1  0.76937900  0.60617958  0.81153611  1
  S  S285  1  0.76742793  0.30510762  0.71320347  1
  S  S286  1  0.81123096  0.80651210  0.71379364  1
  S  S287  1  0.81830183  0.11015643  0.81253049  1
  S  S288  1  0.27007243  0.60573002  0.68777464  1
  S  S289  1  0.26960701  0.91056081  0.78720364  1
  S  S290  1  0.20679081  0.54641730  0.84628312  1
  S  S291  1  0.21225980  0.24131747  0.74605076  1
  S  S292  1  0.87952936  0.47604552  0.75509935  1
  S  S293  1  0.87423502  0.78011521  0.85503981  1
  S  S294  1  0.71258973  0.27425889  0.85367113  1
  S  S295  1  0.70994232  0.97120832  0.75301510  1
  S  S296  1  0.37083981  0.73734461  0.74462599  1
  S  S297  1  0.37912579  0.04048820  0.84355905  1
  S  S298  1  0.77725802  0.76230098  0.93540494  1
  S  S299  1  0.37751230  0.15776972  0.96334874  1
  S  S300  1  0.33362416  0.85896509  0.86560571  1
  S  S301  1  0.28104026  0.36217968  0.86566414  1
  S  S302  1  0.27060326  0.66312574  0.96379602  1
  S  S303  1  0.84645130  0.26639214  0.93815612  1
  S  S304  1  0.78853859  0.39523017  0.97837259  1
  S  S305  1  0.80889289  0.08783451  0.87622577  1
  S  S306  1  0.24010094  0.53328163  0.92074497  1
  S  S307  1  0.32603690  0.03320344  0.91914951  1
  S  S308  1  0.74656362  0.58867293  0.87498836  1
  S  S309  1  0.76110173  0.89406833  0.97657503  1
  S  S310  1  0.30780078  0.01446506  0.98369341  1
  S  S311  1  0.31226267  0.71008698  0.88626616  1
  S  S312  1  0.77337178  0.90922434  0.91235075  1
  S  S313  1  0.80616377  0.41207313  0.91361444  1
  S  S314  1  0.27349213  0.21340843  0.88743724  1
  S  S315  1  0.25497015  0.51637421  0.98475167  1
  S  S316  1  0.21362983  0.84897877  0.94577305  1
  S  S317  1  0.89960785  0.08958693  0.94849563  1
  S  S318  1  0.69451681  0.57542951  0.95015582  1
  S  S319  1  0.37096382  0.34120827  0.94360293  1
