# generated using pymatgen
data_Li3PS4
_symmetry_space_group_name_H-M   'P 1'
_cell_length_a   6.25995100
_cell_length_b   20.81799400
_cell_length_c   50.95933017
_cell_angle_alpha   90.00000000
_cell_angle_beta   90.00000000
_cell_angle_gamma   90.00000000
_symmetry_Int_Tables_number   1
_chemical_formula_structural   Li3PS4
_chemical_formula_sum   'Li120 P40 S160'
_cell_volume   6641.00066280
_cell_formula_units_Z   40
loop_
 _symmetry_equiv_pos_site_id
 _symmetry_equiv_pos_as_xyz
  1  'x, y, z'
loop_
 _atom_site_type_symbol
 _atom_site_label
 _atom_site_symmetry_multiplicity
 _atom_site_fract_x
 _atom_site_fract_y
 _atom_site_fract_z
 _atom_site_occupancy
  Li  Li0  1  0.89510626  0.69645367  0.08755969  1
  Li  Li1  1  0.89337718  0.39306680  0.18559339  1
  Li  Li2  1  0.09339599  0.28502193  0.11232040  1
  Li  Li3  1  0.13734094  0.55815402  0.00709215  1
  Li  Li4  1  0.37185793  0.08142008  0.01302045  1
  Li  Li5  1  0.38859724  0.78287690  0.11622243  1
  Li  Li6  1  0.60388748  0.89232696  0.18877151  1
  Li  Li7  1  0.60460458  0.19620337  0.08671529  1
  Li  Li8  1  0.65149489  0.36317580  0.03248527  1
  Li  Li9  1  0.63531196  0.06249348  0.13090695  1
  Li  Li10  1  0.41796391  0.60802240  0.17029939  1
  Li  Li11  1  0.40794221  0.91124623  0.07039472  1
  Li  Li12  1  0.15264681  0.41662476  0.06930294  1
  Li  Li13  1  0.13599779  0.11270027  0.17019357  1
  Li  Li14  1  0.93090711  0.56799619  0.12984933  1
  Li  Li15  1  0.94095475  0.87418156  0.03671440  1
  Li  Li16  1  0.45057963  0.32092562  0.15291399  1
  Li  Li17  1  0.45437229  0.62106833  0.05280638  1
  Li  Li18  1  0.98072375  0.14704379  0.04934839  1
  Li  Li19  1  0.95135249  0.85304849  0.14834083  1
  Li  Li20  1  0.06363375  0.99959045  0.09588280  1
  Li  Li21  1  0.58221979  0.47895651  0.10529138  1
  Li  Li22  1  0.59737679  0.75852425  0.01104508  1
  Li  Li23  1  0.91173569  0.09086266  0.28854416  1
  Li  Li24  1  0.93107238  0.78296348  0.38636258  1
  Li  Li25  1  0.13863111  0.67471282  0.31409680  1
  Li  Li26  1  0.12827134  0.97762880  0.21438215  1
  Li  Li27  1  0.42247862  0.47956029  0.21200866  1
  Li  Li28  1  0.42726607  0.17571116  0.31338047  1
  Li  Li29  1  0.63322772  0.28650107  0.38518876  1
  Li  Li30  1  0.63055678  0.58904403  0.28540515  1
  Li  Li31  1  0.62632279  0.75941787  0.23016207  1
  Li  Li32  1  0.59511047  0.46106211  0.32936344  1
  Li  Li33  1  0.39054335  0.00494964  0.37052705  1
  Li  Li34  1  0.38485890  0.30956730  0.26977785  1
  Li  Li35  1  0.10291436  0.80341720  0.26923958  1
  Li  Li36  1  0.09563539  0.50023652  0.36892377  1
  Li  Li37  1  0.88709861  0.95636534  0.33131236  1
  Li  Li38  1  0.91274314  0.26372015  0.23047121  1
  Li  Li39  1  0.57462193  0.74746560  0.34566489  1
  Li  Li40  1  0.54385065  0.04236908  0.24978127  1
  Li  Li41  1  0.06274236  0.52043346  0.25199610  1
  Li  Li42  1  0.07532859  0.21260037  0.35443981  1
  Li  Li43  1  0.05561211  0.69165315  0.19621924  1
  Li  Li44  1  0.94446574  0.37056107  0.30572371  1
  Li  Li45  1  0.45263318  0.89307575  0.29421925  1
  Li  Li46  1  0.56149245  0.17871955  0.20504650  1
  Li  Li47  1  0.88845532  0.49154854  0.48629120  1
  Li  Li48  1  0.11691054  0.37552428  0.41121816  1
  Li  Li49  1  0.43318507  0.87335226  0.40969693  1
  Li  Li50  1  0.68319554  0.98151353  0.48531071  1
  Li  Li51  1  0.59479764  0.15579810  0.43367098  1
  Li  Li52  1  0.38904110  0.70833197  0.46704272  1
  Li  Li53  1  0.16702634  0.09160133  0.49473156  1
  Li  Li54  1  0.88406755  0.65256587  0.42878980  1
  Li  Li55  1  0.55611056  0.44168167  0.44609384  1
  Li  Li56  1  0.07984392  0.90464654  0.45215240  1
  Li  Li57  1  0.96258285  0.06941637  0.40831255  1
  Li  Li58  1  0.43154383  0.30505985  0.48392007  1
  Li  Li59  1  0.44474338  0.59155633  0.39387088  1
  Li  Li60  1  0.14656472  0.62915831  0.58709575  1
  Li  Li61  1  0.15520821  0.93034670  0.68523415  1
  Li  Li62  1  0.95132490  0.03864328  0.61205171  1
  Li  Li63  1  0.91931417  0.76984490  0.50704955  1
  Li  Li64  1  0.82564889  0.26326688  0.51236960  1
  Li  Li65  1  0.64695916  0.54252352  0.61541660  1
  Li  Li66  1  0.43317242  0.43314507  0.68756830  1
  Li  Li67  1  0.43949458  0.12853565  0.58675022  1
  Li  Li68  1  0.39478026  0.96137274  0.53224107  1
  Li  Li69  1  0.39717974  0.26314144  0.63024404  1
  Li  Li70  1  0.64626259  0.71263238  0.66998198  1
  Li  Li71  1  0.62011847  0.41369604  0.57025791  1
  Li  Li72  1  0.89928014  0.90823696  0.56903588  1
  Li  Li73  1  0.91159940  0.21231646  0.66938066  1
  Li  Li74  1  0.12035384  0.75687764  0.62973753  1
  Li  Li75  1  0.10336393  0.45029837  0.53650922  1
  Li  Li76  1  0.59586793  0.00276850  0.65238947  1
  Li  Li77  1  0.59505074  0.70363258  0.55245998  1
  Li  Li78  1  0.07541434  0.17178602  0.54940306  1
  Li  Li79  1  0.07310642  0.47620464  0.64843676  1
  Li  Li80  1  0.96399712  0.32447160  0.59524893  1
  Li  Li81  1  0.46836383  0.84542543  0.60517696  1
  Li  Li82  1  0.45048861  0.56618141  0.51133813  1
  Li  Li83  1  0.13748848  0.23359306  0.78805565  1
  Li  Li84  1  0.12145836  0.54148155  0.88581659  1
  Li  Li85  1  0.90774326  0.65142475  0.81353058  1
  Li  Li86  1  0.91657132  0.34798897  0.71366142  1
  Li  Li87  1  0.62142523  0.84572165  0.71148266  1
  Li  Li88  1  0.62514272  0.14953004  0.81282692  1
  Li  Li89  1  0.42118001  0.03897544  0.88464427  1
  Li  Li90  1  0.40517873  0.73492327  0.78460746  1
  Li  Li91  1  0.44545567  0.56148549  0.72909089  1
  Li  Li92  1  0.45837332  0.86353301  0.82899779  1
  Li  Li93  1  0.65952447  0.32007430  0.86983081  1
  Li  Li94  1  0.66051565  0.01583722  0.76973911  1
  Li  Li95  1  0.95323898  0.52207453  0.76926387  1
  Li  Li96  1  0.95935703  0.82617049  0.86910105  1
  Li  Li97  1  0.16520937  0.36948591  0.83031300  1
  Li  Li98  1  0.13375578  0.06136034  0.73003809  1
  Li  Li99  1  0.47218538  0.57670358  0.84520901  1
  Li  Li100  1  0.49266175  0.27947864  0.74846864  1
  Li  Li101  1  0.97078839  0.80800488  0.75210707  1
  Li  Li102  1  0.97798972  0.11240354  0.85415731  1
  Li  Li103  1  0.08188788  0.64705568  0.70443675  1
  Li  Li104  1  0.10577332  0.95475090  0.80564078  1
  Li  Li105  1  0.60066204  0.43104823  0.79324593  1
  Li  Li106  1  0.49094721  0.14462616  0.70408557  1
  Li  Li107  1  0.16598778  0.83318906  0.98621028  1
  Li  Li108  1  0.93454500  0.95311967  0.91258730  1
  Li  Li109  1  0.61726274  0.45255279  0.90907654  1
  Li  Li110  1  0.36535258  0.34523823  0.98505571  1
  Li  Li111  1  0.46038053  0.16984840  0.93279972  1
  Li  Li112  1  0.66473784  0.61660942  0.96683075  1
  Li  Li113  1  0.87624057  0.23372100  0.99407268  1
  Li  Li114  1  0.16274615  0.67138121  0.92805499  1
  Li  Li115  1  0.48112356  0.87844664  0.94478017  1
  Li  Li116  1  0.97116617  0.42057324  0.95175114  1
  Li  Li117  1  0.08765259  0.25721245  0.90796228  1
  Li  Li118  1  0.65526986  0.00466965  0.98304964  1
  Li  Li119  1  0.60512702  0.73371867  0.89313592  1
  P  P120  1  0.17713684  0.44859696  0.14259642  1
  P  P121  1  0.18119292  0.74865301  0.04413102  1
  P  P122  1  0.87058809  0.53195482  0.05656384  1
  P  P123  1  0.85272164  0.22589207  0.15717326  1
  P  P124  1  0.66933528  0.72630036  0.15783586  1
  P  P125  1  0.65935653  0.02929253  0.05855158  1
  P  P126  1  0.34273429  0.24898349  0.04136715  1
  P  P127  1  0.35518367  0.94838278  0.14370855  1
  P  P128  1  0.17153137  0.84151577  0.34201451  1
  P  P129  1  0.17116150  0.14516376  0.24314191  1
  P  P130  1  0.85396676  0.92333570  0.25771428  1
  P  P131  1  0.85002578  0.61937435  0.35650833  1
  P  P132  1  0.67111746  0.11901157  0.35917586  1
  P  P133  1  0.66699282  0.42274815  0.25662977  1
  P  P134  1  0.36246167  0.64468512  0.24289120  1
  P  P135  1  0.35108405  0.34104325  0.34201979  1
  P  P136  1  0.15927407  0.53850978  0.44239576  1
  P  P137  1  0.85615468  0.32013522  0.45432893  1
  P  P138  1  0.68235525  0.81712661  0.45420965  1
  P  P139  1  0.36914431  0.03235182  0.44510325  1
  P  P140  1  0.87296061  0.87555180  0.64238199  1
  P  P141  1  0.86246370  0.57583383  0.54394603  1
  P  P142  1  0.17983508  0.79291744  0.55656729  1
  P  P143  1  0.19176803  0.09788444  0.65687788  1
  P  P144  1  0.37761365  0.59838588  0.65730900  1
  P  P145  1  0.36508219  0.29503787  0.55764536  1
  P  P146  1  0.70320886  0.07619547  0.54154571  1
  P  P147  1  0.68073733  0.37622891  0.64312295  1
  P  P148  1  0.87804388  0.48378164  0.84134218  1
  P  P149  1  0.87517423  0.18004753  0.74274071  1
  P  P150  1  0.19581081  0.40167310  0.75686864  1
  P  P151  1  0.19894379  0.70578247  0.85605660  1
  P  P152  1  0.37862224  0.20623365  0.85859542  1
  P  P153  1  0.37845050  0.90174997  0.75654099  1
  P  P154  1  0.68998608  0.68036149  0.74245099  1
  P  P155  1  0.70171189  0.98384547  0.84188340  1
  P  P156  1  0.89322689  0.78643495  0.94223508  1
  P  P157  1  0.22680008  0.00461636  0.95386249  1
  P  P158  1  0.36977536  0.50838931  0.95393523  1
  P  P159  1  0.68130397  0.29374405  0.94479346  1
  S  S160  1  0.30856196  0.53643863  0.13405776  1
  S  S161  1  0.31090398  0.83780189  0.03369171  1
  S  S162  1  0.76787207  0.43946827  0.06566843  1
  S  S163  1  0.75055346  0.13466959  0.16637746  1
  S  S164  1  0.79807069  0.63764267  0.16571303  1
  S  S165  1  0.78057059  0.94076945  0.06913335  1
  S  S166  1  0.26235343  0.34238044  0.03260718  1
  S  S167  1  0.25111553  0.03988617  0.13508614  1
  S  S168  1  0.22820611  0.21632157  0.07679521  1
  S  S169  1  0.22669782  0.90879662  0.17701404  1
  S  S170  1  0.77328569  0.76701690  0.12323642  1
  S  S171  1  0.77172503  0.06227397  0.02335736  1
  S  S172  1  0.74443236  0.56746673  0.02295861  1
  S  S173  1  0.71911258  0.26462533  0.12390664  1
  S  S174  1  0.27977896  0.40887240  0.17743051  1
  S  S175  1  0.28653017  0.71263554  0.07914790  1
  S  S176  1  0.74941926  0.58717618  0.08749002  1
  S  S177  1  0.73835869  0.28344214  0.18760818  1
  S  S178  1  0.29068099  0.38711683  0.11345246  1
  S  S179  1  0.27555795  0.68896428  0.01463258  1
  S  S180  1  0.21812530  0.19064650  0.01263312  1
  S  S181  1  0.23612005  0.89141555  0.11327495  1
  S  S182  1  0.78545789  0.78682273  0.18720383  1
  S  S183  1  0.78182127  0.09085752  0.08715653  1
  S  S184  1  0.85163592  0.45660623  0.14481596  1
  S  S185  1  0.85567867  0.76340849  0.04791936  1
  S  S186  1  0.19698003  0.52651577  0.05437729  1
  S  S187  1  0.17775223  0.22293904  0.15297560  1
  S  S188  1  0.34371575  0.71897308  0.15613435  1
  S  S189  1  0.33309542  0.02367069  0.05661273  1
  S  S190  1  0.67414586  0.24583063  0.04257883  1
  S  S191  1  0.68052176  0.95175471  0.14726553  1
  S  S192  1  0.27327560  0.93368569  0.33416817  1
  S  S193  1  0.28906921  0.23429347  0.23400925  1
  S  S194  1  0.72593785  0.83512967  0.26597192  1
  S  S195  1  0.71809457  0.53153948  0.36512055  1
  S  S196  1  0.77573029  0.02770354  0.36760447  1
  S  S197  1  0.77003254  0.33105432  0.26538689  1
  S  S198  1  0.24408183  0.73502048  0.23454072  1
  S  S199  1  0.21957780  0.42903757  0.33339128  1
  S  S200  1  0.24613091  0.60525324  0.27713920  1
  S  S201  1  0.24866903  0.30241553  0.37695717  1
  S  S202  1  0.80160262  0.15862306  0.32578102  1
  S  S203  1  0.79888776  0.46136854  0.22329123  1
  S  S204  1  0.74562475  0.96365085  0.22325147  1
  S  S205  1  0.75075931  0.65915891  0.32163984  1
  S  S206  1  0.30452800  0.80174489  0.37500424  1
  S  S207  1  0.28854452  0.10636842  0.27734583  1
  S  S208  1  0.73926493  0.98378956  0.28729805  1
  S  S209  1  0.73532087  0.68057964  0.38564810  1
  S  S210  1  0.28597087  0.78507606  0.31130108  1
  S  S211  1  0.28923328  0.08560938  0.21352893  1
  S  S212  1  0.24462073  0.58571215  0.21298279  1
  S  S213  1  0.23757295  0.27942449  0.31298667  1
  S  S214  1  0.78162789  0.17608895  0.38985571  1
  S  S215  1  0.78196410  0.47960263  0.28717056  1
  S  S216  1  0.84610373  0.84422760  0.34581104  1
  S  S217  1  0.84395476  0.15050798  0.24616980  1
  S  S218  1  0.17978640  0.91620246  0.25512439  1
  S  S219  1  0.17605421  0.61109699  0.35478802  1
  S  S220  1  0.34538422  0.11580026  0.35478356  1
  S  S221  1  0.34176092  0.41956661  0.25286399  1
  S  S222  1  0.68608416  0.64935867  0.24480385  1
  S  S223  1  0.67652994  0.34958124  0.34418016  1
  S  S224  1  0.26820607  0.62983701  0.43475944  1
  S  S225  1  0.71756999  0.23515472  0.46578824  1
  S  S226  1  0.77585555  0.72476663  0.46364028  1
  S  S227  1  0.22384772  0.12024921  0.44453628  1
  S  S228  1  0.28027700  0.98490442  0.47924885  1
  S  S229  1  0.81068427  0.85464167  0.42043554  1
  S  S230  1  0.73539528  0.35907708  0.42019087  1
  S  S231  1  0.28185354  0.49898262  0.47655829  1
  S  S232  1  0.76000260  0.37942269  0.48507712  1
  S  S233  1  0.28125255  0.48305065  0.41196495  1
  S  S234  1  0.24439948  0.97836432  0.41430697  1
  S  S235  1  0.79741704  0.87091273  0.48478527  1
  S  S236  1  0.83326883  0.54176036  0.44425165  1
  S  S237  1  0.17587455  0.31049609  0.44897513  1
  S  S238  1  0.35544156  0.81356675  0.44975230  1
  S  S239  1  0.69365681  0.04308774  0.44511262  1
  S  S240  1  0.74267457  0.78758424  0.63407599  1
  S  S241  1  0.73158038  0.48671251  0.53366291  1
  S  S242  1  0.28230252  0.88531722  0.56570831  1
  S  S243  1  0.29515174  0.18916722  0.66589335  1
  S  S244  1  0.26097665  0.68895389  0.66529249  1
  S  S245  1  0.24686591  0.38310155  0.56923515  1
  S  S246  1  0.78305224  0.98260040  0.53278835  1
  S  S247  1  0.78302742  0.28441564  0.63453805  1
  S  S248  1  0.81526487  0.10828676  0.57715912  1
  S  S249  1  0.81091403  0.41551464  0.67644030  1
  S  S250  1  0.26210560  0.55875005  0.62304533  1
  S  S251  1  0.24189481  0.26328397  0.52269939  1
  S  S252  1  0.30651053  0.75797024  0.52287269  1
  S  S253  1  0.32516142  0.05914201  0.62361637  1
  S  S254  1  0.77016827  0.91576910  0.67716946  1
  S  S255  1  0.75651507  0.61212564  0.57888719  1
  S  S256  1  0.30050771  0.73736362  0.58737097  1
  S  S257  1  0.30679813  0.04047112  0.68734923  1
  S  S258  1  0.75723046  0.93649380  0.61315922  1
  S  S259  1  0.77097393  0.63572141  0.51444982  1
  S  S260  1  0.82600295  0.13468401  0.51295178  1
  S  S261  1  0.79869948  0.43320120  0.61268382  1
  S  S262  1  0.25938402  0.53957899  0.68724251  1
  S  S263  1  0.25206208  0.23289746  0.58657302  1
  S  S264  1  0.19868682  0.86809362  0.64458258  1
  S  S265  1  0.18775259  0.56092686  0.54782510  1
  S  S266  1  0.85343598  0.79815456  0.55436599  1
  S  S267  1  0.86678751  0.10111239  0.65278600  1
  S  S268  1  0.70158894  0.60218920  0.65566855  1
  S  S269  1  0.69109009  0.30197797  0.55556502  1
  S  S270  1  0.37049888  0.07819655  0.54276090  1
  S  S271  1  0.35558509  0.37365121  0.64667965  1
  S  S272  1  0.77679505  0.39162286  0.83348291  1
  S  S273  1  0.75771351  0.09057412  0.73394157  1
  S  S274  1  0.32784847  0.48948334  0.76512818  1
  S  S275  1  0.33431212  0.79317339  0.86466003  1
  S  S276  1  0.27324684  0.29760809  0.86687517  1
  S  S277  1  0.27561640  0.99354178  0.76508104  1
  S  S278  1  0.82137656  0.59212404  0.73423274  1
  S  S279  1  0.83342571  0.89587528  0.83327767  1
  S  S280  1  0.79196897  0.72109291  0.77709494  1
  S  S281  1  0.80579513  0.02287151  0.87667568  1
  S  S282  1  0.24917828  0.16627231  0.82518725  1
  S  S283  1  0.24621580  0.86246749  0.72337091  1
  S  S284  1  0.30067900  0.36109575  0.72235213  1
  S  S285  1  0.29626665  0.66537712  0.82122078  1
  S  S286  1  0.74644166  0.52357840  0.87441564  1
  S  S287  1  0.75804712  0.21931953  0.77681465  1
  S  S288  1  0.30939012  0.34093951  0.78641672  1
  S  S289  1  0.31351601  0.64426950  0.88508302  1
  S  S290  1  0.76342299  0.54040059  0.81072428  1
  S  S291  1  0.75753751  0.23887662  0.71290641  1
  S  S292  1  0.80464497  0.74086730  0.71307710  1
  S  S293  1  0.81323076  0.04542710  0.81270411  1
  S  S294  1  0.26859998  0.14933857  0.88933562  1
  S  S295  1  0.26513599  0.84517537  0.78721502  1
  S  S296  1  0.20368618  0.48086560  0.84504124  1
  S  S297  1  0.20274959  0.17435838  0.74570601  1
  S  S298  1  0.87038918  0.41016838  0.75446345  1
  S  S299  1  0.87350262  0.71541949  0.85433546  1
  S  S300  1  0.70452564  0.20943797  0.85433019  1
  S  S301  1  0.70362362  0.90583047  0.75255670  1
  S  S302  1  0.36460818  0.67154261  0.74416949  1
  S  S303  1  0.37646621  0.97498410  0.84400505  1
  S  S304  1  0.77933878  0.69577685  0.93433917  1
  S  S305  1  0.39850632  0.08482926  0.96403780  1
  S  S306  1  0.27797059  0.60105069  0.96314892  1
  S  S307  1  0.82853261  0.20616985  0.94420632  1
  S  S308  1  0.76907333  0.34106610  0.97904360  1
  S  S309  1  0.24061999  0.47053591  0.92024568  1
  S  S310  1  0.32447373  0.96394624  0.91889761  1
  S  S311  1  0.77270343  0.82561192  0.97656793  1
  S  S312  1  0.31305776  0.94181843  0.98372589  1
  S  S313  1  0.77494467  0.84330811  0.91213158  1
  S  S314  1  0.80461480  0.34753594  0.91386737  1
  S  S315  1  0.25314792  0.45542889  0.98463535  1
  S  S316  1  0.21921836  0.78106082  0.94415683  1
  S  S317  1  0.91102915  0.02417131  0.94982272  1
  S  S318  1  0.69659343  0.51155048  0.94938414  1
  S  S319  1  0.35692480  0.28236779  0.94494497  1
