# generated using pymatgen
data_Li3PS4
_symmetry_space_group_name_H-M   'P 1'
_cell_length_a   6.25995100
_cell_length_b   20.81799400
_cell_length_c   51.20416287
_cell_angle_alpha   90.00000000
_cell_angle_beta   90.00000000
_cell_angle_gamma   90.00000000
_symmetry_Int_Tables_number   1
_chemical_formula_structural   Li3PS4
_chemical_formula_sum   'Li120 P40 S160'
_cell_volume   6672.90716824
_cell_formula_units_Z   40
loop_
 _symmetry_equiv_pos_site_id
 _symmetry_equiv_pos_as_xyz
  1  'x, y, z'
loop_
 _atom_site_type_symbol
 _atom_site_label
 _atom_site_symmetry_multiplicity
 _atom_site_fract_x
 _atom_site_fract_y
 _atom_site_fract_z
 _atom_site_occupancy
  Li  Li0  1  0.85237919  0.66828469  0.08773221  1
  Li  Li1  1  0.03314330  0.26116079  0.11371249  1
  Li  Li2  1  0.03663866  0.55805165  0.01429346  1
  Li  Li3  1  0.30562070  0.05823644  0.01049877  1
  Li  Li4  1  0.33340182  0.76148652  0.11498172  1
  Li  Li5  1  0.52708493  0.17129514  0.09066475  1
  Li  Li6  1  0.58741501  0.33818994  0.03727039  1
  Li  Li7  1  0.57259588  0.03946345  0.13035390  1
  Li  Li8  1  0.37055371  0.58468683  0.17094507  1
  Li  Li9  1  0.34730144  0.88651350  0.06596593  1
  Li  Li10  1  0.10504503  0.39163333  0.07168740  1
  Li  Li11  1  0.07747915  0.08861476  0.16957899  1
  Li  Li12  1  0.86420846  0.54247664  0.13195571  1
  Li  Li13  1  0.88953512  0.94957001  0.01933929  1
  Li  Li14  1  0.38859355  0.29587847  0.15522769  1
  Li  Li15  1  0.40528478  0.59827168  0.05557381  1
  Li  Li16  1  0.88942655  0.13950204  0.04686473  1
  Li  Li17  1  0.88778023  0.83294941  0.14566941  1
  Li  Li18  1  0.99895258  0.97723438  0.09314704  1
  Li  Li19  1  0.52077848  0.45239305  0.10866520  1
  Li  Li20  1  0.52739176  0.74529894  0.01342014  1
  Li  Li21  1  0.82283595  0.06657087  0.28498164  1
  Li  Li22  1  0.82572232  0.36938568  0.18683124  1
  Li  Li23  1  0.03901881  0.65146638  0.31233647  1
  Li  Li24  1  0.03541563  0.95564682  0.21111348  1
  Li  Li25  1  0.32756303  0.45484461  0.21529102  1
  Li  Li26  1  0.32497796  0.14941219  0.31391186  1
  Li  Li27  1  0.53189021  0.87035193  0.18673996  1
  Li  Li28  1  0.53775756  0.56589025  0.28799365  1
  Li  Li29  1  0.57836446  0.73601431  0.22979663  1
  Li  Li30  1  0.57255395  0.43152042  0.32995486  1
  Li  Li31  1  0.37607896  0.97321312  0.36946734  1
  Li  Li32  1  0.36894291  0.27971756  0.27003100  1
  Li  Li33  1  0.07899114  0.78630209  0.26989947  1
  Li  Li34  1  0.07527548  0.48015263  0.36977651  1
  Li  Li35  1  0.87460441  0.93676396  0.32877355  1
  Li  Li36  1  0.86718859  0.24143167  0.23076187  1
  Li  Li37  1  0.38964765  0.68772507  0.35321265  1
  Li  Li38  1  0.38650029  0.99224298  0.25298669  1
  Li  Li39  1  0.88638113  0.52943725  0.24652604  1
  Li  Li40  1  0.88307747  0.22465704  0.34547657  1
  Li  Li41  1  0.01981813  0.67752500  0.19366203  1
  Li  Li42  1  0.01705315  0.37168390  0.29376992  1
  Li  Li43  1  0.52163162  0.84573261  0.30566154  1
  Li  Li44  1  0.51410572  0.14997059  0.20626493  1
  Li  Li45  1  0.79045640  0.45918525  0.48606732  1
  Li  Li46  1  0.83073586  0.76223181  0.38418820  1
  Li  Li47  1  0.02056753  0.34466944  0.41065557  1
  Li  Li48  1  0.33983856  0.84221109  0.41447142  1
  Li  Li49  1  0.52801816  0.25806301  0.38699681  1
  Li  Li50  1  0.57042806  0.99498347  0.49021341  1
  Li  Li51  1  0.57550885  0.12660180  0.42792332  1
  Li  Li52  1  0.47365302  0.65735591  0.46713237  1
  Li  Li53  1  0.05466692  0.17032352  0.46473246  1
  Li  Li54  1  0.89126712  0.63269236  0.42861968  1
  Li  Li55  1  0.37044098  0.37781078  0.45218785  1
  Li  Li56  1  0.88862223  0.92495966  0.44605931  1
  Li  Li57  1  0.01973296  0.06259487  0.39253306  1
  Li  Li58  1  0.08331978  0.80014618  0.48597696  1
  Li  Li59  1  0.51452434  0.54066210  0.40624463  1
  Li  Li60  1  0.97084855  0.60538266  0.58781082  1
  Li  Li61  1  0.79354063  0.01258480  0.61392249  1
  Li  Li62  1  0.79551026  0.71378526  0.51459986  1
  Li  Li63  1  0.51458141  0.21576382  0.51046235  1
  Li  Li64  1  0.48968670  0.51378307  0.61526336  1
  Li  Li65  1  0.29672918  0.10227957  0.59097307  1
  Li  Li66  1  0.23458419  0.93508026  0.53745853  1
  Li  Li67  1  0.24981201  0.23478056  0.63054545  1
  Li  Li68  1  0.45244028  0.69041789  0.67120831  1
  Li  Li69  1  0.47509169  0.38737589  0.56600485  1
  Li  Li70  1  0.71892260  0.88165291  0.57170623  1
  Li  Li71  1  0.74147876  0.18596019  0.66983128  1
  Li  Li72  1  0.95009190  0.72980757  0.63195788  1
  Li  Li73  1  0.92757698  0.32495062  0.52053429  1
  Li  Li74  1  0.43931197  0.97917693  0.65545697  1
  Li  Li75  1  0.41684904  0.67509931  0.55555086  1
  Li  Li76  1  0.93198807  0.13478077  0.54741835  1
  Li  Li77  1  0.93487991  0.44208017  0.64542159  1
  Li  Li78  1  0.82431699  0.29660123  0.59349071  1
  Li  Li79  1  0.29777147  0.82176947  0.60936436  1
  Li  Li80  1  0.29784961  0.52919494  0.51360435  1
  Li  Li81  1  0.99585005  0.21035145  0.78542975  1
  Li  Li82  1  0.99815642  0.90476753  0.68715505  1
  Li  Li83  1  0.79196278  0.62419887  0.81243919  1
  Li  Li84  1  0.78998862  0.31979129  0.71126781  1
  Li  Li85  1  0.49946234  0.82023784  0.71565784  1
  Li  Li86  1  0.50118665  0.12575469  0.81422715  1
  Li  Li87  1  0.29149709  0.40510499  0.68686839  1
  Li  Li88  1  0.29220016  0.71031568  0.78830290  1
  Li  Li89  1  0.24257320  0.53991203  0.72997985  1
  Li  Li90  1  0.24999548  0.84521019  0.83023040  1
  Li  Li91  1  0.45339901  0.30281351  0.86980789  1
  Li  Li92  1  0.45501010  0.99588827  0.77015936  1
  Li  Li93  1  0.74410805  0.48943557  0.76997024  1
  Li  Li94  1  0.75375206  0.79491585  0.87011925  1
  Li  Li95  1  0.95248329  0.33885928  0.82909736  1
  Li  Li96  1  0.95201730  0.03414113  0.73100780  1
  Li  Li97  1  0.44011936  0.58782013  0.85322609  1
  Li  Li98  1  0.43331742  0.28335297  0.75304607  1
  Li  Li99  1  0.93864597  0.74551159  0.74667884  1
  Li  Li100  1  0.94460550  0.05139429  0.84550914  1
  Li  Li101  1  0.80078879  0.59723121  0.69361458  1
  Li  Li102  1  0.80821620  0.90401414  0.79391812  1
  Li  Li103  1  0.30467637  0.42973159  0.80589289  1
  Li  Li104  1  0.30544770  0.12559243  0.70684355  1
  Li  Li105  1  0.04064113  0.81586827  0.98608353  1
  Li  Li106  1  0.99672840  0.51354400  0.88427791  1
  Li  Li107  1  0.80824383  0.93045800  0.91068373  1
  Li  Li108  1  0.49329145  0.43379490  0.91480472  1
  Li  Li109  1  0.29983772  0.01775112  0.88696670  1
  Li  Li110  1  0.25117566  0.27930689  0.99018849  1
  Li  Li111  1  0.25502074  0.14922591  0.92806208  1
  Li  Li112  1  0.35029912  0.61927977  0.96778320  1
  Li  Li113  1  0.77002932  0.10427333  0.96537867  1
  Li  Li114  1  0.93458691  0.64281463  0.92832934  1
  Li  Li115  1  0.45495244  0.89729959  0.95215376  1
  Li  Li116  1  0.94420230  0.35035275  0.94601901  1
  Li  Li117  1  0.80999492  0.21257967  0.89302855  1
  Li  Li118  1  0.74168349  0.47103618  0.98588387  1
  Li  Li119  1  0.31670770  0.73509223  0.90635958  1
  P  P120  1  0.11353064  0.42442979  0.14468895  1
  P  P121  1  0.11589283  0.72114919  0.04290683  1
  P  P122  1  0.80721048  0.50073617  0.06023878  1
  P  P123  1  0.79240656  0.20255184  0.15825143  1
  P  P124  1  0.61366430  0.70409876  0.15734637  1
  P  P125  1  0.59093801  0.01018414  0.05702377  1
  P  P126  1  0.29255155  0.22713169  0.04553542  1
  P  P127  1  0.28851695  0.92645694  0.14113065  1
  P  P128  1  0.11721610  0.81640268  0.34204125  1
  P  P129  1  0.10928491  0.12077509  0.24273571  1
  P  P130  1  0.79316363  0.89915813  0.25636461  1
  P  P131  1  0.79389393  0.59428641  0.35755208  1
  P  P132  1  0.61315945  0.09441787  0.35594789  1
  P  P133  1  0.61111136  0.40009222  0.25770135  1
  P  P134  1  0.29347848  0.62248491  0.24298627  1
  P  P135  1  0.29030273  0.31709946  0.34237923  1
  P  P136  1  0.10269660  0.50809367  0.44303652  1
  P  P137  1  0.77829385  0.28825314  0.45584190  1
  P  P138  1  0.65817156  0.79372048  0.45527369  1
  P  P139  1  0.30706416  0.00988189  0.44147523  1
  P  P140  1  0.70755392  0.84968747  0.64494503  1
  P  P141  1  0.70758728  0.55249700  0.54306607  1
  P  P142  1  0.01823881  0.77283426  0.56039254  1
  P  P143  1  0.02961471  0.07215361  0.65875774  1
  P  P144  1  0.20833603  0.57081605  0.65772112  1
  P  P145  1  0.23106160  0.26356727  0.55727440  1
  P  P146  1  0.52929627  0.04635105  0.54571218  1
  P  P147  1  0.53326783  0.34846042  0.64115163  1
  P  P148  1  0.71043297  0.45932554  0.84224918  1
  P  P149  1  0.71257789  0.15519245  0.74305290  1
  P  P150  1  0.02940922  0.37707331  0.75664741  1
  P  P151  1  0.03540464  0.68123018  0.85772673  1
  P  P152  1  0.21476249  0.18163013  0.85617062  1
  P  P153  1  0.21340725  0.87506211  0.75790032  1
  P  P154  1  0.53142845  0.65286769  0.74312940  1
  P  P155  1  0.53677895  0.95854679  0.84248747  1
  P  P156  1  0.72556050  0.76746636  0.94338154  1
  P  P157  1  0.04955712  0.98710898  0.95571797  1
  P  P158  1  0.17158705  0.48196654  0.95510377  1
  P  P159  1  0.52237509  0.26628258  0.94178391  1
  S  S160  1  0.24358968  0.51247464  0.13610516  1
  S  S161  1  0.22345783  0.81025923  0.03106603  1
  S  S162  1  0.71881133  0.40902343  0.07083530  1
  S  S163  1  0.69060689  0.11049400  0.16626450  1
  S  S164  1  0.74619030  0.61674145  0.16662443  1
  S  S165  1  0.72683362  0.92076957  0.06109175  1
  S  S166  1  0.20595283  0.32017021  0.03590392  1
  S  S167  1  0.18633250  0.01808893  0.13289056  1
  S  S168  1  0.15260261  0.19062831  0.07867908  1
  S  S169  1  0.15682181  0.88727294  0.17430084  1
  S  S170  1  0.71870068  0.74235369  0.12257578  1
  S  S171  1  0.69722880  0.05007129  0.02235588  1
  S  S172  1  0.66294161  0.53069112  0.02635218  1
  S  S173  1  0.65899898  0.24212380  0.12542666  1
  S  S174  1  0.21379299  0.38431079  0.17932667  1
  S  S175  1  0.23429492  0.69122854  0.07841115  1
  S  S176  1  0.68643287  0.56016138  0.08951074  1
  S  S177  1  0.23065689  0.36338791  0.11582346  1
  S  S178  1  0.25547739  0.65786542  0.01607586  1
  S  S179  1  0.19065824  0.17281817  0.01462261  1
  S  S180  1  0.17591982  0.86946939  0.11057265  1
  S  S181  1  0.71215526  0.06664614  0.08689058  1
  S  S182  1  0.78751498  0.43271637  0.14689430  1
  S  S183  1  0.79407008  0.71645849  0.04546149  1
  S  S184  1  0.13149206  0.50214237  0.05598202  1
  S  S185  1  0.11766428  0.19966435  0.15427146  1
  S  S186  1  0.28823957  0.69502061  0.15490258  1
  S  S187  1  0.26496376  0.00237269  0.05518852  1
  S  S188  1  0.61886691  0.22969076  0.05107555  1
  S  S189  1  0.61403317  0.92882529  0.14539872  1
  S  S190  1  0.25010766  0.90407432  0.33350088  1
  S  S191  1  0.24295801  0.20864819  0.23458371  1
  S  S192  1  0.69236699  0.80758863  0.26520775  1
  S  S193  1  0.68949665  0.50281213  0.36598121  1
  S  S194  1  0.74958671  0.00688474  0.36417846  1
  S  S195  1  0.74442938  0.31236780  0.26618018  1
  S  S196  1  0.19194151  0.71410187  0.23430546  1
  S  S197  1  0.18811907  0.40898334  0.33415698  1
  S  S198  1  0.16053660  0.58305721  0.27601435  1
  S  S199  1  0.15498103  0.27702776  0.37510096  1
  S  S200  1  0.71232106  0.13555769  0.32142602  1
  S  S201  1  0.71388397  0.44005516  0.22312888  1
  S  S202  1  0.65886838  0.93836214  0.22337210  1
  S  S203  1  0.66282168  0.63382875  0.32448608  1
  S  S204  1  0.21885692  0.77608333  0.37664530  1
  S  S205  1  0.21092514  0.08004498  0.27719285  1
  S  S206  1  0.68277522  0.95587985  0.28703360  1
  S  S207  1  0.67935071  0.25900375  0.18892578  1
  S  S208  1  0.22880243  0.75515471  0.31290587  1
  S  S209  1  0.22204533  0.06023052  0.21334652  1
  S  S210  1  0.18204589  0.56534286  0.21254227  1
  S  S211  1  0.18023380  0.26053788  0.31168851  1
  S  S212  1  0.72289138  0.76630932  0.18627283  1
  S  S213  1  0.72294142  0.46111148  0.28689587  1
  S  S214  1  0.79187829  0.82562546  0.34403171  1
  S  S215  1  0.78395328  0.13016130  0.24490874  1
  S  S216  1  0.11825167  0.89561141  0.25188695  1
  S  S217  1  0.11928186  0.59061464  0.35344882  1
  S  S218  1  0.28852499  0.08385287  0.35384862  1
  S  S219  1  0.28584292  0.39081738  0.25541774  1
  S  S220  1  0.61875513  0.62606857  0.24732516  1
  S  S221  1  0.61495580  0.32089147  0.34689820  1
  S  S222  1  0.25220470  0.59478034  0.43643021  1
  S  S223  1  0.67438350  0.19700830  0.46481509  1
  S  S224  1  0.82673679  0.71024871  0.46394954  1
  S  S225  1  0.19754964  0.10115146  0.43179191  1
  S  S226  1  0.18306266  0.97633662  0.47537822  1
  S  S227  1  0.73524996  0.83364341  0.41990855  1
  S  S228  1  0.64537680  0.32730913  0.42278048  1
  S  S229  1  0.18850559  0.46334570  0.47727160  1
  S  S230  1  0.67264979  0.34540851  0.48628079  1
  S  S231  1  0.68406767  0.65164773  0.38810658  1
  S  S232  1  0.21126442  0.44869823  0.41327498  1
  S  S233  1  0.19340543  0.95199948  0.41132182  1
  S  S234  1  0.72527584  0.15570278  0.38502314  1
  S  S235  1  0.73752856  0.85686386  0.48400967  1
  S  S236  1  0.77932833  0.52356001  0.44469645  1
  S  S237  1  0.10361530  0.28267124  0.45113642  1
  S  S238  1  0.34089174  0.76663741  0.45331301  1
  S  S239  1  0.63389709  0.01802375  0.44348515  1
  S  S240  1  0.57460426  0.76198421  0.63630736  1
  S  S241  1  0.60034164  0.46342965  0.53116469  1
  S  S242  1  0.10559224  0.86453363  0.57107875  1
  S  S243  1  0.12953302  0.16445599  0.66671855  1
  S  S244  1  0.07640826  0.65820416  0.66694867  1
  S  S245  1  0.09624451  0.35305930  0.56180089  1
  S  S246  1  0.61549464  0.95329471  0.53602524  1
  S  S247  1  0.63569878  0.25676085  0.63303858  1
  S  S248  1  0.67001404  0.08253410  0.57890032  1
  S  S249  1  0.66600602  0.38781789  0.67423122  1
  S  S250  1  0.10420822  0.53270809  0.62285972  1
  S  S251  1  0.12235612  0.22442875  0.52262294  1
  S  S252  1  0.16565094  0.74286230  0.52664565  1
  S  S253  1  0.16547246  0.03245218  0.62609199  1
  S  S254  1  0.60857492  0.89028195  0.67954490  1
  S  S255  1  0.58858806  0.58284325  0.57848315  1
  S  S256  1  0.13689082  0.71342389  0.58976932  1
  S  S257  1  0.59261639  0.91077674  0.61598938  1
  S  S258  1  0.57077000  0.61570250  0.51603075  1
  S  S259  1  0.63168490  0.10099699  0.51490378  1
  S  S260  1  0.64526684  0.40532337  0.61054663  1
  S  S261  1  0.11096999  0.20680698  0.58712456  1
  S  S262  1  0.03284015  0.84006359  0.64731151  1
  S  S263  1  0.02963473  0.55671465  0.54576184  1
  S  S264  1  0.69464278  0.77113364  0.55565579  1
  S  S265  1  0.70453094  0.07491044  0.65436167  1
  S  S266  1  0.53376425  0.57988148  0.65514356  1
  S  S267  1  0.55717208  0.27116714  0.55528565  1
  S  S268  1  0.20298133  0.04390316  0.55130845  1
  S  S269  1  0.20785851  0.34593657  0.64555782  1
  S  S270  1  0.57658443  0.37178341  0.83370461  1
  S  S271  1  0.57825581  0.06738307  0.73485684  1
  S  S272  1  0.13103068  0.46848312  0.76555548  1
  S  S273  1  0.13919419  0.77277244  0.86623869  1
  S  S274  1  0.07923144  0.26919862  0.86449176  1
  S  S275  1  0.07966709  0.96284065  0.76617686  1
  S  S276  1  0.63088953  0.56109635  0.73434337  1
  S  S277  1  0.63743184  0.86648692  0.83446934  1
  S  S278  1  0.66679758  0.69206781  0.77608061  1
  S  S279  1  0.67263189  0.99866747  0.87516967  1
  S  S280  1  0.11419264  0.14089843  0.82161102  1
  S  S281  1  0.11208540  0.83449352  0.72339332  1
  S  S282  1  0.16423271  0.33794876  0.72363604  1
  S  S283  1  0.16683823  0.64200443  0.82461935  1
  S  S284  1  0.60972058  0.49973010  0.87687363  1
  S  S285  1  0.60983503  0.19595237  0.77745075  1
  S  S286  1  0.14140738  0.32014501  0.78719735  1
  S  S287  1  0.14144994  0.01590333  0.68950145  1
  S  S288  1  0.59910693  0.52071801  0.81314273  1
  S  S289  1  0.60084652  0.21564170  0.71358041  1
  S  S290  1  0.64256870  0.70981961  0.71264219  1
  S  S291  1  0.64655009  0.01486591  0.81172128  1
  S  S292  1  0.09925909  0.50863193  0.68661011  1
  S  S293  1  0.10257163  0.81433300  0.78722847  1
  S  S294  1  0.03561130  0.44971745  0.84424559  1
  S  S295  1  0.03747984  0.14538929  0.74550064  1
  S  S296  1  0.70445931  0.38023641  0.75213675  1
  S  S297  1  0.70987552  0.68479674  0.85363430  1
  S  S298  1  0.53964668  0.19170467  0.85413366  1
  S  S299  1  0.53866901  0.88469852  0.75565069  1
  S  S300  1  0.20647525  0.64963900  0.74778348  1
  S  S301  1  0.21171615  0.95542680  0.84693991  1
  S  S302  1  0.57514046  0.68086946  0.93693441  1
  S  S303  1  0.15234884  0.07838020  0.96468335  1
  S  S304  1  0.00010391  0.56477408  0.96358939  1
  S  S305  1  0.63293857  0.17488596  0.93247115  1
  S  S306  1  0.64346542  0.30053324  0.97571715  1
  S  S307  1  0.09716450  0.44148851  0.91975103  1
  S  S308  1  0.18275001  0.94806908  0.92266880  1
  S  S309  1  0.64075496  0.81254479  0.97758961  1
  S  S310  1  0.15526388  0.93029331  0.98628258  1
  S  S311  1  0.14557840  0.62385259  0.88821528  1
  S  S312  1  0.61655701  0.82668390  0.91355767  1
  S  S313  1  0.63785348  0.32372981  0.91161669  1
  S  S314  1  0.10289699  0.12024214  0.88523807  1
  S  S315  1  0.09346386  0.41872264  0.98393984  1
  S  S316  1  0.04877786  0.75161501  0.94486049  1
  S  S317  1  0.72412996  0.99235655  0.95114137  1
  S  S318  1  0.48832266  0.50961016  0.95356130  1
  S  S319  1  0.19544656  0.25761439  0.94331588  1
