# generated using pymatgen
data_Li3PS4
_symmetry_space_group_name_H-M   'P 1'
_cell_length_a   6.25995100
_cell_length_b   20.81799400
_cell_length_c   51.16997649
_cell_angle_alpha   90.00000000
_cell_angle_beta   90.00000000
_cell_angle_gamma   90.00000000
_symmetry_Int_Tables_number   1
_chemical_formula_structural   Li3PS4
_chemical_formula_sum   'Li120 P40 S160'
_cell_volume   6668.45201256
_cell_formula_units_Z   40
loop_
 _symmetry_equiv_pos_site_id
 _symmetry_equiv_pos_as_xyz
  1  'x, y, z'
loop_
 _atom_site_type_symbol
 _atom_site_label
 _atom_site_symmetry_multiplicity
 _atom_site_fract_x
 _atom_site_fract_y
 _atom_site_fract_z
 _atom_site_occupancy
  Li  Li0  1  0.88447683  0.68079384  0.08803139  1
  Li  Li1  1  0.07864914  0.26802462  0.11293465  1
  Li  Li2  1  0.10285391  0.56933179  0.01320502  1
  Li  Li3  1  0.34090327  0.06805436  0.01521394  1
  Li  Li4  1  0.36818510  0.76622343  0.11655147  1
  Li  Li5  1  0.56671007  0.17886144  0.09026505  1
  Li  Li6  1  0.61043509  0.34158977  0.03164125  1
  Li  Li7  1  0.61318849  0.04808987  0.13035639  1
  Li  Li8  1  0.40543845  0.59161714  0.17056393  1
  Li  Li9  1  0.43319555  0.89171169  0.07248702  1
  Li  Li10  1  0.11165086  0.39999105  0.06964350  1
  Li  Li11  1  0.11965624  0.09848603  0.16964658  1
  Li  Li12  1  0.90597138  0.55368513  0.13069582  1
  Li  Li13  1  0.09018595  0.92481291  0.02972714  1
  Li  Li14  1  0.43014640  0.30667534  0.15367351  1
  Li  Li15  1  0.43038948  0.60947153  0.05483613  1
  Li  Li16  1  0.91431737  0.14352088  0.04706108  1
  Li  Li17  1  0.93294332  0.83919880  0.14758527  1
  Li  Li18  1  0.04170619  0.98353549  0.09443990  1
  Li  Li19  1  0.55779551  0.46213236  0.10546663  1
  Li  Li20  1  0.59922522  0.73870574  0.01681604  1
  Li  Li21  1  0.87482132  0.07731670  0.28565699  1
  Li  Li22  1  0.86526794  0.38038327  0.18536866  1
  Li  Li23  1  0.11110892  0.65839237  0.31431411  1
  Li  Li24  1  0.09108175  0.96405772  0.21251251  1
  Li  Li25  1  0.37045353  0.46380034  0.21445473  1
  Li  Li26  1  0.39899188  0.16120698  0.31163583  1
  Li  Li27  1  0.58311313  0.87829177  0.18806322  1
  Li  Li28  1  0.58376160  0.57342600  0.28748053  1
  Li  Li29  1  0.61991468  0.74421447  0.23063432  1
  Li  Li30  1  0.57833613  0.44639676  0.32898576  1
  Li  Li31  1  0.37065863  0.99020691  0.36887930  1
  Li  Li32  1  0.37922035  0.29411201  0.27004559  1
  Li  Li33  1  0.09537906  0.79032851  0.26984027  1
  Li  Li34  1  0.06965845  0.48395729  0.37034437  1
  Li  Li35  1  0.87415956  0.94058824  0.32987852  1
  Li  Li36  1  0.90537997  0.25116397  0.23005640  1
  Li  Li37  1  0.55634159  0.73059871  0.34681017  1
  Li  Li38  1  0.44656986  0.00782822  0.25170020  1
  Li  Li39  1  0.94214613  0.53263300  0.24813418  1
  Li  Li40  1  0.05524103  0.19966244  0.35228710  1
  Li  Li41  1  0.05626694  0.68177047  0.19507496  1
  Li  Li42  1  0.94301831  0.36031572  0.30372122  1
  Li  Li43  1  0.45358692  0.87257594  0.29590809  1
  Li  Li44  1  0.55701644  0.16014697  0.20633560  1
  Li  Li45  1  0.86961719  0.49714719  0.49239790  1
  Li  Li46  1  0.91608016  0.76554279  0.38703145  1
  Li  Li47  1  0.10269450  0.35551455  0.41258852  1
  Li  Li48  1  0.42143429  0.85607478  0.41105771  1
  Li  Li49  1  0.61504057  0.27087735  0.38314742  1
  Li  Li50  1  0.63661627  0.97289870  0.48447789  1
  Li  Li51  1  0.59250937  0.14276042  0.42874365  1
  Li  Li52  1  0.34630120  0.69081759  0.46527757  1
  Li  Li53  1  0.07235585  0.17944267  0.46178038  1
  Li  Li54  1  0.84610545  0.63636318  0.43123756  1
  Li  Li55  1  0.54674468  0.43029012  0.44722555  1
  Li  Li56  1  0.05923752  0.89564007  0.45146415  1
  Li  Li57  1  0.93848284  0.05218141  0.40375289  1
  Li  Li58  1  0.41346291  0.28782542  0.48956628  1
  Li  Li59  1  0.41762523  0.57421896  0.39404558  1
  Li  Li60  1  0.06330854  0.09460631  0.58831641  1
  Li  Li61  1  0.87715505  0.50596278  0.61305574  1
  Li  Li62  1  0.84507500  0.20570212  0.51333214  1
  Li  Li63  1  0.61058301  0.70667017  0.51562497  1
  Li  Li64  1  0.57964535  0.00914257  0.61653030  1
  Li  Li65  1  0.38102102  0.59597102  0.59044665  1
  Li  Li66  1  0.33440137  0.43334324  0.53161446  1
  Li  Li67  1  0.33477317  0.72764747  0.63062423  1
  Li  Li68  1  0.54153041  0.18390449  0.67048587  1
  Li  Li69  1  0.51082107  0.88333368  0.57264981  1
  Li  Li70  1  0.83340475  0.37501499  0.56965078  1
  Li  Li71  1  0.83344217  0.67618399  0.66969354  1
  Li  Li72  1  0.04294823  0.22158003  0.63070080  1
  Li  Li73  1  0.84933227  0.85147906  0.53033374  1
  Li  Li74  1  0.52382294  0.46961622  0.65409449  1
  Li  Li75  1  0.51622570  0.16665375  0.55511993  1
  Li  Li76  1  0.03417638  0.63055542  0.54768690  1
  Li  Li77  1  0.01479022  0.93717937  0.64784033  1
  Li  Li78  1  0.90472087  0.79103242  0.59459025  1
  Li  Li79  1  0.39217028  0.31381448  0.60560345  1
  Li  Li80  1  0.34875069  0.03717730  0.51716666  1
  Li  Li81  1  0.07419610  0.69862089  0.78577211  1
  Li  Li82  1  0.08375799  0.39376906  0.68575384  1
  Li  Li83  1  0.83730216  0.11586043  0.81440318  1
  Li  Li84  1  0.85800130  0.81126795  0.71248552  1
  Li  Li85  1  0.57828576  0.31166014  0.71447919  1
  Li  Li86  1  0.55059767  0.61303524  0.81135570  1
  Li  Li87  1  0.36893686  0.89752087  0.68817716  1
  Li  Li88  1  0.36194359  0.20021176  0.78796619  1
  Li  Li89  1  0.33248796  0.03149007  0.73040291  1
  Li  Li90  1  0.37579142  0.32823243  0.82916395  1
  Li  Li91  1  0.58344753  0.78365258  0.86825918  1
  Li  Li92  1  0.57700221  0.48064591  0.76999043  1
  Li  Li93  1  0.85796668  0.98435981  0.76928399  1
  Li  Li94  1  0.87999782  0.29047664  0.87030162  1
  Li  Li95  1  0.08260101  0.83376202  0.82973495  1
  Li  Li96  1  0.05164318  0.52421729  0.73071615  1
  Li  Li97  1  0.39732549  0.04294870  0.84643546  1
  Li  Li98  1  0.49194885  0.76383125  0.75077358  1
  Li  Li99  1  0.00440260  0.24291975  0.74823913  1
  Li  Li100  1  0.89647847  0.57561595  0.85196846  1
  Li  Li101  1  0.89317617  0.09450092  0.69519170  1
  Li  Li102  1  0.01151991  0.41374471  0.80431664  1
  Li  Li103  1  0.50105699  0.90029832  0.79527253  1
  Li  Li104  1  0.39870208  0.61339477  0.70606582  1
  Li  Li105  1  0.07907250  0.27849609  0.99222525  1
  Li  Li106  1  0.03666878  0.00961517  0.88661447  1
  Li  Li107  1  0.84555554  0.41926177  0.91281903  1
  Li  Li108  1  0.52767843  0.91851181  0.91082198  1
  Li  Li109  1  0.33619170  0.50417066  0.88319481  1
  Li  Li110  1  0.31026159  0.80201039  0.98435003  1
  Li  Li111  1  0.35859721  0.63282511  0.92878091  1
  Li  Li112  1  0.61023681  0.08341802  0.96529418  1
  Li  Li113  1  0.87643661  0.59535304  0.96170822  1
  Li  Li114  1  0.10353354  0.13900325  0.93127432  1
  Li  Li115  1  0.40224437  0.34509779  0.94720246  1
  Li  Li116  1  0.88976857  0.87967619  0.95144058  1
  Li  Li117  1  0.01319517  0.72385285  0.90373055  1
  Li  Li118  1  0.53650995  0.48725706  0.98964477  1
  Li  Li119  1  0.53002125  0.20070099  0.89407895  1
  P  P120  1  0.15241204  0.43448168  0.14244948  1
  P  P121  1  0.16478549  0.73721432  0.04650519  1
  P  P122  1  0.83831104  0.51615832  0.05653933  1
  P  P123  1  0.83323095  0.21254256  0.15775282  1
  P  P124  1  0.65320466  0.71184813  0.15834834  1
  P  P125  1  0.64915251  0.01503215  0.05596096  1
  P  P126  1  0.31785519  0.23213411  0.04545959  1
  P  P127  1  0.33465484  0.93369361  0.14309016  1
  P  P128  1  0.15423806  0.82603336  0.34234139  1
  P  P129  1  0.15272623  0.13104565  0.24250114  1
  P  P130  1  0.83454920  0.90900772  0.25743332  1
  P  P131  1  0.82640077  0.60317588  0.35725307  1
  P  P132  1  0.64984531  0.10516107  0.35598981  1
  P  P133  1  0.64108134  0.40875104  0.25651284  1
  P  P134  1  0.33763078  0.63026536  0.24328492  1
  P  P135  1  0.33176926  0.32722702  0.34196051  1
  P  P136  1  0.13062048  0.52029491  0.44291269  1
  P  P137  1  0.82171799  0.30278954  0.45652011  1
  P  P138  1  0.65964554  0.80185978  0.45672589  1
  P  P139  1  0.34728830  0.02355272  0.44043676  1
  P  P140  1  0.79731168  0.34053257  0.64250891  1
  P  P141  1  0.78218025  0.03851074  0.54676006  1
  P  P142  1  0.10874760  0.25926906  0.55663611  1
  P  P143  1  0.11851762  0.56230059  0.65799661  1
  P  P144  1  0.29534264  0.06360764  0.65841470  1
  P  P145  1  0.29805396  0.75943587  0.55612683  1
  P  P146  1  0.62951629  0.54223506  0.54575053  1
  P  P147  1  0.61414208  0.84178017  0.64310955  1
  P  P148  1  0.79969256  0.94818558  0.84204159  1
  P  P149  1  0.80154179  0.64423598  0.74237494  1
  P  P150  1  0.11747010  0.86630558  0.75708021  1
  P  P151  1  0.12414494  0.17118784  0.85730392  1
  P  P152  1  0.30241181  0.66954635  0.85589788  1
  P  P153  1  0.31142907  0.36610478  0.75706814  1
  P  P154  1  0.61090659  0.14503301  0.74344305  1
  P  P155  1  0.61979102  0.44793372  0.84219075  1
  P  P156  1  0.81796099  0.25499294  0.94278917  1
  P  P157  1  0.12766251  0.47237510  0.95649307  1
  P  P158  1  0.29165098  0.97307598  0.95645255  1
  P  P159  1  0.60244179  0.75193302  0.94023346  1
  S  S160  1  0.28388232  0.52259775  0.13405970  1
  S  S161  1  0.32557335  0.82054463  0.03658577  1
  S  S162  1  0.72593633  0.42497937  0.06363751  1
  S  S163  1  0.73216594  0.12051603  0.16604434  1
  S  S164  1  0.78367412  0.62367191  0.16662572  1
  S  S165  1  0.79306941  0.92738544  0.06205235  1
  S  S166  1  0.22220245  0.32433333  0.03588127  1
  S  S167  1  0.22817891  0.02462812  0.13424300  1
  S  S168  1  0.18958807  0.19483643  0.07913835  1
  S  S169  1  0.75528954  0.75131980  0.12368006  1
  S  S170  1  0.73997888  0.05555888  0.02159841  1
  S  S171  1  0.71240398  0.55762211  0.02300153  1
  S  S172  1  0.70122996  0.25126110  0.12459944  1
  S  S173  1  0.27290118  0.69557759  0.08061169  1
  S  S174  1  0.72298991  0.57149955  0.08723909  1
  S  S175  1  0.26490828  0.37350195  0.11324463  1
  S  S176  1  0.25570929  0.67766718  0.01595239  1
  S  S177  1  0.20541450  0.17716096  0.01523995  1
  S  S178  1  0.22162087  0.87576922  0.11285963  1
  S  S179  1  0.75489533  0.07354748  0.08634295  1
  S  S180  1  0.82616191  0.44276348  0.14435306  1
  S  S181  1  0.84760769  0.75259534  0.05130324  1
  S  S182  1  0.16398795  0.51158777  0.05382366  1
  S  S183  1  0.15896152  0.20963809  0.15410954  1
  S  S184  1  0.32737794  0.70352314  0.15657331  1
  S  S185  1  0.31935012  0.00309603  0.05629394  1
  S  S186  1  0.64494157  0.23663745  0.04975791  1
  S  S187  1  0.66046521  0.93742990  0.14672178  1
  S  S188  1  0.25738081  0.91741478  0.33342053  1
  S  S189  1  0.28257563  0.21886183  0.23408713  1
  S  S190  1  0.71867962  0.81932142  0.26611630  1
  S  S191  1  0.69297369  0.51556697  0.36564244  1
  S  S192  1  0.75469832  0.01365339  0.36446243  1
  S  S193  1  0.76080672  0.31857852  0.26476604  1
  S  S194  1  0.23422836  0.72213804  0.23487174  1
  S  S195  1  0.20006193  0.41542976  0.33411641  1
  S  S196  1  0.20722588  0.59101222  0.27644084  1
  S  S197  1  0.20585027  0.89456745  0.17643256  1
  S  S198  1  0.77784436  0.14558068  0.32297622  1
  S  S199  1  0.75637315  0.44886952  0.22246887  1
  S  S200  1  0.71506482  0.94831594  0.22360507  1
  S  S201  1  0.72527280  0.64293734  0.32244399  1
  S  S202  1  0.25304504  0.39513806  0.17720894  1
  S  S203  1  0.25783490  0.09080884  0.27700863  1
  S  S204  1  0.71722610  0.96784842  0.28709193  1
  S  S205  1  0.71901129  0.26947243  0.18818089  1
  S  S206  1  0.26773630  0.76846363  0.31194732  1
  S  S207  1  0.26740966  0.06991337  0.21325977  1
  S  S208  1  0.22087927  0.57369721  0.21285423  1
  S  S209  1  0.21698558  0.26642511  0.31275759  1
  S  S210  1  0.76780955  0.77310830  0.18741180  1
  S  S211  1  0.75765432  0.46734708  0.28647868  1
  S  S212  1  0.82929307  0.82920562  0.34646910  1
  S  S213  1  0.82722860  0.13888311  0.24493690  1
  S  S214  1  0.16203923  0.90366613  0.25430056  1
  S  S215  1  0.15194406  0.59473096  0.35488049  1
  S  S216  1  0.32444573  0.10098410  0.35242598  1
  S  S217  1  0.31739060  0.40339903  0.25458152  1
  S  S218  1  0.66296993  0.63349579  0.24678114  1
  S  S219  1  0.65723082  0.33536907  0.34350716  1
  S  S220  1  0.23066382  0.61258402  0.43328624  1
  S  S221  1  0.69939460  0.21203917  0.46667727  1
  S  S222  1  0.73579608  0.70959119  0.46803769  1
  S  S223  1  0.22093868  0.11144970  0.42976329  1
  S  S224  1  0.23817344  0.98919341  0.47552092  1
  S  S225  1  0.22988141  0.28654911  0.37655255  1
  S  S226  1  0.79636386  0.83332604  0.42242443  1
  S  S227  1  0.71473054  0.33716466  0.42140443  1
  S  S228  1  0.28809179  0.78721338  0.37534079  1
  S  S229  1  0.25868258  0.48651912  0.47661398  1
  S  S230  1  0.72105816  0.36270762  0.48533586  1
  S  S231  1  0.71394809  0.66467958  0.38625767  1
  S  S232  1  0.25193882  0.46428733  0.41236322  1
  S  S233  1  0.22859441  0.96105750  0.41223974  1
  S  S234  1  0.76710209  0.16227052  0.38629321  1
  S  S235  1  0.77818849  0.86460784  0.48425495  1
  S  S236  1  0.80411312  0.52517409  0.44543234  1
  S  S237  1  0.14875683  0.29104495  0.45286774  1
  S  S238  1  0.33333726  0.80257165  0.45227684  1
  S  S239  1  0.67254266  0.03156880  0.44238886  1
  S  S240  1  0.66529811  0.25260686  0.63396208  1
  S  S241  1  0.61981389  0.95524430  0.53698830  1
  S  S242  1  0.22060741  0.35043209  0.56381558  1
  S  S243  1  0.22045227  0.65420639  0.66629191  1
  S  S244  1  0.16461020  0.15182619  0.66665051  1
  S  S245  1  0.15252988  0.84696619  0.56196121  1
  S  S246  1  0.72383360  0.45017550  0.53587450  1
  S  S247  1  0.72001311  0.75064317  0.63441503  1
  S  S248  1  0.75797861  0.57892628  0.57952448  1
  S  S249  1  0.19285847  0.02417830  0.62374877  1
  S  S250  1  0.21053765  0.71783480  0.52191295  1
  S  S251  1  0.23528603  0.21786237  0.52311457  1
  S  S252  1  0.25166712  0.52348065  0.62494403  1
  S  S253  1  0.67451815  0.08047434  0.58080745  1
  S  S254  1  0.22387187  0.20388420  0.58731842  1
  S  S255  1  0.68560428  0.40185631  0.61339322  1
  S  S256  1  0.69206172  0.09775693  0.51610068  1
  S  S257  1  0.74283733  0.59759486  0.51568324  1
  S  S258  1  0.72651184  0.89947114  0.61280427  1
  S  S259  1  0.19328915  0.70130707  0.58669490  1
  S  S260  1  0.12351620  0.33226803  0.64452479  1
  S  S261  1  0.09900185  0.02259939  0.55152456  1
  S  S262  1  0.78303069  0.26376720  0.55382334  1
  S  S263  1  0.79300928  0.56551787  0.65403533  1
  S  S264  1  0.62094040  0.07206231  0.65659530  1
  S  S265  1  0.62779614  0.77222500  0.55658110  1
  S  S266  1  0.30233644  0.53783605  0.55007875  1
  S  S267  1  0.28845549  0.83837857  0.64679429  1
  S  S268  1  0.69760980  0.85669199  0.83307328  1
  S  S269  1  0.67385125  0.55604829  0.73394852  1
  S  S270  1  0.23432102  0.95576344  0.76585394  1
  S  S271  1  0.25672358  0.25907010  0.86542171  1
  S  S272  1  0.19880534  0.76115430  0.86439935  1
  S  S273  1  0.19412171  0.45653006  0.76543126  1
  S  S274  1  0.71601067  0.05341644  0.73482551  1
  S  S275  1  0.75193526  0.35968618  0.83442391  1
  S  S276  1  0.74080019  0.18405838  0.77665624  1
  S  S277  1  0.74385832  0.88102290  0.67640534  1
  S  S278  1  0.17300010  0.62973230  0.82282521  1
  S  S279  1  0.19357750  0.32653200  0.72301885  1
  S  S280  1  0.23518844  0.82695060  0.72315060  1
  S  S281  1  0.22416397  0.13076550  0.82255805  1
  S  S282  1  0.69627010  0.37971371  0.67729844  1
  S  S283  1  0.69272952  0.68412101  0.77673395  1
  S  S284  1  0.23582594  0.80712633  0.78665252  1
  S  S285  1  0.23136159  0.50512951  0.68842736  1
  S  S286  1  0.68630931  0.00558898  0.81161228  1
  S  S287  1  0.68623212  0.70487618  0.71303249  1
  S  S288  1  0.72643259  0.20170493  0.71292478  1
  S  S289  1  0.73502116  0.50840390  0.81289066  1
  S  S290  1  0.18122727  0.00239955  0.68748135  1
  S  S291  1  0.19369819  0.30748247  0.78692274  1
  S  S292  1  0.12448291  0.94503644  0.84640074  1
  S  S293  1  0.12737195  0.63701015  0.74501363  1
  S  S294  1  0.79020627  0.87130024  0.75409472  1
  S  S295  1  0.79854952  0.17942994  0.85503611  1
  S  S296  1  0.62784349  0.67341739  0.85207645  1
  S  S297  1  0.63501412  0.37072209  0.75495827  1
  S  S298  1  0.28546078  0.14149491  0.74689259  1
  S  S299  1  0.29437733  0.43944005  0.84374444  1
  S  S300  1  0.71862673  0.16255745  0.93333795  1
  S  S301  1  0.24919239  0.56318360  0.96666580  1
  S  S302  1  0.21774428  0.06549044  0.96779395  1
  S  S303  1  0.72988747  0.66405501  0.92975268  1
  S  S304  1  0.70981956  0.78678598  0.97531988  1
  S  S305  1  0.72127500  0.48889111  0.87670649  1
  S  S306  1  0.15419049  0.94174505  0.92219426  1
  S  S307  1  0.23431839  0.43812433  0.92134756  1
  S  S308  1  0.66506833  0.98704144  0.87500352  1
  S  S309  1  0.69052502  0.28923056  0.97645438  1
  S  S310  1  0.22889331  0.41248798  0.98530227  1
  S  S311  1  0.23824077  0.11018834  0.88636979  1
  S  S312  1  0.69619073  0.31060033  0.91216719  1
  S  S313  1  0.72107103  0.81401414  0.91191746  1
  S  S314  1  0.18510153  0.61265225  0.88621318  1
  S  S315  1  0.17266277  0.91055387  0.98402647  1
  S  S316  1  0.14457430  0.25042921  0.94513527  1
  S  S317  1  0.80043404  0.48376891  0.95291320  1
  S  S318  1  0.61797826  0.97210465  0.95191255  1
  S  S319  1  0.27712098  0.74362262  0.94221735  1
