# generated using pymatgen
data_Li3PS4
_symmetry_space_group_name_H-M   'P 1'
_cell_length_a   6.25995100
_cell_length_b   20.81799400
_cell_length_c   51.19594445
_cell_angle_alpha   90.00000000
_cell_angle_beta   90.00000000
_cell_angle_gamma   90.00000000
_symmetry_Int_Tables_number   1
_chemical_formula_structural   Li3PS4
_chemical_formula_sum   'Li120 P40 S160'
_cell_volume   6671.83614651
_cell_formula_units_Z   40
loop_
 _symmetry_equiv_pos_site_id
 _symmetry_equiv_pos_as_xyz
  1  'x, y, z'
loop_
 _atom_site_type_symbol
 _atom_site_label
 _atom_site_symmetry_multiplicity
 _atom_site_fract_x
 _atom_site_fract_y
 _atom_site_fract_z
 _atom_site_occupancy
  Li  Li0  1  0.83738557  0.77027428  0.08586064  1
  Li  Li1  1  0.02528062  0.35408498  0.11341286  1
  Li  Li2  1  0.06966122  0.61851335  0.01001363  1
  Li  Li3  1  0.28818812  0.15262710  0.01371553  1
  Li  Li4  1  0.33113406  0.85030188  0.11631505  1
  Li  Li5  1  0.52107207  0.26699956  0.08875411  1
  Li  Li6  1  0.55522685  0.44168554  0.03494977  1
  Li  Li7  1  0.57333292  0.13192281  0.12995451  1
  Li  Li8  1  0.39200365  0.97911525  0.07179687  1
  Li  Li9  1  0.07469424  0.48566102  0.07217534  1
  Li  Li10  1  0.87381585  0.63828996  0.13080479  1
  Li  Li11  1  0.97548652  0.95527622  0.03248025  1
  Li  Li12  1  0.38266248  0.38752240  0.15452376  1
  Li  Li13  1  0.38526948  0.68732235  0.05474761  1
  Li  Li14  1  0.87287231  0.23338093  0.04790797  1
  Li  Li15  1  0.88728510  0.92431695  0.14743553  1
  Li  Li16  1  0.01325941  0.07172867  0.09371043  1
  Li  Li17  1  0.51608834  0.54839769  0.10760546  1
  Li  Li18  1  0.58364653  0.80849557  0.01405068  1
  Li  Li19  1  0.82997564  0.15485463  0.28471317  1
  Li  Li20  1  0.82313634  0.46173789  0.18624359  1
  Li  Li21  1  0.03417830  0.74138161  0.31313078  1
  Li  Li22  1  0.03536312  0.04593602  0.21204772  1
  Li  Li23  1  0.32665455  0.54577839  0.21516215  1
  Li  Li24  1  0.33287173  0.24167441  0.31264402  1
  Li  Li25  1  0.53571219  0.96089137  0.18818166  1
  Li  Li26  1  0.53582325  0.65566555  0.28893004  1
  Li  Li27  1  0.58150075  0.82557421  0.23071593  1
  Li  Li28  1  0.58007813  0.52165078  0.33001983  1
  Li  Li29  1  0.37443849  0.67459736  0.17123228  1
  Li  Li30  1  0.36909810  0.37020627  0.26909302  1
  Li  Li31  1  0.08256351  0.87531722  0.27065080  1
  Li  Li32  1  0.07454671  0.18017354  0.16997790  1
  Li  Li33  1  0.86268806  0.02533096  0.32969140  1
  Li  Li34  1  0.86995579  0.33195246  0.22995659  1
  Li  Li35  1  0.38836776  0.77909816  0.35473435  1
  Li  Li36  1  0.38865127  0.08304132  0.25341014  1
  Li  Li37  1  0.88733922  0.61980130  0.24700028  1
  Li  Li38  1  0.88919983  0.31475454  0.34486817  1
  Li  Li39  1  0.01822023  0.76622245  0.19456011  1
  Li  Li40  1  0.01790814  0.46114370  0.29327553  1
  Li  Li41  1  0.51829564  0.93478029  0.30641187  1
  Li  Li42  1  0.51767886  0.24035850  0.20631578  1
  Li  Li43  1  0.80280286  0.55288555  0.48887025  1
  Li  Li44  1  0.83352864  0.85006591  0.38538468  1
  Li  Li45  1  0.03218790  0.43886577  0.40899308  1
  Li  Li46  1  0.35081035  0.94327777  0.41228515  1
  Li  Li47  1  0.53653289  0.35089135  0.38612140  1
  Li  Li48  1  0.53227155  0.05262440  0.48537578  1
  Li  Li49  1  0.60724483  0.22018217  0.42796664  1
  Li  Li50  1  0.37244507  0.06690769  0.36805463  1
  Li  Li51  1  0.37714559  0.66231341  0.48119146  1
  Li  Li52  1  0.09140786  0.27235239  0.46247822  1
  Li  Li53  1  0.07262016  0.57142281  0.36907470  1
  Li  Li54  1  0.84774599  0.72412633  0.43400736  1
  Li  Li55  1  0.39525431  0.47189027  0.45299914  1
  Li  Li56  1  0.90497153  0.01481714  0.44437136  1
  Li  Li57  1  0.02739813  0.15872326  0.39061773  1
  Li  Li58  1  0.02736746  0.86679733  0.48626925  1
  Li  Li59  1  0.49996386  0.63340020  0.40636460  1
  Li  Li60  1  0.99059915  0.18050784  0.58593556  1
  Li  Li61  1  0.79776407  0.59655750  0.61295405  1
  Li  Li62  1  0.75380529  0.33123493  0.50990443  1
  Li  Li63  1  0.53728620  0.79709689  0.51324555  1
  Li  Li64  1  0.49944411  0.09996795  0.61627400  1
  Li  Li65  1  0.30556902  0.68322432  0.58868305  1
  Li  Li66  1  0.26676066  0.50833397  0.53503742  1
  Li  Li67  1  0.25055636  0.81832511  0.63017200  1
  Li  Li68  1  0.43655135  0.97052415  0.57133131  1
  Li  Li69  1  0.74907771  0.46447448  0.57189991  1
  Li  Li70  1  0.95154131  0.31210210  0.63048754  1
  Li  Li71  1  0.85720749  0.99601401  0.53216524  1
  Li  Li72  1  0.44141276  0.56245031  0.65401800  1
  Li  Li73  1  0.44059081  0.26280490  0.55471002  1
  Li  Li74  1  0.95390514  0.71592443  0.54748394  1
  Li  Li75  1  0.93741476  0.02653762  0.64681689  1
  Li  Li76  1  0.81334425  0.87762788  0.59304660  1
  Li  Li77  1  0.30735836  0.40295456  0.60753140  1
  Li  Li78  1  0.24890860  0.14139454  0.51404788  1
  Li  Li79  1  0.99858422  0.79453764  0.78431850  1
  Li  Li80  1  0.00144145  0.48855003  0.68602671  1
  Li  Li81  1  0.79343466  0.20822801  0.81285724  1
  Li  Li82  1  0.79267019  0.90333850  0.71178277  1
  Li  Li83  1  0.49632286  0.40442921  0.71455087  1
  Li  Li84  1  0.49903198  0.70839027  0.81261772  1
  Li  Li85  1  0.29315030  0.99006024  0.68757525  1
  Li  Li86  1  0.29217851  0.29471933  0.78885578  1
  Li  Li87  1  0.24419280  0.12443198  0.73041053  1
  Li  Li88  1  0.24163744  0.42785191  0.83041318  1
  Li  Li89  1  0.45237329  0.27618343  0.67109514  1
  Li  Li90  1  0.45783114  0.57923709  0.76907950  1
  Li  Li91  1  0.74118973  0.07363030  0.77007162  1
  Li  Li92  1  0.74845260  0.76961126  0.66970581  1
  Li  Li93  1  0.95270465  0.92238785  0.82908816  1
  Li  Li94  1  0.95625170  0.61793663  0.73001587  1
  Li  Li95  1  0.44070901  0.17111459  0.85416369  1
  Li  Li96  1  0.43677756  0.86801554  0.75296352  1
  Li  Li97  1  0.93670289  0.33068730  0.74720969  1
  Li  Li98  1  0.93509519  0.63489563  0.84458534  1
  Li  Li99  1  0.80361692  0.18603628  0.69430829  1
  Li  Li100  1  0.80808583  0.48768544  0.79286797  1
  Li  Li101  1  0.30123638  0.01430412  0.80644976  1
  Li  Li102  1  0.30669912  0.70906724  0.70647424  1
  Li  Li103  1  0.01751254  0.39726978  0.98890390  1
  Li  Li104  1  0.98858594  0.09958073  0.88506405  1
  Li  Li105  1  0.79459925  0.51005528  0.90900768  1
  Li  Li106  1  0.47159609  0.00759683  0.91180382  1
  Li  Li107  1  0.29110656  0.59979064  0.88600723  1
  Li  Li108  1  0.29391088  0.89608555  0.98557030  1
  Li  Li109  1  0.21771645  0.72981891  0.92793811  1
  Li  Li110  1  0.45444412  0.88252736  0.86817039  1
  Li  Li111  1  0.44523812  0.28741863  0.98143223  1
  Li  Li112  1  0.73555186  0.67754421  0.96195877  1
  Li  Li113  1  0.74633305  0.37842645  0.86895549  1
  Li  Li114  1  0.97233184  0.22502438  0.93402829  1
  Li  Li115  1  0.42883445  0.47798362  0.95261536  1
  Li  Li116  1  0.91694181  0.93661659  0.94471347  1
  Li  Li117  1  0.80024382  0.79146691  0.89060033  1
  Li  Li118  1  0.79708417  0.08069448  0.98680934  1
  Li  Li119  1  0.31991542  0.31637871  0.90680682  1
  P  P120  1  0.11187194  0.51701951  0.14426659  1
  P  P121  1  0.15550048  0.81858562  0.04505860  1
  P  P122  1  0.80491661  0.60236692  0.05874213  1
  P  P123  1  0.60173185  0.10360715  0.05679117  1
  P  P124  1  0.27699815  0.32397408  0.04398090  1
  P  P125  1  0.29224188  0.01750358  0.14254408  1
  P  P126  1  0.11298787  0.90711163  0.34267871  1
  P  P127  1  0.11075063  0.21132525  0.24229353  1
  P  P128  1  0.79485104  0.98901377  0.25732378  1
  P  P129  1  0.78900550  0.29395754  0.15769503  1
  P  P130  1  0.61467913  0.79542730  0.15822748  1
  P  P131  1  0.61108825  0.49077978  0.25732888  1
  P  P132  1  0.29485335  0.71269374  0.24356146  1
  P  P133  1  0.29447677  0.40792069  0.34132064  1
  P  P134  1  0.09150287  0.60029151  0.44259869  1
  P  P135  1  0.79620151  0.38388792  0.45425515  1
  P  P136  1  0.79014697  0.68491169  0.35858939  1
  P  P137  1  0.61552469  0.18638213  0.35506208  1
  P  P138  1  0.61777335  0.89130203  0.45677906  1
  P  P139  1  0.30777424  0.11141430  0.43964526  1
  P  P140  1  0.71314232  0.43334002  0.64401932  1
  P  P141  1  0.67438559  0.13212172  0.54498325  1
  P  P142  1  0.02032342  0.34799429  0.55864695  1
  P  P143  1  0.22455896  0.84578489  0.55636726  1
  P  P144  1  0.54689814  0.62591594  0.54378222  1
  P  P145  1  0.53504439  0.93229441  0.64218202  1
  P  P146  1  0.70946043  0.04239495  0.84244203  1
  P  P147  1  0.71411946  0.73895149  0.74211708  1
  P  P148  1  0.03094022  0.96132542  0.75698398  1
  P  P149  1  0.03457731  0.65588745  0.65760581  1
  P  P150  1  0.21068614  0.15508979  0.65803340  1
  P  P151  1  0.21373093  0.45923838  0.75700960  1
  P  P152  1  0.53056085  0.23732507  0.74350803  1
  P  P153  1  0.52991993  0.54148032  0.84119237  1
  P  P154  1  0.72922744  0.34932883  0.94265914  1
  P  P155  1  0.02765586  0.56606454  0.95420453  1
  P  P156  1  0.03424539  0.26496245  0.85859830  1
  P  P157  1  0.20900604  0.76336567  0.85486622  1
  P  P158  1  0.20705994  0.05926125  0.95686834  1
  P  P159  1  0.51680278  0.83865873  0.93950255  1
  S  S160  1  0.24786001  0.60456552  0.13596603  1
  S  S161  1  0.32601677  0.90153229  0.03632556  1
  S  S162  1  0.69562937  0.51083611  0.06818318  1
  S  S163  1  0.75221588  0.01710823  0.06345645  1
  S  S164  1  0.17398777  0.41530409  0.03504856  1
  S  S165  1  0.18778667  0.10891505  0.13399368  1
  S  S166  1  0.14516116  0.28528137  0.07720108  1
  S  S167  1  0.71754636  0.83601831  0.12373302  1
  S  S168  1  0.68740091  0.14840913  0.02253743  1
  S  S169  1  0.68133801  0.63650360  0.02492311  1
  S  S170  1  0.65278052  0.33373650  0.12494210  1
  S  S171  1  0.23189171  0.77891241  0.08051977  1
  S  S172  1  0.69145996  0.65986826  0.08902411  1
  S  S173  1  0.22402931  0.45591985  0.11510954  1
  S  S174  1  0.23370842  0.75500956  0.01637227  1
  S  S175  1  0.17190004  0.26674891  0.01353981  1
  S  S176  1  0.18237137  0.96015008  0.11204942  1
  S  S177  1  0.71027225  0.16319078  0.08653580  1
  S  S178  1  0.78700712  0.52737674  0.14631803  1
  S  S179  1  0.83824895  0.84569423  0.04667267  1
  S  S180  1  0.13182906  0.59405820  0.05672351  1
  S  S181  1  0.27856723  0.08782700  0.05519479  1
  S  S182  1  0.60299564  0.32893371  0.04834876  1
  S  S183  1  0.61739349  0.02139908  0.14677222  1
  S  S184  1  0.24181282  0.99491852  0.33342238  1
  S  S185  1  0.24403971  0.29908671  0.23379077  1
  S  S186  1  0.69467216  0.89737830  0.26611830  1
  S  S187  1  0.68815277  0.20202952  0.16595695  1
  S  S188  1  0.74875213  0.70784791  0.16672429  1
  S  S189  1  0.74448111  0.40280555  0.26536587  1
  S  S190  1  0.19425311  0.80435711  0.23483468  1
  S  S191  1  0.19264723  0.50000401  0.33336002  1
  S  S192  1  0.16011955  0.67338142  0.27652372  1
  S  S193  1  0.16096207  0.97807215  0.17566889  1
  S  S194  1  0.71812819  0.22608275  0.32046335  1
  S  S195  1  0.71323519  0.53155788  0.22288268  1
  S  S196  1  0.66093180  0.02850907  0.22433976  1
  S  S197  1  0.65826631  0.72459092  0.32554157  1
  S  S198  1  0.21123244  0.47599596  0.17881084  1
  S  S199  1  0.21418031  0.17135531  0.27682822  1
  S  S200  1  0.68103193  0.04585070  0.28775995  1
  S  S201  1  0.67842192  0.35059702  0.18836124  1
  S  S202  1  0.22564118  0.84514543  0.31386926  1
  S  S203  1  0.22259855  0.15028629  0.21309913  1
  S  S204  1  0.18347786  0.65603478  0.21293748  1
  S  S205  1  0.18152877  0.35141725  0.31070128  1
  S  S206  1  0.72496357  0.85677075  0.18742155  1
  S  S207  1  0.72398140  0.55121483  0.28667495  1
  S  S208  1  0.78699861  0.91482098  0.34507234  1
  S  S209  1  0.78551364  0.22044212  0.24467563  1
  S  S210  1  0.11981528  0.98591239  0.25289465  1
  S  S211  1  0.11387185  0.29079748  0.15318805  1
  S  S212  1  0.28970556  0.78569226  0.15606100  1
  S  S213  1  0.28572290  0.48158706  0.25503954  1
  S  S214  1  0.61986469  0.71596939  0.24816784  1
  S  S215  1  0.61980845  0.41089579  0.34524305  1
  S  S216  1  0.22723965  0.68986248  0.43870964  1
  S  S217  1  0.70988483  0.29078814  0.46379654  1
  S  S218  1  0.68736976  0.59319870  0.36659481  1
  S  S219  1  0.74740760  0.09877937  0.36415485  1
  S  S220  1  0.72521745  0.80204168  0.46844415  1
  S  S221  1  0.22055704  0.20280414  0.42860632  1
  S  S222  1  0.16132808  0.08262565  0.47358992  1
  S  S223  1  0.16201090  0.36829345  0.37420671  1
  S  S224  1  0.73361020  0.92170654  0.42122343  1
  S  S225  1  0.65750875  0.42069295  0.42104864  1
  S  S226  1  0.21826008  0.86932483  0.37755289  1
  S  S227  1  0.19709956  0.56023016  0.47726809  1
  S  S228  1  0.69240041  0.43796643  0.48516532  1
  S  S229  1  0.67801926  0.74151133  0.38932133  1
  S  S230  1  0.21314945  0.54426272  0.41262734  1
  S  S231  1  0.18801803  0.05156621  0.41046137  1
  S  S232  1  0.73108048  0.24799364  0.38382783  1
  S  S233  1  0.75652996  0.95430811  0.48373580  1
  S  S234  1  0.76556935  0.60831883  0.44445110  1
  S  S235  1  0.12266840  0.38138174  0.44889889  1
  S  S236  1  0.11591089  0.68256784  0.35438245  1
  S  S237  1  0.29044514  0.17687917  0.35244386  1
  S  S238  1  0.29561940  0.89596227  0.45454775  1
  S  S239  1  0.63158986  0.10996617  0.44434369  1
  S  S240  1  0.57721208  0.34581833  0.63573793  1
  S  S241  1  0.50484682  0.04900216  0.53609298  1
  S  S242  1  0.12779629  0.43964828  0.56820833  1
  S  S243  1  0.07546225  0.93258946  0.56285177  1
  S  S244  1  0.64869738  0.53448059  0.53487776  1
  S  S245  1  0.63763978  0.84076382  0.63350560  1
  S  S246  1  0.68044328  0.66502615  0.57681522  1
  S  S247  1  0.11077909  0.11446442  0.62341380  1
  S  S248  1  0.13866246  0.80037083  0.52225480  1
  S  S249  1  0.14453872  0.31431791  0.52479932  1
  S  S250  1  0.17076539  0.61634481  0.62478790  1
  S  S251  1  0.59648858  0.17147692  0.58044857  1
  S  S252  1  0.13575803  0.29066256  0.58887748  1
  S  S253  1  0.60075174  0.49439514  0.61484110  1
  S  S254  1  0.59519540  0.19588736  0.51639322  1
  S  S255  1  0.65132500  0.68274068  0.51319576  1
  S  S256  1  0.64535693  0.98972202  0.61170311  1
  S  S257  1  0.11528373  0.78689602  0.58629777  1
  S  S258  1  0.03795090  0.42298087  0.64612388  1
  S  S259  1  0.99181573  0.10532922  0.54665400  1
  S  S260  1  0.69349744  0.35594252  0.55667512  1
  S  S261  1  0.54773039  0.86135969  0.55468221  1
  S  S262  1  0.22131159  0.62092157  0.54847214  1
  S  S263  1  0.20976388  0.92913725  0.64643982  1
  S  S264  1  0.57756002  0.95487919  0.83329557  1
  S  S265  1  0.58146903  0.65096032  0.73385470  1
  S  S266  1  0.13027838  0.05285707  0.76599128  1
  S  S267  1  0.13513979  0.74777932  0.66599410  1
  S  S268  1  0.07692479  0.24274175  0.66646565  1
  S  S269  1  0.08150051  0.54720950  0.76529463  1
  S  S270  1  0.63177219  0.14589678  0.73456337  1
  S  S271  1  0.62974466  0.44929157  0.83304194  1
  S  S272  1  0.66619455  0.27620812  0.77648741  1
  S  S273  1  0.66779278  0.97136051  0.67528117  1
  S  S274  1  0.10923569  0.72340536  0.82020177  1
  S  S275  1  0.11031992  0.41851290  0.72262051  1
  S  S276  1  0.16651681  0.92252964  0.72395310  1
  S  S277  1  0.16825165  0.22600571  0.82550409  1
  S  S278  1  0.61335675  0.47441489  0.67851949  1
  S  S279  1  0.61203054  0.77941564  0.77659926  1
  S  S280  1  0.14297978  0.90413077  0.78740667  1
  S  S281  1  0.14546624  0.59921346  0.68825313  1
  S  S282  1  0.59976111  0.10439972  0.81348009  1
  S  S283  1  0.60206005  0.79967144  0.71284181  1
  S  S284  1  0.64208909  0.29437218  0.71295695  1
  S  S285  1  0.64433349  0.59790070  0.81061328  1
  S  S286  1  0.09970724  0.09368777  0.68711228  1
  S  S287  1  0.10171776  0.39875516  0.78644527  1
  S  S288  1  0.03462607  0.03342303  0.84504414  1
  S  S289  1  0.03932649  0.72969246  0.74437208  1
  S  S290  1  0.70588473  0.96404867  0.75239814  1
  S  S291  1  0.70972475  0.65890613  0.65304129  1
  S  S292  1  0.53591605  0.16497346  0.65597406  1
  S  S293  1  0.53900124  0.46822778  0.75460119  1
  S  S294  1  0.20571825  0.23419009  0.74809463  1
  S  S295  1  0.20461880  0.53908863  0.84522573  1
  S  S296  1  0.59284516  0.25987098  0.93880986  1
  S  S297  1  0.11444430  0.65909321  0.96383470  1
  S  S298  1  0.13432751  0.35680777  0.86691272  1
  S  S299  1  0.07768345  0.85113665  0.86377490  1
  S  S300  1  0.09585897  0.14773516  0.96885678  1
  S  S301  1  0.60444185  0.74735561  0.92834271  1
  S  S302  1  0.66424956  0.86743607  0.97343892  1
  S  S303  1  0.66392912  0.58067793  0.87408122  1
  S  S304  1  0.08828432  0.02884910  0.92144263  1
  S  S305  1  0.16771029  0.52973639  0.92098134  1
  S  S306  1  0.60462779  0.08083295  0.87722547  1
  S  S307  1  0.62347040  0.38973760  0.97725895  1
  S  S308  1  0.13041825  0.51175126  0.98509156  1
  S  S309  1  0.14525101  0.20811412  0.88924869  1
  S  S310  1  0.60863936  0.40549992  0.91266074  1
  S  S311  1  0.63622147  0.89890251  0.91044973  1
  S  S312  1  0.09214756  0.70195136  0.88363806  1
  S  S313  1  0.07387282  0.99526130  0.98393907  1
  S  S314  1  0.05489978  0.34095388  0.94463203  1
  S  S315  1  0.70142824  0.56853227  0.94865827  1
  S  S316  1  0.70867617  0.26710319  0.85404576  1
  S  S317  1  0.53438177  0.77271664  0.85254127  1
  S  S318  1  0.52925244  0.05642676  0.95399136  1
  S  S319  1  0.19319407  0.84003859  0.94423215  1
