# generated using pymatgen
data_Li3PS4
_symmetry_space_group_name_H-M   'P 1'
_cell_length_a   6.25995100
_cell_length_b   20.81799400
_cell_length_c   51.18164505
_cell_angle_alpha   90.00000000
_cell_angle_beta   90.00000000
_cell_angle_gamma   90.00000000
_symmetry_Int_Tables_number   1
_chemical_formula_structural   Li3PS4
_chemical_formula_sum   'Li120 P40 S160'
_cell_volume   6669.97265427
_cell_formula_units_Z   40
loop_
 _symmetry_equiv_pos_site_id
 _symmetry_equiv_pos_as_xyz
  1  'x, y, z'
loop_
 _atom_site_type_symbol
 _atom_site_label
 _atom_site_symmetry_multiplicity
 _atom_site_fract_x
 _atom_site_fract_y
 _atom_site_fract_z
 _atom_site_occupancy
  Li  Li0  1  0.89808082  0.74472682  0.08748761  1
  Li  Li1  1  0.08686845  0.33603963  0.11342881  1
  Li  Li2  1  0.13300398  0.60348520  0.00774577  1
  Li  Li3  1  0.36396680  0.12939446  0.01617781  1
  Li  Li4  1  0.38498928  0.83029512  0.11672419  1
  Li  Li5  1  0.57475805  0.24447508  0.08947166  1
  Li  Li6  1  0.65315688  0.41094696  0.03462398  1
  Li  Li7  1  0.63108385  0.11014172  0.13108776  1
  Li  Li8  1  0.41067503  0.95817172  0.07121436  1
  Li  Li9  1  0.15428099  0.46472674  0.06907694  1
  Li  Li10  1  0.92455935  0.61632890  0.13016916  1
  Li  Li11  1  0.92783109  0.92112584  0.03818528  1
  Li  Li12  1  0.44498114  0.37016855  0.15322070  1
  Li  Li13  1  0.45502002  0.67084332  0.05276625  1
  Li  Li14  1  0.93484842  0.20669700  0.04793128  1
  Li  Li15  1  0.94682888  0.90106615  0.14780617  1
  Li  Li16  1  0.06426397  0.04961380  0.09604519  1
  Li  Li17  1  0.57942027  0.52767110  0.10590995  1
  Li  Li18  1  0.58917898  0.81192976  0.01047367  1
  Li  Li19  1  0.90904829  0.13670616  0.28750829  1
  Li  Li20  1  0.88868060  0.44172053  0.18575054  1
  Li  Li21  1  0.13144076  0.72162588  0.31427952  1
  Li  Li22  1  0.12421872  0.02464272  0.21418355  1
  Li  Li23  1  0.41300059  0.52756572  0.21269505  1
  Li  Li24  1  0.41614987  0.22390896  0.31142459  1
  Li  Li25  1  0.60015191  0.93918498  0.18838948  1
  Li  Li26  1  0.62669777  0.63751542  0.28550769  1
  Li  Li27  1  0.62362888  0.80717637  0.23007272  1
  Li  Li28  1  0.59394701  0.51000943  0.32971353  1
  Li  Li29  1  0.42131792  0.65460552  0.17109468  1
  Li  Li30  1  0.37879740  0.35728560  0.26955927  1
  Li  Li31  1  0.09532714  0.85082346  0.26971025  1
  Li  Li32  1  0.12621998  0.16046756  0.17005369  1
  Li  Li33  1  0.87965200  0.00313511  0.32998903  1
  Li  Li34  1  0.90409639  0.31080267  0.23067522  1
  Li  Li35  1  0.57041532  0.79583345  0.34572166  1
  Li  Li36  1  0.55134726  0.09267276  0.24835526  1
  Li  Li37  1  0.05244977  0.56955184  0.25206963  1
  Li  Li38  1  0.06375154  0.26276358  0.35222772  1
  Li  Li39  1  0.05777664  0.74098894  0.19616862  1
  Li  Li40  1  0.94355730  0.42057622  0.30495864  1
  Li  Li41  1  0.44255319  0.94117785  0.29343342  1
  Li  Li42  1  0.54705779  0.22786829  0.20412819  1
  Li  Li43  1  0.89733833  0.53081404  0.48650146  1
  Li  Li44  1  0.92638013  0.83181978  0.38660897  1
  Li  Li45  1  0.11521514  0.41935312  0.41200437  1
  Li  Li46  1  0.43549160  0.92169183  0.40947880  1
  Li  Li47  1  0.62665306  0.33429129  0.38306091  1
  Li  Li48  1  0.66419483  0.03179120  0.48437500  1
  Li  Li49  1  0.56570663  0.20829859  0.42733295  1
  Li  Li50  1  0.38444253  0.05388272  0.36908413  1
  Li  Li51  1  0.38913901  0.75823264  0.46699824  1
  Li  Li52  1  0.90353553  0.17623835  0.46965347  1
  Li  Li53  1  0.09247788  0.54734767  0.36957647  1
  Li  Li54  1  0.87986392  0.69964708  0.42995710  1
  Li  Li55  1  0.56943019  0.49046585  0.44511739  1
  Li  Li56  1  0.08738425  0.95566644  0.45249803  1
  Li  Li57  1  0.95804508  0.11662746  0.40523587  1
  Li  Li58  1  0.39950115  0.36139587  0.48320534  1
  Li  Li59  1  0.44017579  0.63940962  0.39380296  1
  Li  Li60  1  0.15383929  0.67929665  0.58734093  1
  Li  Li61  1  0.96587908  0.08841348  0.61352044  1
  Li  Li62  1  0.91792510  0.82092816  0.50755988  1
  Li  Li63  1  0.68295046  0.29404953  0.51560795  1
  Li  Li64  1  0.66676330  0.59374623  0.61665534  1
  Li  Li65  1  0.47663720  0.17962794  0.58929253  1
  Li  Li66  1  0.39788127  0.01402369  0.53438608  1
  Li  Li67  1  0.42088892  0.31385982  0.63129959  1
  Li  Li68  1  0.64440042  0.46642906  0.57118186  1
  Li  Li69  1  0.89769567  0.95967894  0.56869358  1
  Li  Li70  1  0.12172534  0.80742308  0.62966155  1
  Li  Li71  1  0.12403513  0.50325420  0.53825628  1
  Li  Li72  1  0.60321974  0.05537507  0.65355549  1
  Li  Li73  1  0.59735452  0.75350752  0.55271072  1
  Li  Li74  1  0.11378035  0.21920279  0.54833025  1
  Li  Li75  1  0.10842714  0.52297210  0.64797039  1
  Li  Li76  1  0.98680882  0.37395935  0.59606645  1
  Li  Li77  1  0.46872545  0.89693598  0.60565423  1
  Li  Li78  1  0.46123740  0.61290541  0.51039629  1
  Li  Li79  1  0.15862109  0.28690163  0.78630751  1
  Li  Li80  1  0.16022529  0.98270708  0.68546880  1
  Li  Li81  1  0.91360377  0.70419493  0.81473872  1
  Li  Li82  1  0.94446643  0.39920747  0.71331674  1
  Li  Li83  1  0.63072489  0.89730826  0.71252393  1
  Li  Li84  1  0.63190845  0.20214372  0.81178636  1
  Li  Li85  1  0.45631783  0.48611959  0.68865668  1
  Li  Li86  1  0.42028310  0.78709370  0.78558763  1
  Li  Li87  1  0.42363518  0.61818581  0.73011942  1
  Li  Li88  1  0.45870879  0.91531207  0.82912086  1
  Li  Li89  1  0.62769195  0.77060067  0.67082670  1
  Li  Li90  1  0.66594790  0.06719006  0.76932454  1
  Li  Li91  1  0.94181112  0.57403430  0.76928361  1
  Li  Li92  1  0.91602740  0.26254608  0.67076563  1
  Li  Li93  1  0.16271157  0.42146659  0.83071388  1
  Li  Li94  1  0.12845283  0.11230378  0.73026895  1
  Li  Li95  1  0.47604491  0.62969574  0.84631150  1
  Li  Li96  1  0.58191277  0.35480365  0.75195492  1
  Li  Li97  1  0.98922695  0.85590304  0.75184772  1
  Li  Li98  1  0.98492718  0.16261340  0.85217705  1
  Li  Li99  1  0.98991929  0.68444046  0.69572468  1
  Li  Li100  1  0.10630432  0.00527553  0.80484916  1
  Li  Li101  1  0.58843781  0.48853745  0.79574255  1
  Li  Li102  1  0.47541876  0.20111336  0.70663333  1
  Li  Li103  1  0.15578436  0.89324002  0.98677204  1
  Li  Li104  1  0.12455895  0.59345413  0.88709623  1
  Li  Li105  1  0.93636807  0.00513228  0.91154796  1
  Li  Li106  1  0.61896203  0.50389910  0.90987575  1
  Li  Li107  1  0.42003043  0.09073759  0.88346731  1
  Li  Li108  1  0.38935677  0.39320919  0.98451445  1
  Li  Li109  1  0.48654277  0.21635793  0.92769566  1
  Li  Li110  1  0.66433167  0.37145601  0.87009430  1
  Li  Li111  1  0.66596910  0.66657767  0.96835567  1
  Li  Li112  1  0.14141333  0.25012565  0.97030978  1
  Li  Li113  1  0.95728957  0.87820346  0.86928075  1
  Li  Li114  1  0.16668574  0.72497538  0.93036051  1
  Li  Li115  1  0.48390915  0.93459997  0.94529698  1
  Li  Li116  1  0.96786988  0.46810359  0.95301567  1
  Li  Li117  1  0.09568527  0.30830569  0.90558068  1
  Li  Li118  1  0.64061795  0.06629329  0.98275887  1
  Li  Li119  1  0.60760855  0.78619330  0.89443097  1
  P  P120  1  0.17289767  0.49762358  0.14298284  1
  P  P121  1  0.17929684  0.79792977  0.04355854  1
  P  P122  1  0.87027099  0.58057724  0.05729985  1
  P  P123  1  0.84639735  0.27466968  0.15779516  1
  P  P124  1  0.66827113  0.77366846  0.15801744  1
  P  P125  1  0.65398498  0.07760956  0.05949267  1
  P  P126  1  0.34043502  0.29975250  0.04366166  1
  P  P127  1  0.35095726  0.99585977  0.14398776  1
  P  P128  1  0.16641352  0.88927144  0.34185056  1
  P  P129  1  0.16491832  0.19227075  0.24259739  1
  P  P130  1  0.84722918  0.97043299  0.25727962  1
  P  P131  1  0.84656085  0.66690408  0.35730604  1
  P  P132  1  0.66427131  0.16775137  0.35654587  1
  P  P133  1  0.66033472  0.47079050  0.25688137  1
  P  P134  1  0.35875982  0.69276465  0.24337991  1
  P  P135  1  0.34472843  0.38988312  0.34154071  1
  P  P136  1  0.16002481  0.58409758  0.44304856  1
  P  P137  1  0.83350538  0.36291413  0.45327647  1
  P  P138  1  0.68315900  0.86741637  0.45417025  1
  P  P139  1  0.35140954  0.08448883  0.44373295  1
  P  P140  1  0.87520997  0.92665057  0.64271491  1
  P  P141  1  0.87199827  0.62614471  0.54341683  1
  P  P142  1  0.18194025  0.84357701  0.55693612  1
  P  P143  1  0.20130033  0.15004816  0.65792534  1
  P  P144  1  0.38310772  0.65088063  0.65794909  1
  P  P145  1  0.39891757  0.34713008  0.55958791  1
  P  P146  1  0.71232084  0.12506939  0.54343557  1
  P  P147  1  0.70261886  0.42837014  0.64412198  1
  P  P148  1  0.88189873  0.53637182  0.84228720  1
  P  P149  1  0.88161387  0.23217744  0.74302353  1
  P  P150  1  0.20106217  0.45454094  0.75787219  1
  P  P151  1  0.20217405  0.75848590  0.85741993  1
  P  P152  1  0.38657902  0.25764289  0.85696424  1
  P  P153  1  0.38463264  0.95367729  0.75674291  1
  P  P154  1  0.68803146  0.73222561  0.74311133  1
  P  P155  1  0.70349753  0.03581053  0.84154119  1
  P  P156  1  0.89097193  0.84063802  0.94330202  1
  P  P157  1  0.21142170  0.06158722  0.95347802  1
  P  P158  1  0.37129995  0.55757409  0.95450057  1
  P  P159  1  0.70140016  0.34000665  0.94408918  1
  S  S160  1  0.30351747  0.58563643  0.13470846  1
  S  S161  1  0.30123178  0.88862539  0.03337732  1
  S  S162  1  0.76984784  0.48836331  0.06685798  1
  S  S163  1  0.74329736  0.18319229  0.16653502  1
  S  S164  1  0.79924437  0.68548413  0.16606673  1
  S  S165  1  0.78190744  0.98989253  0.07011027  1
  S  S166  1  0.26438637  0.39186535  0.03217545  1
  S  S167  1  0.24727362  0.08748785  0.13549546  1
  S  S168  1  0.20105914  0.26810422  0.07773065  1
  S  S169  1  0.77068000  0.81422457  0.12344465  1
  S  S170  1  0.76153676  0.11233537  0.02436156  1
  S  S171  1  0.74338367  0.61452441  0.02355753  1
  S  S172  1  0.71375022  0.31358554  0.12475612  1
  S  S173  1  0.28658195  0.76357476  0.07864114  1
  S  S174  1  0.74745001  0.63646106  0.08781174  1
  S  S175  1  0.28799457  0.43661819  0.11392458  1
  S  S176  1  0.27956582  0.73802207  0.01469421  1
  S  S177  1  0.22444557  0.23706682  0.01594388  1
  S  S178  1  0.23356139  0.93885476  0.11366291  1
  S  S179  1  0.77178616  0.14012117  0.08767925  1
  S  S180  1  0.84700488  0.50521330  0.14516952  1
  S  S181  1  0.85212128  0.80950344  0.04724833  1
  S  S182  1  0.19689747  0.57603526  0.05503074  1
  S  S183  1  0.17161178  0.27180485  0.15382597  1
  S  S184  1  0.34282503  0.76565537  0.15636974  1
  S  S185  1  0.32879339  0.06910851  0.05757352  1
  S  S186  1  0.66631982  0.29939724  0.04852288  1
  S  S187  1  0.67629131  0.99956253  0.14759516  1
  S  S188  1  0.26668677  0.98129202  0.33349696  1
  S  S189  1  0.28063912  0.28197610  0.23397476  1
  S  S190  1  0.71874406  0.88251371  0.26584863  1
  S  S191  1  0.71536831  0.57892848  0.36593785  1
  S  S192  1  0.77020831  0.07669046  0.36528663  1
  S  S193  1  0.76277181  0.37894636  0.26552363  1
  S  S194  1  0.24105480  0.78313979  0.23505323  1
  S  S195  1  0.21500028  0.47827102  0.33347684  1
  S  S196  1  0.24190065  0.65301547  0.27741076  1
  S  S197  1  0.22189534  0.95599693  0.17704422  1
  S  S198  1  0.79288995  0.20709742  0.32323930  1
  S  S199  1  0.79124123  0.50941228  0.22363833  1
  S  S200  1  0.74114612  0.01031885  0.22279084  1
  S  S201  1  0.74521455  0.70616751  0.32255582  1
  S  S202  1  0.27404779  0.45761341  0.17771480  1
  S  S203  1  0.28445320  0.15283021  0.27639692  1
  S  S204  1  0.73131759  0.03134331  0.28650235  1
  S  S205  1  0.73215219  0.33196154  0.18822403  1
  S  S206  1  0.27988733  0.83223813  0.31140147  1
  S  S207  1  0.28305810  0.13351791  0.21293620  1
  S  S208  1  0.24152391  0.63404402  0.21350429  1
  S  S209  1  0.22918336  0.32883061  0.31248134  1
  S  S210  1  0.78343285  0.83446917  0.18719765  1
  S  S211  1  0.77700118  0.52772749  0.28724101  1
  S  S212  1  0.84102670  0.89199005  0.34578896  1
  S  S213  1  0.83750580  0.19732330  0.24570237  1
  S  S214  1  0.17279830  0.96312776  0.25485610  1
  S  S215  1  0.17247556  0.65852129  0.35526782  1
  S  S216  1  0.33851429  0.16437840  0.35288542  1
  S  S217  1  0.33487792  0.46799721  0.25343196  1
  S  S218  1  0.68257331  0.69756381  0.24534978  1
  S  S219  1  0.67047693  0.39792397  0.34335467  1
  S  S220  1  0.26901430  0.67546918  0.43559563  1
  S  S221  1  0.67253568  0.27949619  0.46324502  1
  S  S222  1  0.77697673  0.77515401  0.46395781  1
  S  S223  1  0.20627728  0.17211799  0.43797746  1
  S  S224  1  0.26413996  0.04288596  0.47797378  1
  S  S225  1  0.24203850  0.34999628  0.37610643  1
  S  S226  1  0.81259401  0.90432866  0.42051215  1
  S  S227  1  0.72610223  0.40422659  0.41908799  1
  S  S228  1  0.30051586  0.85040472  0.37483113  1
  S  S229  1  0.28647629  0.54325782  0.47664855  1
  S  S230  1  0.74179197  0.42280928  0.48362643  1
  S  S231  1  0.73366914  0.72810365  0.38638231  1
  S  S232  1  0.27622369  0.52854477  0.41250291  1
  S  S233  1  0.24623963  0.02656850  0.41315115  1
  S  S234  1  0.77737005  0.22517798  0.38689451  1
  S  S235  1  0.79592502  0.92242770  0.48435657  1
  S  S236  1  0.83430316  0.58812711  0.44584411  1
  S  S237  1  0.15068218  0.34732087  0.44868307  1
  S  S238  1  0.35602673  0.86334394  0.44965857  1
  S  S239  1  0.68129626  0.09710552  0.44327333  1
  S  S240  1  0.74404215  0.83872368  0.63432646  1
  S  S241  1  0.75089295  0.53545245  0.53314494  1
  S  S242  1  0.28219534  0.93587743  0.56648087  1
  S  S243  1  0.30172204  0.24176379  0.66679200  1
  S  S244  1  0.25101997  0.73902337  0.66581769  1
  S  S245  1  0.27192807  0.43485117  0.57029967  1
  S  S246  1  0.78728446  0.03281575  0.53198998  1
  S  S247  1  0.80581138  0.33673368  0.63574852  1
  S  S248  1  0.85058736  0.15646056  0.57762194  1
  S  S249  1  0.28145727  0.61006716  0.62339505  1
  S  S250  1  0.28885912  0.31268126  0.52452119  1
  S  S251  1  0.30853960  0.80956843  0.52322631  1
  S  S252  1  0.33767751  0.11150981  0.62500119  1
  S  S253  1  0.76423786  0.66020358  0.57853006  1
  S  S254  1  0.30382596  0.78773833  0.58751203  1
  S  S255  1  0.76215464  0.98794866  0.61369647  1
  S  S256  1  0.77146820  0.68620051  0.51463367  1
  S  S257  1  0.83150283  0.18752650  0.51579887  1
  S  S258  1  0.81941899  0.48529970  0.61376630  1
  S  S259  1  0.28171743  0.28450337  0.58779587  1
  S  S260  1  0.20089798  0.91857807  0.64503085  1
  S  S261  1  0.19934160  0.61482736  0.54716401  1
  S  S262  1  0.85520524  0.84831220  0.55473425  1
  S  S263  1  0.87649119  0.15268457  0.65347016  1
  S  S264  1  0.70844971  0.65906545  0.65626527  1
  S  S265  1  0.72404730  0.35519921  0.55731662  1
  S  S266  1  0.38625187  0.12602246  0.54800561  1
  S  S267  1  0.37742812  0.42488670  0.64800965  1
  S  S268  1  0.77818445  0.44460675  0.83416112  1
  S  S269  1  0.75242144  0.14430778  0.73425090  1
  S  S270  1  0.31822948  0.54403004  0.76634443  1
  S  S271  1  0.33531824  0.84635388  0.86573634  1
  S  S272  1  0.28032435  0.34875236  0.86579358  1
  S  S273  1  0.28130226  0.04551500  0.76511814  1
  S  S274  1  0.80583064  0.64191435  0.73455654  1
  S  S275  1  0.83521023  0.94770457  0.83335627  1
  S  S276  1  0.80532814  0.77135503  0.77726008  1
  S  S277  1  0.83285120  0.46844744  0.67715137  1
  S  S278  1  0.25675108  0.21852941  0.82371283  1
  S  S279  1  0.25381999  0.91485581  0.72354948  1
  S  S280  1  0.32014687  0.41542156  0.72399971  1
  S  S281  1  0.30174530  0.71850575  0.82272854  1
  S  S282  1  0.77319288  0.96648363  0.67746645  1
  S  S283  1  0.77526142  0.27234981  0.77746084  1
  S  S284  1  0.31831627  0.39542504  0.78754777  1
  S  S285  1  0.31192262  0.09271930  0.68844361  1
  S  S286  1  0.76729560  0.59331042  0.81180188  1
  S  S287  1  0.76753741  0.29306747  0.71382895  1
  S  S288  1  0.80574870  0.79113638  0.71336053  1
  S  S289  1  0.81704409  0.09687563  0.81240603  1
  S  S290  1  0.26845231  0.59016902  0.68718474  1
  S  S291  1  0.26964408  0.89688137  0.78722816  1
  S  S292  1  0.20728988  0.53300728  0.84606496  1
  S  S293  1  0.20708578  0.22415409  0.74564618  1
  S  S294  1  0.87344241  0.45954374  0.75485891  1
  S  S295  1  0.87612702  0.76718196  0.85554730  1
  S  S296  1  0.71213091  0.26136523  0.85332305  1
  S  S297  1  0.71025188  0.95675947  0.75328644  1
  S  S298  1  0.36455778  0.72764917  0.74514789  1
  S  S299  1  0.37799146  0.02707605  0.84346332  1
  S  S300  1  0.77987135  0.74932052  0.93616720  1
  S  S301  1  0.36775878  0.14582589  0.96356283  1
  S  S302  1  0.27724080  0.64978886  0.96419597  1
  S  S303  1  0.84547038  0.25238420  0.93802085  1
  S  S304  1  0.79085351  0.38048720  0.97849273  1
  S  S305  1  0.80605652  0.07543985  0.87618539  1
  S  S306  1  0.24179210  0.52064711  0.92083769  1
  S  S307  1  0.32353838  0.02059931  0.91945275  1
  S  S308  1  0.74991534  0.57596542  0.87523691  1
  S  S309  1  0.76527011  0.88184643  0.97687650  1
  S  S310  1  0.30511391  0.00222970  0.98393590  1
  S  S311  1  0.31425356  0.69749543  0.88665442  1
  S  S312  1  0.77474052  0.89592714  0.91264592  1
  S  S313  1  0.80755523  0.39853364  0.91373180  1
  S  S314  1  0.27382754  0.20011795  0.88730419  1
  S  S315  1  0.25857297  0.50249630  0.98469737  1
  S  S316  1  0.21681012  0.83644711  0.94592650  1
  S  S317  1  0.89406038  0.07575819  0.94847116  1
  S  S318  1  0.69856824  0.56148701  0.95022910  1
  S  S319  1  0.37151890  0.32799976  0.94362019  1
