# generated using pymatgen
data_Li3PS4
_symmetry_space_group_name_H-M   'P 1'
_cell_length_a   6.25995100
_cell_length_b   20.81799400
_cell_length_c   50.95179582
_cell_angle_alpha   90.00000000
_cell_angle_beta   90.00000000
_cell_angle_gamma   90.00000000
_symmetry_Int_Tables_number   1
_chemical_formula_structural   Li3PS4
_chemical_formula_sum   'Li120 P40 S160'
_cell_volume   6640.01878946
_cell_formula_units_Z   40
loop_
 _symmetry_equiv_pos_site_id
 _symmetry_equiv_pos_as_xyz
  1  'x, y, z'
loop_
 _atom_site_type_symbol
 _atom_site_label
 _atom_site_symmetry_multiplicity
 _atom_site_fract_x
 _atom_site_fract_y
 _atom_site_fract_z
 _atom_site_occupancy
  Li  Li0  1  0.90282050  0.76916046  0.08707839  1
  Li  Li1  1  0.10108770  0.35956367  0.11239958  1
  Li  Li2  1  0.12747252  0.63148824  0.00699935  1
  Li  Li3  1  0.22491348  0.13622977  0.01228460  1
  Li  Li4  1  0.39637235  0.85525528  0.11562748  1
  Li  Li5  1  0.60816628  0.27063453  0.08677646  1
  Li  Li6  1  0.65277821  0.43755739  0.03304501  1
  Li  Li7  1  0.65040346  0.13565632  0.13022899  1
  Li  Li8  1  0.42805380  0.98491449  0.06971329  1
  Li  Li9  1  0.15414053  0.49087770  0.06951656  1
  Li  Li10  1  0.93860745  0.64104666  0.12972525  1
  Li  Li11  1  0.94106890  0.94676528  0.03697288  1
  Li  Li12  1  0.45812239  0.39407206  0.15298530  1
  Li  Li13  1  0.45582333  0.69491736  0.05246180  1
  Li  Li14  1  0.97110606  0.22827937  0.04905699  1
  Li  Li15  1  0.96250332  0.92644650  0.14755241  1
  Li  Li16  1  0.08612498  0.07498777  0.09521876  1
  Li  Li17  1  0.58769581  0.55138752  0.10590709  1
  Li  Li18  1  0.59648562  0.83410768  0.01044200  1
  Li  Li19  1  0.91969241  0.16277888  0.28817049  1
  Li  Li20  1  0.89715368  0.46654275  0.18558639  1
  Li  Li21  1  0.14351664  0.74667971  0.31349215  1
  Li  Li22  1  0.13641806  0.05030679  0.21359307  1
  Li  Li23  1  0.42767690  0.55155756  0.21255296  1
  Li  Li24  1  0.43191392  0.24801494  0.31286522  1
  Li  Li25  1  0.61218928  0.96441270  0.18836017  1
  Li  Li26  1  0.63946877  0.66188635  0.28516366  1
  Li  Li27  1  0.63494429  0.83132546  0.22998422  1
  Li  Li28  1  0.61016533  0.53335653  0.32972668  1
  Li  Li29  1  0.43482122  0.68003327  0.17067883  1
  Li  Li30  1  0.39242332  0.38177250  0.26972583  1
  Li  Li31  1  0.11083581  0.87552418  0.26905824  1
  Li  Li32  1  0.14769047  0.18660390  0.16970794  1
  Li  Li33  1  0.89264642  0.02879809  0.33080398  1
  Li  Li34  1  0.92107152  0.33626009  0.23045873  1
  Li  Li35  1  0.58114110  0.82081706  0.34496307  1
  Li  Li36  1  0.54934154  0.11403165  0.24923542  1
  Li  Li37  1  0.06957690  0.59277185  0.25232764  1
  Li  Li38  1  0.07829014  0.28683510  0.35411434  1
  Li  Li39  1  0.06624018  0.76404835  0.19590485  1
  Li  Li40  1  0.95690436  0.44256263  0.30558564  1
  Li  Li41  1  0.45838621  0.96555944  0.29393751  1
  Li  Li42  1  0.57084370  0.25085077  0.20490242  1
  Li  Li43  1  0.89173763  0.56289275  0.48618053  1
  Li  Li44  1  0.93526523  0.85677049  0.38630630  1
  Li  Li45  1  0.11985031  0.44888721  0.41093522  1
  Li  Li46  1  0.43612128  0.94664368  0.40945845  1
  Li  Li47  1  0.63850932  0.35840443  0.38525820  1
  Li  Li48  1  0.68313691  0.05397421  0.48527448  1
  Li  Li49  1  0.59946759  0.22903985  0.43337666  1
  Li  Li50  1  0.39410475  0.07847460  0.37034452  1
  Li  Li51  1  0.38917601  0.78321991  0.46827699  1
  Li  Li52  1  0.16725446  0.16599458  0.49457924  1
  Li  Li53  1  0.11025263  0.57470401  0.36826272  1
  Li  Li54  1  0.88892362  0.72540097  0.42880112  1
  Li  Li55  1  0.55955746  0.51568401  0.44589047  1
  Li  Li56  1  0.08328934  0.97866709  0.45188288  1
  Li  Li57  1  0.96791005  0.14238382  0.40805674  1
  Li  Li58  1  0.42909926  0.37986841  0.48385994  1
  Li  Li59  1  0.45464308  0.66460375  0.39397345  1
  Li  Li60  1  0.14527141  0.70568132  0.58747526  1
  Li  Li61  1  0.94514594  0.11609116  0.61268334  1
  Li  Li62  1  0.91692161  0.84178940  0.50708936  1
  Li  Li63  1  0.82324286  0.33882516  0.51241092  1
  Li  Li64  1  0.64324433  0.61938959  0.61559974  1
  Li  Li65  1  0.43885813  0.20475370  0.58677891  1
  Li  Li66  1  0.39148233  0.03770287  0.53243978  1
  Li  Li67  1  0.39233485  0.34076440  0.63037445  1
  Li  Li68  1  0.61971995  0.49013609  0.57038632  1
  Li  Li69  1  0.88933153  0.98347540  0.56930944  1
  Li  Li70  1  0.11249276  0.83396473  0.63006384  1
  Li  Li71  1  0.10654298  0.52848570  0.53729765  1
  Li  Li72  1  0.58542129  0.08041869  0.65284540  1
  Li  Li73  1  0.59105837  0.77929693  0.55238313  1
  Li  Li74  1  0.07533394  0.24724840  0.54933904  1
  Li  Li75  1  0.07433087  0.55239476  0.64854239  1
  Li  Li76  1  0.95732480  0.40022102  0.59485482  1
  Li  Li77  1  0.45973590  0.92209245  0.60533835  1
  Li  Li78  1  0.45482029  0.64055119  0.51069772  1
  Li  Li79  1  0.14753597  0.30988369  0.78695315  1
  Li  Li80  1  0.14767281  0.00902444  0.68532793  1
  Li  Li81  1  0.90452255  0.72810338  0.81344333  1
  Li  Li82  1  0.93125982  0.42453554  0.71244693  1
  Li  Li83  1  0.62096344  0.92413857  0.71170741  1
  Li  Li84  1  0.62054126  0.22746344  0.81318799  1
  Li  Li85  1  0.43568435  0.51182653  0.68794414  1
  Li  Li86  1  0.39983253  0.81227340  0.78473735  1
  Li  Li87  1  0.43341457  0.63876378  0.72963020  1
  Li  Li88  1  0.44561438  0.94078717  0.82920259  1
  Li  Li89  1  0.63851371  0.79145887  0.67020830  1
  Li  Li90  1  0.65147147  0.09299251  0.76978964  1
  Li  Li91  1  0.93356271  0.59772718  0.76908814  1
  Li  Li92  1  0.90004159  0.28902698  0.66988209  1
  Li  Li93  1  0.15561875  0.44486990  0.83101785  1
  Li  Li94  1  0.11924827  0.13848888  0.72997498  1
  Li  Li95  1  0.46898910  0.65416662  0.84595500  1
  Li  Li96  1  0.57020906  0.37883272  0.75172158  1
  Li  Li97  1  0.96365964  0.88561279  0.75274604  1
  Li  Li98  1  0.97103901  0.18831927  0.85407854  1
  Li  Li99  1  0.07136576  0.72493599  0.70442392  1
  Li  Li100  1  0.09658434  0.03246896  0.80553217  1
  Li  Li101  1  0.57741701  0.51235462  0.79533458  1
  Li  Li102  1  0.46631797  0.22780661  0.70591881  1
  Li  Li103  1  0.15836400  0.91231219  0.98592337  1
  Li  Li104  1  0.11877341  0.61750228  0.88647405  1
  Li  Li105  1  0.92865421  0.02565456  0.91059096  1
  Li  Li106  1  0.61576531  0.52824409  0.90958240  1
  Li  Li107  1  0.40874679  0.11575770  0.88459605  1
  Li  Li108  1  0.36145636  0.41731461  0.98584742  1
  Li  Li109  1  0.44935925  0.24535329  0.93314199  1
  Li  Li110  1  0.65537158  0.39630521  0.87040353  1
  Li  Li111  1  0.65937002  0.69193660  0.96663778  1
  Li  Li112  1  0.87743389  0.30832430  0.99403001  1
  Li  Li113  1  0.94479135  0.90029809  0.86821962  1
  Li  Li114  1  0.16404225  0.74904783  0.92880955  1
  Li  Li115  1  0.48812156  0.95954257  0.94531152  1
  Li  Li116  1  0.97010060  0.49495508  0.95184459  1
  Li  Li117  1  0.08325866  0.33295982  0.90800167  1
  Li  Li118  1  0.61619780  0.09619026  0.98359223  1
  Li  Li119  1  0.59829852  0.80953229  0.89334247  1
  P  P120  1  0.18366044  0.52194230  0.14283103  1
  P  P121  1  0.18520015  0.82221379  0.04353213  1
  P  P122  1  0.87130083  0.60547574  0.05686777  1
  P  P123  1  0.68439958  0.10365936  0.05755462  1
  P  P124  1  0.34391604  0.32318346  0.04151371  1
  P  P125  1  0.36841144  0.02168647  0.14315457  1
  P  P126  1  0.17790678  0.91430519  0.34175938  1
  P  P127  1  0.17997824  0.21772759  0.24282152  1
  P  P128  1  0.86250615  0.99576710  0.25724816  1
  P  P129  1  0.86230536  0.29938214  0.15706322  1
  P  P130  1  0.67995918  0.79949570  0.15743829  1
  P  P131  1  0.67428662  0.49532150  0.25689356  1
  P  P132  1  0.37138013  0.71677287  0.24269382  1
  P  P133  1  0.35994610  0.41410357  0.34195436  1
  P  P134  1  0.16361617  0.61203432  0.44250193  1
  P  P135  1  0.85502965  0.39360290  0.45401823  1
  P  P136  1  0.85876000  0.69263853  0.35650524  1
  P  P137  1  0.67772985  0.19187681  0.35869192  1
  P  P138  1  0.68481652  0.89095173  0.45402496  1
  P  P139  1  0.37270164  0.10603619  0.44492313  1
  P  P140  1  0.86560967  0.95335738  0.64245309  1
  P  P141  1  0.86288171  0.65255238  0.54384771  1
  P  P142  1  0.17553671  0.86905339  0.55668675  1
  P  P143  1  0.36272183  0.37168763  0.55783877  1
  P  P144  1  0.70198157  0.15200119  0.54145905  1
  P  P145  1  0.67933862  0.45348246  0.64330301  1
  P  P146  1  0.87359556  0.56046466  0.84186390  1
  P  P147  1  0.87079605  0.25685659  0.74294457  1
  P  P148  1  0.19084172  0.47827232  0.75749864  1
  P  P149  1  0.18464983  0.17614586  0.65717014  1
  P  P150  1  0.37365012  0.67580306  0.65752333  1
  P  P151  1  0.37071154  0.97868392  0.75648161  1
  P  P152  1  0.68159372  0.75744280  0.74255031  1
  P  P153  1  0.69123816  0.06063167  0.84179333  1
  P  P154  1  0.88662706  0.86265219  0.94208227  1
  P  P155  1  0.19047307  0.08145338  0.95378419  1
  P  P156  1  0.19154202  0.78181638  0.85620439  1
  P  P157  1  0.37389362  0.28241156  0.85879133  1
  P  P158  1  0.36645349  0.58277442  0.95404561  1
  P  P159  1  0.67641336  0.36856953  0.94487690  1
  S  S160  1  0.31557020  0.60978606  0.13450415  1
  S  S161  1  0.31248734  0.91189721  0.03315554  1
  S  S162  1  0.77075551  0.51292648  0.06622786  1
  S  S163  1  0.80172984  0.01562099  0.06939286  1
  S  S164  1  0.26481905  0.41703074  0.03313199  1
  S  S165  1  0.26630067  0.11356864  0.13467557  1
  S  S166  1  0.23225482  0.29046719  0.07704468  1
  S  S167  1  0.78221052  0.84035914  0.12277706  1
  S  S168  1  0.80883761  0.13530165  0.02264685  1
  S  S169  1  0.74230314  0.63992305  0.02320131  1
  S  S170  1  0.72734716  0.33837597  0.12391825  1
  S  S171  1  0.29170241  0.78650823  0.07859555  1
  S  S172  1  0.75178034  0.66090363  0.08775658  1
  S  S173  1  0.29741692  0.46101560  0.11349201  1
  S  S174  1  0.27994707  0.76239390  0.01418735  1
  S  S175  1  0.22027248  0.26551494  0.01269719  1
  S  S176  1  0.25187981  0.96521683  0.11248076  1
  S  S177  1  0.79642472  0.16601372  0.08644890  1
  S  S178  1  0.85801673  0.53018707  0.14497072  1
  S  S179  1  0.85916397  0.83571081  0.04728670  1
  S  S180  1  0.19748034  0.60058088  0.05430823  1
  S  S181  1  0.18732288  0.29663154  0.15270888  1
  S  S182  1  0.35475144  0.79128131  0.15582812  1
  S  S183  1  0.35850420  0.09661236  0.05533237  1
  S  S184  1  0.67645252  0.32071164  0.04256213  1
  S  S185  1  0.69333430  0.02517458  0.14720145  1
  S  S186  1  0.27976249  0.00643519  0.33385057  1
  S  S187  1  0.29829834  0.30686682  0.23382307  1
  S  S188  1  0.73442431  0.90762674  0.26566379  1
  S  S189  1  0.76163234  0.20786700  0.16603149  1
  S  S190  1  0.81066859  0.71102826  0.16531107  1
  S  S191  1  0.77725686  0.40350344  0.26546685  1
  S  S192  1  0.25276940  0.80712078  0.23440084  1
  S  S193  1  0.23130833  0.50225091  0.33302664  1
  S  S194  1  0.25597495  0.67735727  0.27700880  1
  S  S195  1  0.23646745  0.98184723  0.17622375  1
  S  S196  1  0.80810238  0.23139920  0.32526504  1
  S  S197  1  0.80484853  0.53416565  0.22352048  1
  S  S198  1  0.75429569  0.03584010  0.22273156  1
  S  S199  1  0.75755850  0.73171326  0.32156044  1
  S  S200  1  0.28485198  0.48152520  0.17760954  1
  S  S201  1  0.29680947  0.17846108  0.27696153  1
  S  S202  1  0.74661800  0.05626364  0.28676463  1
  S  S203  1  0.74795541  0.35642167  0.18763710  1
  S  S204  1  0.29263780  0.85762673  0.31107252  1
  S  S205  1  0.29841096  0.15852136  0.21308536  1
  S  S206  1  0.25322598  0.65788322  0.21285907  1
  S  S207  1  0.24559921  0.35236022  0.31293347  1
  S  S208  1  0.79590302  0.85969017  0.18690451  1
  S  S209  1  0.79095941  0.55219048  0.28732733  1
  S  S210  1  0.85239697  0.91714216  0.34539990  1
  S  S211  1  0.85291583  0.22296406  0.24581919  1
  S  S212  1  0.18833486  0.98873889  0.25463480  1
  S  S213  1  0.18528860  0.68553155  0.35473052  1
  S  S214  1  0.35181170  0.18913516  0.35453953  1
  S  S215  1  0.34875987  0.49210562  0.25333854  1
  S  S216  1  0.69511528  0.72145792  0.24450870  1
  S  S217  1  0.68550888  0.42176094  0.34428174  1
  S  S218  1  0.27396700  0.70328181  0.43521119  1
  S  S219  1  0.71467665  0.30903234  0.46547426  1
  S  S220  1  0.73039250  0.60443878  0.36530863  1
  S  S221  1  0.78155010  0.10050940  0.36710400  1
  S  S222  1  0.77705410  0.79839390  0.46327271  1
  S  S223  1  0.22819018  0.19397084  0.44410357  1
  S  S224  1  0.28208314  0.05905869  0.47913472  1
  S  S225  1  0.25436869  0.37581660  0.37681857  1
  S  S226  1  0.81325470  0.92866215  0.42027059  1
  S  S227  1  0.73671799  0.43289803  0.41984411  1
  S  S228  1  0.31040966  0.87465359  0.37477071  1
  S  S229  1  0.28506982  0.57195763  0.47664753  1
  S  S230  1  0.75831908  0.45268724  0.48485703  1
  S  S231  1  0.74234457  0.75373048  0.38554236  1
  S  S232  1  0.28592875  0.55668932  0.41202225  1
  S  S233  1  0.24806567  0.05183240  0.41414636  1
  S  S234  1  0.78892520  0.24870309  0.38945344  1
  S  S235  1  0.80100362  0.94413937  0.48468522  1
  S  S236  1  0.83743794  0.61505193  0.44438966  1
  S  S237  1  0.17479649  0.38367773  0.44882322  1
  S  S238  1  0.35782959  0.88748595  0.44968124  1
  S  S239  1  0.69746519  0.11607800  0.44502668  1
  S  S240  1  0.73528966  0.86533129  0.63421840  1
  S  S241  1  0.73491309  0.56291698  0.53362362  1
  S  S242  1  0.27540270  0.96173557  0.56576303  1
  S  S243  1  0.24575065  0.45970345  0.56969639  1
  S  S244  1  0.78012207  0.05817281  0.53283624  1
  S  S245  1  0.77954727  0.36158645  0.63471733  1
  S  S246  1  0.81350228  0.18434072  0.57707903  1
  S  S247  1  0.25882963  0.63552629  0.62332193  1
  S  S248  1  0.23877839  0.34013698  0.52291340  1
  S  S249  1  0.30449215  0.83394459  0.52308816  1
  S  S250  1  0.31943716  0.13729567  0.62399364  1
  S  S251  1  0.75553788  0.68830883  0.57882268  1
  S  S252  1  0.29630759  0.81411106  0.58768697  1
  S  S253  1  0.75011089  0.01411834  0.61321568  1
  S  S254  1  0.76913474  0.71213443  0.51432979  1
  S  S255  1  0.82654455  0.21016521  0.51287897  1
  S  S256  1  0.79693385  0.51024184  0.61281396  1
  S  S257  1  0.25023716  0.30933417  0.58667761  1
  S  S258  1  0.19122038  0.94580018  0.64470014  1
  S  S259  1  0.18898500  0.63923943  0.54759174  1
  S  S260  1  0.84932859  0.87353711  0.55428558  1
  S  S261  1  0.85978245  0.17880887  0.65292546  1
  S  S262  1  0.69721379  0.68043234  0.65577763  1
  S  S263  1  0.68886169  0.37861545  0.55554014  1
  S  S264  1  0.36925712  0.15459509  0.54259200  1
  S  S265  1  0.35441491  0.45131808  0.64728552  1
  S  S266  1  0.76983998  0.46859356  0.83397696  1
  S  S267  1  0.74241980  0.16901072  0.73393399  1
  S  S268  1  0.30955768  0.56779121  0.76587554  1
  S  S269  1  0.28530114  0.26781512  0.66606781  1
  S  S270  1  0.25467348  0.76612368  0.66541907  1
  S  S271  1  0.26699098  0.07045780  0.76483199  1
  S  S272  1  0.81093264  0.66894479  0.73413927  1
  S  S273  1  0.82224913  0.97267789  0.83302199  1
  S  S274  1  0.78522445  0.79770247  0.77721945  1
  S  S275  1  0.81138139  0.49293719  0.67656214  1
  S  S276  1  0.24470198  0.24294573  0.82535221  1
  S  S277  1  0.24185222  0.93939204  0.72316958  1
  S  S278  1  0.30797430  0.43933472  0.72339867  1
  S  S279  1  0.29134676  0.74181636  0.82140679  1
  S  S280  1  0.76301667  0.99372178  0.67724101  1
  S  S281  1  0.76397641  0.29638621  0.77765670  1
  S  S282  1  0.30801215  0.41907521  0.78730186  1
  S  S283  1  0.29910345  0.11902727  0.68768865  1
  S  S284  1  0.75649698  0.61716821  0.81127445  1
  S  S285  1  0.75545937  0.31800762  0.71368187  1
  S  S286  1  0.79803568  0.81801221  0.71330622  1
  S  S287  1  0.80384487  0.12243446  0.81276806  1
  S  S288  1  0.25554694  0.61694609  0.68747128  1
  S  S289  1  0.25588689  0.92217214  0.78714377  1
  S  S290  1  0.19922074  0.55722373  0.84528986  1
  S  S291  1  0.19654969  0.24950191  0.74544533  1
  S  S292  1  0.86317149  0.48393894  0.75462146  1
  S  S293  1  0.86534221  0.78987220  0.85439209  1
  S  S294  1  0.70003297  0.28557091  0.85484949  1
  S  S295  1  0.69668018  0.98283109  0.75305174  1
  S  S296  1  0.35625421  0.74926468  0.74434070  1
  S  S297  1  0.36563727  0.05194733  0.84399078  1
  S  S298  1  0.77850322  0.77123947  0.93441662  1
  S  S299  1  0.32886754  0.16628858  0.96533587  1
  S  S300  1  0.32293518  0.86965565  0.86484233  1
  S  S301  1  0.26996649  0.37388125  0.86723303  1
  S  S302  1  0.27300092  0.67533623  0.96321453  1
  S  S303  1  0.82086010  0.28059637  0.94403176  1
  S  S304  1  0.76548675  0.41536865  0.97913328  1
  S  S305  1  0.79437373  0.09913717  0.87670256  1
  S  S306  1  0.23876147  0.54528325  0.92019275  1
  S  S307  1  0.31045439  0.04244494  0.91961313  1
  S  S308  1  0.74373423  0.60038436  0.87499796  1
  S  S309  1  0.76381870  0.90244916  0.97616174  1
  S  S310  1  0.28834410  0.02257991  0.98463872  1
  S  S311  1  0.30718275  0.72086449  0.88539508  1
  S  S312  1  0.76411887  0.91786651  0.91159802  1
  S  S313  1  0.80137934  0.42280577  0.91412314  1
  S  S314  1  0.26123970  0.22554764  0.88943022  1
  S  S315  1  0.25068673  0.52922884  0.98460526  1
  S  S316  1  0.21279863  0.85978455  0.94411962  1
  S  S317  1  0.87053843  0.09059698  0.94850916  1
  S  S318  1  0.69370608  0.58638409  0.94979672  1
  S  S319  1  0.35164696  0.35795632  0.94491749  1
