# generated using pymatgen
data_Li3PS4
_symmetry_space_group_name_H-M   'P 1'
_cell_length_a   6.25995100
_cell_length_b   27.34510000
_cell_length_c   56.50981726
_cell_angle_alpha   90.00000000
_cell_angle_beta   90.00000000
_cell_angle_gamma   90.00000000
_symmetry_Int_Tables_number   1
_chemical_formula_structural   Li3PS4
_chemical_formula_sum   'Li168 P56 S224'
_cell_volume   9673.29322340
_cell_formula_units_Z   56
loop_
 _symmetry_equiv_pos_site_id
 _symmetry_equiv_pos_as_xyz
  1  'x, y, z'
loop_
 _atom_site_type_symbol
 _atom_site_label
 _atom_site_symmetry_multiplicity
 _atom_site_fract_x
 _atom_site_fract_y
 _atom_site_fract_z
 _atom_site_occupancy
  Li  Li0  1  0.76213086  0.55748837  0.05525361  1
  Li  Li1  1  0.78145958  0.45550740  0.00767421  1
  Li  Li2  1  0.99965824  0.86879569  0.09082495  1
  Li  Li3  1  0.38199024  0.13770841  0.01195089  1
  Li  Li4  1  0.28379247  0.63801453  0.06115010  1
  Li  Li5  1  0.61182383  0.32511452  0.02349677  1
  Li  Li6  1  0.48965356  0.79133116  0.09298305  1
  Li  Li7  1  0.55723744  0.29367901  0.08879389  1
  Li  Li8  1  0.33947428  0.13459378  0.07816990  1
  Li  Li9  1  0.43462157  0.66826776  0.00273076  1
  Li  Li10  1  0.01289039  0.36559267  0.10719627  1
  Li  Li11  1  0.77348358  0.80167661  0.01270571  1
  Li  Li12  1  0.86599757  0.09643836  0.05386214  1
  Li  Li13  1  0.80249200  0.52130035  0.11813944  1
  Li  Li14  1  0.30606057  0.46938197  0.04520857  1
  Li  Li15  1  0.34650141  0.93699513  0.11794994  1
  Li  Li16  1  0.83224452  0.72696202  0.06920379  1
  Li  Li17  1  0.01355251  0.21923192  0.07727853  1
  Li  Li18  1  0.48392225  0.98647860  0.05940970  1
  Li  Li19  1  0.36067228  0.44384909  0.10637510  1
  Li  Li20  1  0.79724809  0.01955161  0.12610361  1
  Li  Li21  1  0.84099359  0.47754640  0.19832396  1
  Li  Li22  1  0.05436624  0.33054660  0.16724985  1
  Li  Li23  1  0.01148526  0.78421607  0.23197363  1
  Li  Li24  1  0.31477319  0.10016805  0.13479746  1
  Li  Li25  1  0.31112504  0.55892768  0.19934657  1
  Li  Li26  1  0.52869950  0.24793990  0.16820166  1
  Li  Li27  1  0.51336827  0.70435593  0.23124506  1
  Li  Li28  1  0.53066430  0.20965125  0.22392309  1
  Li  Li29  1  0.55534195  0.75047107  0.15167900  1
  Li  Li30  1  0.32123975  0.04962163  0.21000406  1
  Li  Li31  1  0.34257212  0.59205381  0.13878652  1
  Li  Li32  1  0.02142600  0.27755992  0.24456283  1
  Li  Li33  1  0.05536278  0.82485267  0.17169833  1
  Li  Li34  1  0.84364555  0.98304384  0.18635061  1
  Li  Li35  1  0.82206713  0.43615948  0.25782251  1
  Li  Li36  1  0.49193211  0.41027298  0.17561549  1
  Li  Li37  1  0.36464239  0.84997434  0.25518207  1
  Li  Li38  1  0.88202413  0.18113320  0.14544952  1
  Li  Li39  1  0.86945868  0.63897186  0.20768753  1
  Li  Li40  1  0.89621128  0.12853099  0.22158122  1
  Li  Li41  1  0.98900854  0.67414978  0.13732240  1
  Li  Li42  1  0.49945913  0.90000428  0.18740138  1
  Li  Li43  1  0.37195339  0.35981574  0.24313341  1
  Li  Li44  1  0.80600032  0.93102419  0.26405863  1
  Li  Li45  1  0.85873041  0.38707054  0.33589860  1
  Li  Li46  1  0.07040380  0.24080426  0.30461100  1
  Li  Li47  1  0.02626725  0.69392967  0.37161148  1
  Li  Li48  1  0.33839388  0.01012561  0.26788728  1
  Li  Li49  1  0.33257950  0.46938135  0.33593307  1
  Li  Li50  1  0.56495625  0.15819901  0.30065172  1
  Li  Li51  1  0.54002309  0.61948755  0.36870356  1
  Li  Li52  1  0.51999545  0.11598782  0.36088900  1
  Li  Li53  1  0.56449104  0.66514318  0.29095047  1
  Li  Li54  1  0.32404019  0.96058800  0.34562575  1
  Li  Li55  1  0.35295184  0.50676376  0.27702694  1
  Li  Li56  1  0.01598014  0.19032057  0.38200001  1
  Li  Li57  1  0.05573518  0.73748069  0.31109581  1
  Li  Li58  1  0.84655854  0.89333955  0.32410992  1
  Li  Li59  1  0.85165692  0.34798459  0.39496147  1
  Li  Li60  1  0.50987466  0.32200036  0.31200778  1
  Li  Li61  1  0.34498833  0.76159691  0.39660434  1
  Li  Li62  1  0.99494567  0.07807547  0.29055521  1
  Li  Li63  1  0.88908240  0.54986054  0.34538291  1
  Li  Li64  1  0.88939206  0.03743301  0.35783405  1
  Li  Li65  1  0.00294502  0.58841459  0.27639730  1
  Li  Li66  1  0.48870965  0.81184577  0.32720076  1
  Li  Li67  1  0.38892164  0.27469162  0.38108763  1
  Li  Li68  1  0.76655530  0.84281940  0.40282252  1
  Li  Li69  1  0.03791698  0.22797013  0.48154047  1
  Li  Li70  1  0.13008972  0.14125877  0.42750151  1
  Li  Li71  1  0.23611338  0.92436166  0.41225673  1
  Li  Li72  1  0.45303848  0.36498517  0.44926230  1
  Li  Li73  1  0.59497137  0.07491641  0.43123004  1
  Li  Li74  1  0.69878446  0.50558513  0.49902924  1
  Li  Li75  1  0.32239703  0.05888031  0.47997556  1
  Li  Li76  1  0.55355934  0.57502151  0.42357696  1
  Li  Li77  1  0.33595128  0.43203467  0.41397673  1
  Li  Li78  1  0.99995668  0.63617922  0.44836878  1
  Li  Li79  1  0.82316050  0.83600606  0.45846031  1
  Li  Li80  1  0.54182608  0.22978018  0.44684980  1
  Li  Li81  1  0.79997940  0.96935231  0.46076701  1
  Li  Li82  1  0.92242832  0.49999069  0.42314511  1
  Li  Li83  1  0.66718334  0.71881812  0.46866905  1
  Li  Li84  1  0.24650440  0.69086490  0.55633472  1
  Li  Li85  1  0.24748222  0.79159565  0.50672624  1
  Li  Li86  1  0.01700220  0.37816714  0.59176612  1
  Li  Li87  1  0.64517898  0.11215897  0.51197633  1
  Li  Li88  1  0.72582235  0.60924937  0.56173350  1
  Li  Li89  1  0.41651173  0.92381813  0.52328827  1
  Li  Li90  1  0.50343744  0.45753122  0.59500766  1
  Li  Li91  1  0.46255359  0.95612404  0.58795226  1
  Li  Li92  1  0.68159888  0.11306891  0.57804142  1
  Li  Li93  1  0.47079193  0.61841709  0.50025940  1
  Li  Li94  1  0.01520744  0.88414640  0.60719642  1
  Li  Li95  1  0.14259657  0.47459318  0.52060135  1
  Li  Li96  1  0.15500833  0.15247157  0.55408618  1
  Li  Li97  1  0.22254714  0.72884169  0.61839028  1
  Li  Li98  1  0.71792841  0.78009033  0.54519077  1
  Li  Li99  1  0.67485589  0.31093597  0.61812650  1
  Li  Li100  1  0.13910796  0.52551264  0.57336267  1
  Li  Li101  1  0.00900649  0.02893829  0.57683505  1
  Li  Li102  1  0.53920692  0.26189449  0.55940942  1
  Li  Li103  1  0.66661142  0.80594392  0.60637166  1
  Li  Li104  1  0.22670727  0.22851377  0.62630159  1
  Li  Li105  1  0.18422829  0.77254976  0.69870458  1
  Li  Li106  1  0.97311499  0.91882195  0.66759243  1
  Li  Li107  1  0.01658973  0.46554046  0.73228563  1
  Li  Li108  1  0.70994410  0.14866030  0.63458638  1
  Li  Li109  1  0.71396038  0.69090393  0.70037669  1
  Li  Li110  1  0.49601943  0.00077538  0.66785592  1
  Li  Li111  1  0.51644737  0.54622588  0.73226312  1
  Li  Li112  1  0.49631047  0.03980687  0.72391736  1
  Li  Li113  1  0.46309312  0.49932605  0.65351544  1
  Li  Li114  1  0.70167726  0.19937845  0.71007792  1
  Li  Li115  1  0.68491201  0.65796951  0.63939653  1
  Li  Li116  1  0.00781662  0.97194667  0.74494093  1
  Li  Li117  1  0.96370669  0.42463520  0.67160695  1
  Li  Li118  1  0.17926058  0.26598764  0.68686274  1
  Li  Li119  1  0.20797152  0.81265053  0.75857043  1
  Li  Li120  1  0.53600240  0.83927099  0.67581114  1
  Li  Li121  1  0.65853578  0.40014737  0.75597079  1
  Li  Li122  1  0.14170089  0.06784157  0.64540225  1
  Li  Li123  1  0.15836192  0.61165414  0.70854899  1
  Li  Li124  1  0.12822130  0.12060306  0.72139765  1
  Li  Li125  1  0.03611102  0.57672386  0.63882835  1
  Li  Li126  1  0.52749565  0.34951004  0.68769618  1
  Li  Li127  1  0.65515152  0.88985773  0.74404355  1
  Li  Li128  1  0.21751114  0.31939381  0.76455679  1
  Li  Li129  1  0.17369187  0.86298827  0.83664231  1
  Li  Li130  1  0.95684532  0.00932835  0.80533528  1
  Li  Li131  1  0.01549679  0.55541559  0.87199538  1
  Li  Li132  1  0.68938620  0.23982073  0.76790219  1
  Li  Li133  1  0.69434098  0.78093662  0.83763769  1
  Li  Li134  1  0.46130232  0.09109753  0.80061234  1
  Li  Li135  1  0.49842753  0.63065478  0.87040314  1
  Li  Li136  1  0.51311007  0.13382761  0.86087898  1
  Li  Li137  1  0.46294084  0.58583716  0.79249203  1
  Li  Li138  1  0.70506381  0.29004175  0.84557375  1
  Li  Li139  1  0.67895797  0.74302816  0.77817582  1
  Li  Li140  1  0.01968533  0.05963502  0.88282111  1
  Li  Li141  1  0.97248633  0.51242915  0.81227704  1
  Li  Li142  1  0.19080665  0.35694440  0.82478255  1
  Li  Li143  1  0.18064910  0.90047444  0.89599006  1
  Li  Li144  1  0.52121240  0.92775538  0.81234261  1
  Li  Li145  1  0.68545866  0.48772249  0.89714256  1
  Li  Li146  1  0.03287189  0.17190001  0.79057586  1
  Li  Li147  1  0.13918962  0.70085653  0.84810369  1
  Li  Li148  1  0.13894614  0.21237285  0.85786095  1
  Li  Li149  1  0.02607014  0.66068723  0.77742266  1
  Li  Li150  1  0.54158801  0.43824905  0.82759248  1
  Li  Li151  1  0.64903572  0.97523177  0.88120711  1
  Li  Li152  1  0.26146048  0.40626972  0.90358083  1
  Li  Li153  1  0.98792893  0.02244724  0.98156343  1
  Li  Li154  1  0.89877265  0.10963116  0.92747993  1
  Li  Li155  1  0.80573230  0.32473224  0.91262601  1
  Li  Li156  1  0.52997958  0.89164065  0.94639626  1
  Li  Li157  1  0.43321894  0.17742501  0.93153086  1
  Li  Li158  1  0.13816828  0.74780756  0.99621031  1
  Li  Li159  1  0.70703062  0.19205394  0.98023245  1
  Li  Li160  1  0.49536080  0.67212910  0.92629081  1
  Li  Li161  1  0.71703087  0.81559573  0.91865882  1
  Li  Li162  1  0.02642023  0.61256751  0.94870323  1
  Li  Li163  1  0.19412938  0.42387633  0.96171571  1
  Li  Li164  1  0.49054630  0.02278795  0.94740867  1
  Li  Li165  1  0.23788538  0.28437126  0.96164257  1
  Li  Li166  1  0.15284654  0.74597380  0.92617869  1
  Li  Li167  1  0.40614113  0.53861178  0.97489047  1
  P  P168  1  0.08722439  0.00901938  0.08252720  1
  P  P169  1  0.04564251  0.54911811  0.01210368  1
  P  P170  1  0.75480900  0.42417815  0.07239764  1
  P  P171  1  0.61407711  0.19461848  0.04869535  1
  P  P172  1  0.57947097  0.65370804  0.10354862  1
  P  P173  1  0.28410821  0.23787617  0.12388631  1
  P  P174  1  0.27445236  0.77868800  0.04456588  1
  P  P175  1  0.08903570  0.91956853  0.22018228  1
  P  P176  1  0.08515079  0.46510976  0.15332352  1
  P  P177  1  0.77549234  0.34102518  0.21072142  1
  P  P178  1  0.76451343  0.88248847  0.13826317  1
  P  P179  1  0.58569271  0.10969855  0.17730565  1
  P  P180  1  0.59556413  0.56902030  0.24307942  1
  P  P181  1  0.28243039  0.14837326  0.25772155  1
  P  P182  1  0.27085780  0.69321559  0.18517463  1
  P  P183  1  0.07412099  0.83164738  0.36014882  1
  P  P184  1  0.10202876  0.37626879  0.29124520  1
  P  P185  1  0.78390581  0.25081494  0.34738127  1
  P  P186  1  0.76986364  0.79582185  0.27785820  1
  P  P187  1  0.59192961  0.02181993  0.31206527  1
  P  P188  1  0.60886635  0.48027057  0.37906666  1
  P  P189  1  0.28162953  0.04782516  0.39397426  1
  P  P190  1  0.28744269  0.60583845  0.32406313  1
  P  P191  1  0.11918375  0.28919548  0.43040660  1
  P  P192  1  0.82384362  0.14029411  0.46559145  1
  P  P193  1  0.76079394  0.70813864  0.41464527  1
  P  P194  1  0.39833248  0.90617373  0.46323709  1
  P  P195  1  0.35755609  0.51432332  0.46094631  1
  P  P196  1  0.93412755  0.23894390  0.58282929  1
  P  P197  1  0.96444595  0.69846987  0.51228174  1
  P  P198  1  0.26890637  0.82457805  0.57193502  1
  P  P199  1  0.40801761  0.05419366  0.54825940  1
  P  P200  1  0.43919734  0.59636974  0.60495047  1
  P  P201  1  0.73940645  0.01075127  0.62365366  1
  P  P202  1  0.72177779  0.47117870  0.54740281  1
  P  P203  1  0.93570514  0.33016851  0.72072078  1
  P  P204  1  0.94108571  0.78457169  0.65346612  1
  P  P205  1  0.25245261  0.90811249  0.71126585  1
  P  P206  1  0.25459752  0.36502277  0.63888702  1
  P  P207  1  0.43930204  0.13888934  0.67706424  1
  P  P208  1  0.43237394  0.68096541  0.74438208  1
  P  P209  1  0.74484154  0.10116722  0.75779304  1
  P  P210  1  0.75428069  0.55687557  0.68607377  1
  P  P211  1  0.95817058  0.41828645  0.86042526  1
  P  P212  1  0.92838270  0.87312244  0.79195652  1
  P  P213  1  0.24812665  0.99865219  0.84804703  1
  P  P214  1  0.25779576  0.45482388  0.77837178  1
  P  P215  1  0.43700755  0.22779349  0.81208833  1
  P  P216  1  0.42944234  0.77069967  0.88205049  1
  P  P217  1  0.74885684  0.20203216  0.89403095  1
  P  P218  1  0.74476698  0.64498821  0.82562844  1
  P  P219  1  0.91045773  0.95966030  0.93113107  1
  P  P220  1  0.20497726  0.11024639  0.96559715  1
  P  P221  1  0.27647908  0.54092493  0.91595631  1
  P  P222  1  0.64029989  0.34399207  0.96312373  1
  P  P223  1  0.67620802  0.73868725  0.96520160  1
  S  S224  1  0.23047954  0.05690087  0.05896689  1
  S  S225  1  0.16253606  0.60357403  0.99091690  1
  S  S226  1  0.63836849  0.37915279  0.09845370  1
  S  S227  1  0.70940174  0.15764228  0.07844257  1
  S  S228  1  0.17648748  0.28607971  0.09847219  1
  S  S229  1  0.16221079  0.82307813  0.01824040  1
  S  S230  1  0.12410563  0.78710065  0.07689490  1
  S  S231  1  0.75279998  0.15702677  0.02075561  1
  S  S232  1  0.67993795  0.64268238  0.06917067  1
  S  S233  1  0.62125036  0.40913656  0.03966855  1
  S  S234  1  0.62479118  0.87315731  0.10557516  1
  S  S235  1  0.18538478  0.01951003  0.11696411  1
  S  S236  1  0.14776248  0.55649423  0.04654404  1
  S  S237  1  0.63307253  0.49286381  0.08114910  1
  S  S238  1  0.16818618  0.48175464  0.00095332  1
  S  S239  1  0.18010990  0.94035571  0.07191648  1
  S  S240  1  0.16931340  0.16970428  0.11305857  1
  S  S241  1  0.20990949  0.70706733  0.03409290  1
  S  S242  1  0.72965671  0.26468111  0.05218167  1
  S  S243  1  0.69015311  0.72339449  0.11247013  1
  S  S244  1  0.76485510  0.02338617  0.08156343  1
  S  S245  1  0.71725185  0.54606057  0.01143900  1
  S  S246  1  0.07989875  0.41660092  0.07170874  1
  S  S247  1  0.28796239  0.19105310  0.04428959  1
  S  S248  1  0.25468820  0.64472202  0.10422318  1
  S  S249  1  0.60790990  0.24564358  0.12585466  1
  S  S250  1  0.59272003  0.79371363  0.05072176  1
  S  S251  1  0.22060739  0.96637881  0.19586335  1
  S  S252  1  0.18822887  0.51293039  0.12756225  1
  S  S253  1  0.64477078  0.29386516  0.23508040  1
  S  S254  1  0.66569525  0.83366083  0.16374507  1
  S  S255  1  0.70572931  0.06049263  0.20154820  1
  S  S256  1  0.71669251  0.60819113  0.12811981  1
  S  S257  1  0.15179144  0.19587098  0.23353415  1
  S  S258  1  0.16739868  0.74133694  0.15955332  1
  S  S259  1  0.15154711  0.24718248  0.15674049  1
  S  S260  1  0.13854067  0.70357703  0.21811697  1
  S  S261  1  0.69948191  0.09987305  0.14331475  1
  S  S262  1  0.69728861  0.55791528  0.20884336  1
  S  S263  1  0.66989642  0.32972375  0.17672819  1
  S  S264  1  0.63633324  0.78523405  0.24498975  1
  S  S265  1  0.19237740  0.93074593  0.25443071  1
  S  S266  1  0.21751891  0.47570103  0.18619622  1
  S  S267  1  0.65899017  0.95052143  0.14997563  1
  S  S268  1  0.66347419  0.41009547  0.22013046  1
  S  S269  1  0.19848069  0.39698847  0.14265663  1
  S  S270  1  0.20067971  0.85049188  0.21074397  1
  S  S271  1  0.16522545  0.07980034  0.24793730  1
  S  S272  1  0.15979312  0.62496546  0.17438141  1
  S  S273  1  0.70561004  0.17765787  0.18782283  1
  S  S274  1  0.70725685  0.63820703  0.25225872  1
  S  S275  1  0.76344661  0.92719896  0.22037178  1
  S  S276  1  0.75990771  0.47197530  0.15537844  1
  S  S277  1  0.10096973  0.33300508  0.21070886  1
  S  S278  1  0.08845162  0.87407872  0.13470397  1
  S  S279  1  0.26182035  0.10510038  0.17707744  1
  S  S280  1  0.27005870  0.56083842  0.24309740  1
  S  S281  1  0.60773969  0.15524572  0.25736912  1
  S  S282  1  0.59599402  0.70009460  0.18775878  1
  S  S283  1  0.21523499  0.87668428  0.33559945  1
  S  S284  1  0.20609997  0.42585788  0.26633541  1
  S  S285  1  0.64391959  0.20327630  0.37091920  1
  S  S286  1  0.66923363  0.74753879  0.30355247  1
  S  S287  1  0.70190697  0.97161855  0.33620677  1
  S  S288  1  0.72854368  0.52262492  0.26761546  1
  S  S289  1  0.14665238  0.10376568  0.37405984  1
  S  S290  1  0.17907832  0.65482449  0.29915744  1
  S  S291  1  0.17921232  0.15836240  0.29203341  1
  S  S292  1  0.16075457  0.61484957  0.35733948  1
  S  S293  1  0.71652029  0.01396862  0.27870274  1
  S  S294  1  0.71886203  0.46778546  0.34537804  1
  S  S295  1  0.68385618  0.24131178  0.31305470  1
  S  S296  1  0.64573368  0.70409289  0.38083362  1
  S  S297  1  0.16340971  0.84185077  0.39497609  1
  S  S298  1  0.23397428  0.38555872  0.32423420  1
  S  S299  1  0.65842571  0.86379019  0.28873444  1
  S  S300  1  0.67852360  0.32010203  0.35764422  1
  S  S301  1  0.21323199  0.30850481  0.27998800  1
  S  S302  1  0.18915575  0.76278296  0.35096094  1
  S  S303  1  0.14756349  0.98392931  0.38178611  1
  S  S304  1  0.17451512  0.53795173  0.31280202  1
  S  S305  1  0.70693670  0.08912111  0.32410963  1
  S  S306  1  0.73312062  0.54844650  0.38845505  1
  S  S307  1  0.74964426  0.84225129  0.35929523  1
  S  S308  1  0.77653505  0.38326601  0.29317755  1
  S  S309  1  0.10924576  0.24287544  0.34826333  1
  S  S310  1  0.09501849  0.78871990  0.27517863  1
  S  S311  1  0.26587762  0.01555039  0.31094597  1
  S  S312  1  0.28434246  0.47744010  0.37888971  1
  S  S313  1  0.60661393  0.05190722  0.39060180  1
  S  S314  1  0.61323438  0.61215682  0.32590331  1
  S  S315  1  0.24750601  0.34298529  0.40883396  1
  S  S316  1  0.72277784  0.06983093  0.47360731  1
  S  S317  1  0.62342017  0.65715789  0.43657981  1
  S  S318  1  0.48587057  0.84317845  0.48003924  1
  S  S319  1  0.72593132  0.43193594  0.40424496  1
  S  S320  1  0.19747087  0.55917632  0.43730363  1
  S  S321  1  0.21039091  0.05545938  0.42919269  1
  S  S322  1  0.30842750  0.53548674  0.49552482  1
  S  S323  1  0.58700171  0.91561109  0.43330361  1
  S  S324  1  0.74176710  0.15626371  0.43138468  1
  S  S325  1  0.25532091  0.29328399  0.46369644  1
  S  S326  1  0.65641210  0.77416719  0.42900716  1
  S  S327  1  0.68250571  0.19088010  0.48770474  1
  S  S328  1  0.23632191  0.22563850  0.41503429  1
  S  S329  1  0.24587702  0.44445038  0.45529718  1
  S  S330  1  0.46420403  0.96485669  0.48520053  1
  S  S331  1  0.79549604  0.29728126  0.43089087  1
  S  S332  1  0.14778344  0.14684240  0.47080717  1
  S  S333  1  0.08490196  0.69723988  0.41570564  1
  S  S334  1  0.08102113  0.90605215  0.45274415  1
  S  S335  1  0.68165574  0.52409268  0.45650201  1
  S  S336  1  0.78998879  0.19112402  0.55928912  1
  S  S337  1  0.84466762  0.64545839  0.49056195  1
  S  S338  1  0.38891972  0.87011250  0.59756887  1
  S  S339  1  0.31224097  0.09030501  0.57821762  1
  S  S340  1  0.84516976  0.96255685  0.59811915  1
  S  S341  1  0.80999854  0.42778439  0.51977867  1
  S  S342  1  0.86859395  0.45742179  0.57960672  1
  S  S343  1  0.27209135  0.09269936  0.52049061  1
  S  S344  1  0.33381413  0.60682580  0.57071401  1
  S  S345  1  0.39959111  0.83881202  0.53891339  1
  S  S346  1  0.39168797  0.37395200  0.60610726  1
  S  S347  1  0.83822852  0.22846763  0.61732442  1
  S  S348  1  0.86038615  0.69176357  0.54659471  1
  S  S349  1  0.38977960  0.75602138  0.58092675  1
  S  S350  1  0.86483134  0.76712946  0.50087431  1
  S  S351  1  0.84062490  0.30760164  0.57238725  1
  S  S352  1  0.85406519  0.07886641  0.61285112  1
  S  S353  1  0.83321916  0.53997202  0.53724510  1
  S  S354  1  0.28969345  0.98414200  0.55130219  1
  S  S355  1  0.32156921  0.52784479  0.61487171  1
  S  S356  1  0.25670875  0.22478825  0.58163574  1
  S  S357  1  0.29671019  0.69815678  0.51169724  1
  S  S358  1  0.94397516  0.83262820  0.57163104  1
  S  S359  1  0.73430427  0.05715324  0.54398264  1
  S  S360  1  0.76504040  0.60372131  0.60500864  1
  S  S361  1  0.41563386  0.00284422  0.62567859  1
  S  S362  1  0.39823862  0.46377713  0.55358552  1
  S  S363  1  0.80282520  0.28306465  0.69659606  1
  S  S364  1  0.83777918  0.73691653  0.62764464  1
  S  S365  1  0.38390263  0.95545822  0.73550825  1
  S  S366  1  0.35486628  0.41457726  0.66404272  1
  S  S367  1  0.31851092  0.18799994  0.70130352  1
  S  S368  1  0.30913061  0.64328017  0.62935245  1
  S  S369  1  0.87512748  0.05339461  0.73368060  1
  S  S370  1  0.85318443  0.50879099  0.66028522  1
  S  S371  1  0.87315570  0.00147411  0.65645152  1
  S  S372  1  0.89000493  0.54658569  0.71883240  1
  S  S373  1  0.32560223  0.14833191  0.64304679  1
  S  S374  1  0.32914384  0.69249864  0.71018815  1
  S  S375  1  0.35690743  0.91930687  0.67719019  1
  S  S376  1  0.39159890  0.46542181  0.74550776  1
  S  S377  1  0.83248598  0.31956691  0.75502631  1
  S  S378  1  0.80788952  0.77391625  0.68629536  1
  S  S379  1  0.36321978  0.29734407  0.65064921  1
  S  S380  1  0.36461984  0.83907732  0.72068598  1
  S  S381  1  0.82888814  0.85277367  0.64273144  1
  S  S382  1  0.82550027  0.39928626  0.71111927  1
  S  S383  1  0.86172620  0.16965896  0.74787828  1
  S  S384  1  0.86538481  0.62516786  0.67521820  1
  S  S385  1  0.32037359  0.07091224  0.68768771  1
  S  S386  1  0.32102660  0.61176104  0.75348310  1
  S  S387  1  0.26098409  0.32196401  0.72089754  1
  S  S388  1  0.26620871  0.77767892  0.65563022  1
  S  S389  1  0.92707359  0.91611247  0.71132364  1
  S  S390  1  0.93027954  0.37331889  0.63566699  1
  S  S391  1  0.76298175  0.14398148  0.67689606  1
  S  S392  1  0.75814561  0.68885812  0.74417824  1
  S  S393  1  0.41954037  0.09425037  0.75738312  1
  S  S394  1  0.42919746  0.55030821  0.68915893  1
  S  S395  1  0.81954229  0.37377614  0.83545834  1
  S  S396  1  0.82355745  0.82377569  0.76700196  1
  S  S397  1  0.39040152  0.04629998  0.87128831  1
  S  S398  1  0.35901156  0.50276269  0.80422226  1
  S  S399  1  0.32783047  0.27790774  0.83630981  1
  S  S400  1  0.30137081  0.72710448  0.76912438  1
  S  S401  1  0.88485460  0.14541374  0.87453341  1
  S  S402  1  0.84949481  0.59583991  0.80059503  1
  S  S403  1  0.84797055  0.09144048  0.79213632  1
  S  S404  1  0.87515880  0.63530459  0.85876251  1
  S  S405  1  0.31152685  0.23591740  0.77876579  1
  S  S406  1  0.30790482  0.78276563  0.84881872  1
  S  S407  1  0.34480857  0.00778180  0.81356294  1
  S  S408  1  0.39350540  0.54715852  0.88217977  1
  S  S409  1  0.86666691  0.40726233  0.89502404  1
  S  S410  1  0.79602951  0.86410471  0.82495762  1
  S  S411  1  0.36960364  0.38670658  0.78905035  1
  S  S412  1  0.35287906  0.92936193  0.85849645  1
  S  S413  1  0.81890529  0.94099263  0.78062658  1
  S  S414  1  0.84269085  0.48738996  0.85165465  1
  S  S415  1  0.88319239  0.26554872  0.88144755  1
  S  S416  1  0.85659563  0.71297572  0.81446809  1
  S  S417  1  0.32219741  0.16045448  0.82411922  1
  S  S418  1  0.31347626  0.70159549  0.89156154  1
  S  S419  1  0.28311577  0.40822490  0.85977830  1
  S  S420  1  0.25381486  0.86559384  0.79403569  1
  S  S421  1  0.92281599  0.00706030  0.84905890  1
  S  S422  1  0.93300185  0.46203248  0.77568084  1
  S  S423  1  0.76289705  0.23421126  0.81092309  1
  S  S424  1  0.75183551  0.77602530  0.88085318  1
  S  S425  1  0.42439314  0.19749802  0.89043122  1
  S  S426  1  0.41908303  0.63895059  0.82783232  1
  S  S427  1  0.78679076  0.90533177  0.90955595  1
  S  S428  1  0.30527297  0.18042974  0.97388990  1
  S  S429  1  0.41083077  0.59146978  0.93853028  1
  S  S430  1  0.54570586  0.40633740  0.97999579  1
  S  S431  1  0.31295009  0.81767894  0.90812266  1
  S  S432  1  0.83524922  0.70116842  0.93859759  1
  S  S433  1  0.81927262  0.19546659  0.92927620  1
  S  S434  1  0.77206454  0.71620743  0.99781068  1
  S  S435  1  0.45795166  0.33209665  0.93306156  1
  S  S436  1  0.28911280  0.09503439  0.93135278  1
  S  S437  1  0.77426647  0.95510705  0.96426700  1
  S  S438  1  0.37870696  0.47435707  0.92915345  1
  S  S439  1  0.34519465  0.05898644  0.98754429  1
  S  S440  1  0.79524785  0.02319180  0.91566354  1
  S  S441  1  0.74027537  0.81240039  0.96255166  1
  S  S442  1  0.57897547  0.28498364  0.98531259  1
  S  S443  1  0.23684812  0.95377957  0.93131605  1
  S  S444  1  0.88079508  0.10351258  0.97073831  1
  S  S445  1  0.95192268  0.55238644  0.91633615  1
  S  S446  1  0.95918298  0.34692537  0.95316097  1
  S  S447  1  0.35637038  0.71886693  0.96207324  1
