# generated using pymatgen
data_Li3PS4
_symmetry_space_group_name_H-M   'P 1'
_cell_length_a   6.25995100
_cell_length_b   27.34510000
_cell_length_c   56.34236762
_cell_angle_alpha   90.00000000
_cell_angle_beta   90.00000000
_cell_angle_gamma   90.00000000
_symmetry_Int_Tables_number   1
_chemical_formula_structural   Li3PS4
_chemical_formula_sum   'Li168 P56 S224'
_cell_volume   9644.62936379
_cell_formula_units_Z   56
loop_
 _symmetry_equiv_pos_site_id
 _symmetry_equiv_pos_as_xyz
  1  'x, y, z'
loop_
 _atom_site_type_symbol
 _atom_site_label
 _atom_site_symmetry_multiplicity
 _atom_site_fract_x
 _atom_site_fract_y
 _atom_site_fract_z
 _atom_site_occupancy
  Li  Li0  1  0.86191833  0.52430229  0.07343462  1
  Li  Li1  1  0.95429343  0.43484343  0.01915453  1
  Li  Li2  1  0.23609910  0.81938245  0.09610818  1
  Li  Li3  1  0.10149217  0.16005973  0.00388508  1
  Li  Li4  1  0.40153384  0.59005520  0.06844121  1
  Li  Li5  1  0.49467283  0.30391442  0.05410414  1
  Li  Li6  1  0.76971460  0.73959981  0.08797474  1
  Li  Li7  1  0.68918354  0.22814534  0.08118588  1
  Li  Li8  1  0.46267595  0.08660508  0.07408716  1
  Li  Li9  1  0.66916274  0.60547614  0.02023230  1
  Li  Li10  1  0.14938647  0.31436790  0.10415668  1
  Li  Li11  1  0.14605150  0.83792775  0.03862465  1
  Li  Li12  1  0.98769253  0.02756222  0.05155052  1
  Li  Li13  1  0.45791257  0.43639808  0.05306520  1
  Li  Li14  1  0.65780463  0.90270398  0.10280876  1
  Li  Li15  1  0.19530017  0.69674599  0.03988731  1
  Li  Li16  1  0.12322575  0.15949894  0.07416962  1
  Li  Li17  1  0.36428871  0.95081641  0.02655453  1
  Li  Li18  1  0.61233054  0.38784284  0.11881388  1
  Li  Li19  1  0.98648273  0.96951182  0.12829329  1
  Li  Li20  1  0.93009227  0.42237934  0.19524852  1
  Li  Li21  1  0.14033887  0.27708892  0.16333347  1
  Li  Li22  1  0.19108069  0.73365670  0.23524266  1
  Li  Li23  1  0.46979867  0.04443002  0.12980417  1
  Li  Li24  1  0.43373571  0.50479890  0.19926078  1
  Li  Li25  1  0.66642624  0.19378776  0.16250470  1
  Li  Li26  1  0.66170864  0.65284644  0.23210143  1
  Li  Li27  1  0.64993746  0.15653053  0.22201302  1
  Li  Li28  1  0.67714115  0.70366163  0.15440368  1
  Li  Li29  1  0.43909310  0.00000757  0.20801313  1
  Li  Li30  1  0.48062803  0.54704224  0.13902550  1
  Li  Li31  1  0.17895922  0.22658770  0.24171505  1
  Li  Li32  1  0.16280373  0.77148451  0.17510543  1
  Li  Li33  1  0.94870424  0.92642668  0.18846342  1
  Li  Li34  1  0.99038056  0.47221243  0.11680799  1
  Li  Li35  1  0.49049766  0.34074597  0.18787860  1
  Li  Li36  1  0.63902200  0.81382914  0.24383762  1
  Li  Li37  1  0.11268551  0.11508294  0.15269897  1
  Li  Li38  1  0.00555721  0.58515209  0.20953484  1
  Li  Li39  1  0.99909228  0.07489917  0.22333105  1
  Li  Li40  1  0.11025906  0.62553095  0.14214926  1
  Li  Li41  1  0.51579391  0.85281931  0.17259907  1
  Li  Li42  1  0.62837019  0.30313442  0.25611904  1
  Li  Li43  1  0.99300495  0.87905135  0.26799308  1
  Li  Li44  1  0.94483016  0.33215983  0.33249162  1
  Li  Li45  1  0.15697961  0.18582343  0.30130162  1
  Li  Li46  1  0.19780136  0.64303378  0.37347936  1
  Li  Li47  1  0.48877528  0.95942818  0.26795545  1
  Li  Li48  1  0.46845336  0.41488616  0.33191726  1
  Li  Li49  1  0.68644867  0.10366811  0.30026535  1
  Li  Li50  1  0.68287823  0.56243561  0.36546830  1
  Li  Li51  1  0.65313018  0.07126525  0.36094626  1
  Li  Li52  1  0.67763800  0.61331219  0.29018166  1
  Li  Li53  1  0.44350695  0.91277165  0.34793260  1
  Li  Li54  1  0.46886606  0.45304759  0.27599701  1
  Li  Li55  1  0.19431109  0.14114321  0.38172288  1
  Li  Li56  1  0.15548160  0.68035767  0.31319555  1
  Li  Li57  1  0.94446549  0.83783379  0.32812161  1
  Li  Li58  1  0.98111448  0.38543186  0.25514819  1
  Li  Li59  1  0.50829394  0.25246052  0.32430961  1
  Li  Li60  1  0.65256992  0.72612412  0.38229409  1
  Li  Li61  1  0.13581143  0.02431121  0.29225254  1
  Li  Li62  1  0.11463161  0.48164317  0.35465116  1
  Li  Li63  1  0.00118582  0.98893842  0.36276859  1
  Li  Li64  1  0.10002977  0.53412115  0.27881216  1
  Li  Li65  1  0.50046741  0.76276524  0.31246022  1
  Li  Li66  1  0.63872261  0.21866354  0.39375353  1
  Li  Li67  1  0.99428353  0.79428371  0.40862690  1
  Li  Li68  1  0.20848789  0.20635192  0.49292572  1
  Li  Li69  1  0.22503314  0.10552060  0.44514680  1
  Li  Li70  1  0.50428251  0.87137146  0.40682157  1
  Li  Li71  1  0.38232092  0.33694461  0.47682397  1
  Li  Li72  1  0.70214292  0.02475610  0.43894886  1
  Li  Li73  1  0.60534590  0.52443313  0.48846364  1
  Li  Li74  1  0.54652554  0.99550644  0.49762310  1
  Li  Li75  1  0.65130941  0.52727770  0.42213336  1
  Li  Li76  1  0.43524170  0.36903869  0.41163420  1
  Li  Li77  1  0.12537432  0.56581211  0.44621505  1
  Li  Li78  1  0.21368175  0.86071475  0.48691386  1
  Li  Li79  1  0.98450868  0.29691486  0.39286167  1
  Li  Li80  1  0.68556851  0.19289486  0.45531305  1
  Li  Li81  1  0.15897510  0.93584840  0.43020564  1
  Li  Li82  1  0.97534407  0.44282533  0.42337481  1
  Li  Li83  1  0.51413272  0.67618466  0.44053977  1
  Li  Li84  1  0.08581939  0.55085819  0.57339916  1
  Li  Li85  1  0.99578795  0.63998472  0.51897992  1
  Li  Li86  1  0.71191523  0.25504599  0.59606252  1
  Li  Li87  1  0.84781540  0.91525567  0.50390072  1
  Li  Li88  1  0.54703015  0.48476136  0.56845406  1
  Li  Li89  1  0.45485806  0.77062151  0.55401138  1
  Li  Li90  1  0.17967166  0.33637511  0.58758978  1
  Li  Li91  1  0.26414823  0.84635289  0.58154337  1
  Li  Li92  1  0.48622224  0.98799822  0.57411598  1
  Li  Li93  1  0.28047752  0.46948533  0.52017658  1
  Li  Li94  1  0.80046750  0.76010955  0.60421419  1
  Li  Li95  1  0.80138613  0.23707520  0.53859896  1
  Li  Li96  1  0.95844777  0.04734636  0.55154571  1
  Li  Li97  1  0.48909673  0.63837313  0.55295501  1
  Li  Li98  1  0.28743956  0.17231934  0.60273088  1
  Li  Li99  1  0.75394091  0.37790803  0.53956070  1
  Li  Li100  1  0.82878012  0.91517207  0.57432192  1
  Li  Li101  1  0.58295109  0.12480594  0.52659413  1
  Li  Li102  1  0.33351940  0.68725886  0.61896001  1
  Li  Li103  1  0.95959511  0.10559970  0.62824888  1
  Li  Li104  1  0.02176820  0.65273427  0.69513003  1
  Li  Li105  1  0.80509312  0.79923366  0.66384495  1
  Li  Li106  1  0.75971965  0.34166751  0.73529725  1
  Li  Li107  1  0.47761579  0.03118950  0.62987520  1
  Li  Li108  1  0.51896866  0.57052588  0.69934725  1
  Li  Li109  1  0.27832971  0.88127173  0.66250915  1
  Li  Li110  1  0.29043511  0.42199275  0.73206829  1
  Li  Li111  1  0.29611404  0.91841788  0.72223528  1
  Li  Li112  1  0.27354059  0.37162332  0.65443933  1
  Li  Li113  1  0.50603511  0.07536374  0.70800097  1
  Li  Li114  1  0.46642318  0.52812176  0.63909099  1
  Li  Li115  1  0.76811169  0.84840855  0.74188314  1
  Li  Li116  1  0.79019079  0.30375283  0.67532937  1
  Li  Li117  1  0.99995968  0.14863941  0.68798212  1
  Li  Li118  1  0.95617155  0.60283655  0.61673343  1
  Li  Li119  1  0.45824051  0.73434926  0.68821726  1
  Li  Li120  1  0.31530131  0.26144394  0.74383668  1
  Li  Li121  1  0.83263619  0.96097641  0.65305818  1
  Li  Li122  1  0.94752092  0.49001995  0.70945601  1
  Li  Li123  1  0.94774831  0.00054234  0.72337855  1
  Li  Li124  1  0.83923343  0.44954218  0.64204983  1
  Li  Li125  1  0.43400105  0.22228770  0.67241058  1
  Li  Li126  1  0.31957244  0.77190084  0.75676274  1
  Li  Li127  1  0.95709599  0.19658462  0.76787211  1
  Li  Li128  1  0.00889024  0.74212050  0.83244954  1
  Li  Li129  1  0.79512541  0.88911701  0.80138519  1
  Li  Li130  1  0.74953366  0.43180915  0.87468639  1
  Li  Li131  1  0.45935812  0.11564921  0.76795311  1
  Li  Li132  1  0.48380928  0.65971885  0.83209604  1
  Li  Li133  1  0.26233191  0.97120691  0.80032909  1
  Li  Li134  1  0.26559230  0.51247198  0.86561584  1
  Li  Li135  1  0.29511097  0.00453611  0.86110518  1
  Li  Li136  1  0.27917322  0.46136051  0.78994899  1
  Li  Li137  1  0.51083100  0.16248266  0.84754566  1
  Li  Li138  1  0.47974273  0.62181216  0.77655570  1
  Li  Li139  1  0.76037413  0.93404767  0.88186625  1
  Li  Li140  1  0.80261617  0.39448043  0.81391810  1
  Li  Li141  1  0.00999083  0.23711945  0.82838330  1
  Li  Li142  1  0.96900132  0.68892904  0.75517593  1
  Li  Li143  1  0.44776125  0.82256109  0.82466147  1
  Li  Li144  1  0.29972545  0.34930257  0.88242461  1
  Li  Li145  1  0.81542754  0.05026690  0.79186531  1
  Li  Li146  1  0.83348044  0.59367842  0.85481472  1
  Li  Li147  1  0.94479485  0.08698727  0.86262640  1
  Li  Li148  1  0.84771570  0.54051005  0.77873580  1
  Li  Li149  1  0.45389546  0.31217862  0.81219142  1
  Li  Li150  1  0.31716436  0.85634353  0.89372767  1
  Li  Li151  1  0.95482699  0.28076423  0.90904395  1
  Li  Li152  1  0.74076974  0.86879455  0.99312026  1
  Li  Li153  1  0.72234756  0.96933495  0.94525229  1
  Li  Li154  1  0.44764704  0.20376115  0.90684762  1
  Li  Li155  1  0.57184753  0.73808837  0.97719921  1
  Li  Li156  1  0.24720018  0.05059444  0.93894344  1
  Li  Li157  1  0.34675853  0.54996540  0.98836360  1
  Li  Li158  1  0.40169110  0.08027304  0.99717312  1
  Li  Li159  1  0.29762839  0.54747268  0.92232144  1
  Li  Li160  1  0.51577152  0.70614280  0.91174187  1
  Li  Li161  1  0.82572847  0.50897417  0.94662855  1
  Li  Li162  1  0.73446366  0.21342230  0.98739663  1
  Li  Li163  1  0.96833855  0.77804528  0.89280092  1
  Li  Li164  1  0.26391317  0.88181681  0.95544891  1
  Li  Li165  1  0.78973182  0.13912747  0.93017718  1
  Li  Li166  1  0.97266080  0.63189272  0.92337601  1
  Li  Li167  1  0.43610658  0.39743709  0.94100625  1
  P  P168  1  0.24348779  0.95544065  0.08424590  1
  P  P169  1  0.16792144  0.52301861  0.03487357  1
  P  P170  1  0.87605676  0.37251351  0.06898210  1
  P  P171  1  0.63972740  0.15232858  0.03484031  1
  P  P172  1  0.71770338  0.61604240  0.10565999  1
  P  P173  1  0.59761124  0.75759867  0.03760428  1
  P  P174  1  0.23511446  0.86842522  0.22184804  1
  P  P175  1  0.21779561  0.41233101  0.15216914  1
  P  P176  1  0.89838363  0.28636795  0.20820084  1
  P  P177  1  0.93037016  0.83267042  0.13954506  1
  P  P178  1  0.71904305  0.05894041  0.17470152  1
  P  P179  1  0.71738402  0.51461650  0.24222800  1
  P  P180  1  0.40034789  0.18478402  0.11824877  1
  P  P181  1  0.40799937  0.64169502  0.18784836  1
  P  P182  1  0.23348873  0.78010953  0.36153255  1
  P  P183  1  0.22500732  0.32163373  0.28886736  1
  P  P184  1  0.91350862  0.19751867  0.34650711  1
  P  P185  1  0.91071607  0.74386058  0.27941284  1
  P  P186  1  0.72904226  0.96990236  0.31429304  1
  P  P187  1  0.71150900  0.42454506  0.37614541  1
  P  P188  1  0.40475171  0.09446846  0.25615084  1
  P  P189  1  0.41281389  0.55292359  0.32277049  1
  P  P190  1  0.24027255  0.23801684  0.42789472  1
  P  P191  1  0.94338495  0.11312099  0.48838093  1
  P  P192  1  0.90960929  0.65335072  0.41721578  1
  P  P193  1  0.71412686  0.88438274  0.45539880  1
  P  P194  1  0.41394666  0.00916508  0.39614937  1
  P  P195  1  0.37563511  0.46745340  0.45162682  1
  P  P196  1  0.70365552  0.11946361  0.58408831  1
  P  P197  1  0.78164996  0.55191390  0.53479308  1
  P  P198  1  0.07413603  0.70218566  0.56904832  1
  P  P199  1  0.30957501  0.92245337  0.53492194  1
  P  P200  1  0.23126946  0.45919401  0.60574000  1
  P  P201  1  0.35139541  0.31724497  0.53740147  1
  P  P202  1  0.71561807  0.20651898  0.72171522  1
  P  P203  1  0.73182991  0.66303568  0.65230081  1
  P  P204  1  0.04950949  0.78855577  0.70841354  1
  P  P205  1  0.01905312  0.24272166  0.63932712  1
  P  P206  1  0.22803831  0.01636650  0.67473540  1
  P  P207  1  0.23480213  0.56045182  0.74237457  1
  P  P208  1  0.54873747  0.89075965  0.61848866  1
  P  P209  1  0.54434094  0.43346965  0.68783843  1
  P  P210  1  0.71854958  0.29523215  0.86176206  1
  P  P211  1  0.72526349  0.75291037  0.78909406  1
  P  P212  1  0.03920985  0.87727002  0.84656448  1
  P  P213  1  0.04299003  0.33130178  0.77931991  1
  P  P214  1  0.22057617  0.10518499  0.81426368  1
  P  P215  1  0.24039070  0.65022299  0.87637061  1
  P  P216  1  0.54205719  0.98048757  0.75613439  1
  P  P217  1  0.53988451  0.52122740  0.82325992  1
  P  P218  1  0.71126641  0.83693071  0.92803042  1
  P  P219  1  0.00629396  0.96203097  0.98841591  1
  P  P220  1  0.04149377  0.42110679  0.91788761  1
  P  P221  1  0.23495962  0.19066343  0.95532533  1
  P  P222  1  0.53561336  0.06589478  0.89613171  1
  P  P223  1  0.57522883  0.60736573  0.95173853  1
  S  S224  1  0.37597559  0.00648476  0.06179909  1
  S  S225  1  0.26733481  0.59325267  0.02642358  1
  S  S226  1  0.75512200  0.31800806  0.09071320  1
  S  S227  1  0.80038238  0.11637253  0.06191798  1
  S  S228  1  0.28400864  0.23143141  0.09195062  1
  S  S229  1  0.50172618  0.81987055  0.02073682  1
  S  S230  1  0.41836061  0.74582601  0.06804936  1
  S  S231  1  0.73671747  0.12833931  0.00243512  1
  S  S232  1  0.78603917  0.61005664  0.07022225  1
  S  S233  1  0.73839335  0.36777142  0.03587907  1
  S  S234  1  0.83899412  0.82221094  0.10478565  1
  S  S235  1  0.25324803  0.50819240  0.06925098  1
  S  S236  1  0.76143581  0.43602342  0.08455511  1
  S  S237  1  0.30941860  0.47186774  0.01289972  1
  S  S238  1  0.34342815  0.88926666  0.07030057  1
  S  S239  1  0.28359976  0.11561783  0.10887859  1
  S  S240  1  0.53365616  0.69845583  0.01555893  1
  S  S241  1  0.70114466  0.22617898  0.03677142  1
  S  S242  1  0.91883806  0.96727799  0.08415499  1
  S  S243  1  0.84402860  0.51591970  0.02980645  1
  S  S244  1  0.20274819  0.36703949  0.06853661  1
  S  S245  1  0.32085233  0.13214036  0.03814347  1
  S  S246  1  0.39351216  0.61165483  0.10943807  1
  S  S247  1  0.91764494  0.76067808  0.04711229  1
  S  S248  1  0.33552246  0.91700321  0.19619718  1
  S  S249  1  0.36062714  0.45981254  0.12880453  1
  S  S250  1  0.79488099  0.23691532  0.23322474  1
  S  S251  1  0.79148267  0.78755695  0.16431618  1
  S  S252  1  0.82486102  0.00986029  0.19976344  1
  S  S253  1  0.85306201  0.55866769  0.12474338  1
  S  S254  1  0.27278765  0.14079526  0.23144495  1
  S  S255  1  0.29879381  0.69180649  0.16356135  1
  S  S256  1  0.27977244  0.19719331  0.15156111  1
  S  S257  1  0.28308521  0.64985788  0.22127837  1
  S  S258  1  0.84803592  0.04952280  0.14142318  1
  S  S259  1  0.82057953  0.50486926  0.20779596  1
  S  S260  1  0.76487617  0.27730937  0.17517001  1
  S  S261  1  0.80680175  0.73272897  0.24506991  1
  S  S262  1  0.36328044  0.96077757  0.11804289  1
  S  S263  1  0.31722257  0.42129750  0.18666754  1
  S  S264  1  0.81530077  0.90155660  0.14883287  1
  S  S265  1  0.78892065  0.35420874  0.21961019  1
  S  S266  1  0.32125840  0.34292686  0.14161739  1
  S  S267  1  0.34660830  0.80049914  0.21081823  1
  S  S268  1  0.29406631  0.02530228  0.24688924  1
  S  S269  1  0.29232451  0.57426899  0.17585990  1
  S  S270  1  0.83056388  0.12691267  0.18595142  1
  S  S271  1  0.85492400  0.67908533  0.11841769  1
  S  S272  1  0.91003618  0.87540993  0.22456321  1
  S  S273  1  0.89303188  0.42085038  0.15119768  1
  S  S274  1  0.22377082  0.27903175  0.20603708  1
  S  S275  1  0.25543672  0.82272340  0.14015291  1
  S  S276  1  0.39328046  0.05295224  0.17265651  1
  S  S277  1  0.39213361  0.50781126  0.24258303  1
  S  S278  1  0.72283947  0.18980629  0.11939218  1
  S  S279  1  0.73423033  0.64769313  0.18898455  1
  S  S280  1  0.33387384  0.82908036  0.33612612  1
  S  S281  1  0.35673440  0.36889898  0.26452766  1
  S  S282  1  0.80990942  0.14977982  0.37235401  1
  S  S283  1  0.77877430  0.69695297  0.30377839  1
  S  S284  1  0.83137432  0.92162729  0.33996919  1
  S  S285  1  0.84753630  0.46681495  0.26639766  1
  S  S286  1  0.27855422  0.05453588  0.37134034  1
  S  S287  1  0.29339229  0.60221567  0.29847266  1
  S  S288  1  0.30167074  0.10557752  0.29045615  1
  S  S289  1  0.29872853  0.56262310  0.35685270  1
  S  S290  1  0.86392826  0.96010153  0.28136442  1
  S  S291  1  0.84562937  0.41536456  0.34326121  1
  S  S292  1  0.78087200  0.18694502  0.31355315  1
  S  S293  1  0.81155410  0.64305783  0.38267691  1
  S  S294  1  0.36822321  0.87841642  0.25484270  1
  S  S295  1  0.32925579  0.33293192  0.32301003  1
  S  S296  1  0.79992973  0.81293374  0.28893011  1
  S  S297  1  0.80065862  0.26569413  0.35720827  1
  S  S298  1  0.33744564  0.25261796  0.27944884  1
  S  S299  1  0.33941054  0.71215628  0.34978992  1
  S  S300  1  0.30542140  0.93936051  0.38711709  1
  S  S301  1  0.29256020  0.48501280  0.31217655  1
  S  S302  1  0.83825258  0.03812281  0.32539755  1
  S  S303  1  0.83477448  0.58309072  0.25216159  1
  S  S304  1  0.90910637  0.78857589  0.36485843  1
  S  S305  1  0.89961312  0.32957623  0.28872202  1
  S  S306  1  0.23865263  0.19056199  0.34444019  1
  S  S307  1  0.23615437  0.73606486  0.27914207  1
  S  S308  1  0.40416192  0.96274583  0.31145062  1
  S  S309  1  0.38763654  0.41689731  0.37413840  1
  S  S310  1  0.73016574  0.10277649  0.25628359  1
  S  S311  1  0.73672805  0.55745397  0.32304728  1
  S  S312  1  0.35904521  0.28318888  0.40193049  1
  S  S313  1  0.82283929  0.05918358  0.50966080  1
  S  S314  1  0.76399447  0.60561000  0.44079156  1
  S  S315  1  0.82523209  0.83981992  0.48176377  1
  S  S316  1  0.81681281  0.37608442  0.40164041  1
  S  S317  1  0.28130952  0.50426321  0.42172873  1
  S  S318  1  0.30925015  0.02026208  0.43045770  1
  S  S319  1  0.23576597  0.50510135  0.47955939  1
  S  S320  1  0.86693811  0.87603754  0.42306070  1
  S  S321  1  0.84033729  0.10597059  0.45384341  1
  S  S322  1  0.37056876  0.78935168  0.39444748  1
  S  S323  1  0.37107327  0.25282435  0.46090380  1
  S  S324  1  0.81728831  0.72218407  0.42775209  1
  S  S325  1  0.82394444  0.18082614  0.49946085  1
  S  S326  1  0.36219121  0.16938503  0.41908388  1
  S  S327  1  0.26065041  0.39730191  0.44822310  1
  S  S328  1  0.77500470  0.95601411  0.46610943  1
  S  S329  1  0.82573686  0.49260960  0.38717866  1
  S  S330  1  0.91513564  0.24560220  0.42840047  1
  S  S331  1  0.27179290  0.11542202  0.48908097  1
  S  S332  1  0.23160310  0.63887291  0.41836275  1
  S  S333  1  0.39627069  0.86919676  0.44892353  1
  S  S334  1  0.73870627  0.01841802  0.39581126  1
  S  S335  1  0.70179737  0.47112046  0.45614399  1
  S  S336  1  0.57085732  0.06832842  0.56174707  1
  S  S337  1  0.68291213  0.48156037  0.52644476  1
  S  S338  1  0.19509405  0.75668743  0.59077242  1
  S  S339  1  0.14798562  0.95926317  0.56168636  1
  S  S340  1  0.66734431  0.84368139  0.59250687  1
  S  S341  1  0.44729135  0.25499935  0.52054161  1
  S  S342  1  0.53125428  0.32892691  0.56780568  1
  S  S343  1  0.21464676  0.94572241  0.50231074  1
  S  S344  1  0.16261084  0.46502369  0.57029323  1
  S  S345  1  0.21230418  0.70683607  0.53593777  1
  S  S346  1  0.10939265  0.25329246  0.60455662  1
  S  S347  1  0.69531134  0.56686244  0.56912052  1
  S  S348  1  0.18839416  0.63864869  0.58461968  1
  S  S349  1  0.64048931  0.60289269  0.51271448  1
  S  S350  1  0.60428826  0.18552780  0.56996480  1
  S  S351  1  0.66544816  0.95978770  0.60899801  1
  S  S352  1  0.41513376  0.37645306  0.51537346  1
  S  S353  1  0.24725683  0.84871841  0.53729891  1
  S  S354  1  0.02820858  0.10760147  0.58411415  1
  S  S355  1  0.10571580  0.55898121  0.52977755  1
  S  S356  1  0.74756004  0.70765178  0.56862715  1
  S  S357  1  0.62868303  0.94251150  0.53831255  1
  S  S358  1  0.55544486  0.46378107  0.60948116  1
  S  S359  1  0.03136399  0.31424694  0.54692727  1
  S  S360  1  0.61371492  0.15810726  0.69604773  1
  S  S361  1  0.58767270  0.61554212  0.62901444  1
  S  S362  1  0.15324553  0.83795247  0.73346868  1
  S  S363  1  0.15930544  0.28755294  0.66414046  1
  S  S364  1  0.12149443  0.06548552  0.69974244  1
  S  S365  1  0.09525161  0.51647584  0.62480989  1
  S  S366  1  0.67367371  0.93418052  0.73141868  1
  S  S367  1  0.65274364  0.38323191  0.66357839  1
  S  S368  1  0.66651711  0.87889846  0.65197773  1
  S  S369  1  0.66951450  0.42538823  0.72125769  1
  S  S370  1  0.09925173  0.02573127  0.64144809  1
  S  S371  1  0.13241888  0.57047965  0.70792557  1
  S  S372  1  0.18181819  0.79770970  0.67533975  1
  S  S373  1  0.14487555  0.34223499  0.74488421  1
  S  S374  1  0.58354734  0.11465179  0.61789113  1
  S  S375  1  0.63345501  0.65408628  0.68682011  1
  S  S376  1  0.13374379  0.17371214  0.64846271  1
  S  S377  1  0.15994142  0.72073248  0.71972952  1
  S  S378  1  0.62895629  0.73243930  0.64176945  1
  S  S379  1  0.60448560  0.27456231  0.71081330  1
  S  S380  1  0.65264542  0.04967671  0.74685335  1
  S  S381  1  0.65931513  0.50090423  0.67580505  1
  S  S382  1  0.11698256  0.94846893  0.68607634  1
  S  S383  1  0.09541390  0.39602266  0.61848663  1
  S  S384  1  0.04057999  0.19945580  0.72433151  1
  S  S385  1  0.05649284  0.65410258  0.65115724  1
  S  S386  1  0.72386816  0.79587298  0.70639403  1
  S  S387  1  0.69430854  0.25277571  0.64012050  1
  S  S388  1  0.55376788  0.02269730  0.67264541  1
  S  S389  1  0.55997137  0.56753627  0.74281998  1
  S  S390  1  0.22606601  0.88558514  0.61935570  1
  S  S391  1  0.21805187  0.42753664  0.68898114  1
  S  S392  1  0.61885130  0.24640042  0.83623693  1
  S  S393  1  0.59271528  0.70578899  0.76477852  1
  S  S394  1  0.14398728  0.92504009  0.87234725  1
  S  S395  1  0.17725292  0.37802151  0.80360483  1
  S  S396  1  0.12102213  0.15352986  0.84005017  1
  S  S397  1  0.10303379  0.60790038  0.76659709  1
  S  S398  1  0.67062566  0.02049110  0.87131993  1
  S  S399  1  0.66242431  0.47217255  0.79903299  1
  S  S400  1  0.64613597  0.96921524  0.79038549  1
  S  S401  1  0.65236957  0.51223133  0.85743304  1
  S  S402  1  0.08479615  0.11531570  0.78139563  1
  S  S403  1  0.10691750  0.65914940  0.84343334  1
  S  S404  1  0.17090462  0.88782329  0.81357264  1
  S  S405  1  0.13742714  0.43165062  0.88328512  1
  S  S406  1  0.58238775  0.19633200  0.75470617  1
  S  S407  1  0.62303595  0.74161653  0.82331188  1
  S  S408  1  0.15257580  0.26216400  0.78886007  1
  S  S409  1  0.15195867  0.80905522  0.85716134  1
  S  S410  1  0.61314574  0.82204427  0.77977558  1
  S  S411  1  0.61337192  0.36325772  0.85010111  1
  S  S412  1  0.64517352  0.13562173  0.88703502  1
  S  S413  1  0.65793720  0.58935947  0.81252449  1
  S  S414  1  0.11056543  0.03703768  0.82535571  1
  S  S415  1  0.11821440  0.49185357  0.75219188  1
  S  S416  1  0.04264928  0.28653310  0.86522907  1
  S  S417  1  0.05064065  0.74477460  0.78884419  1
  S  S418  1  0.71397755  0.88444231  0.84461603  1
  S  S419  1  0.71782498  0.33961934  0.77930440  1
  S  S420  1  0.54566691  0.11202934  0.81130577  1
  S  S421  1  0.56427863  0.65803011  0.87436580  1
  S  S422  1  0.21647629  0.97238833  0.75637545  1
  S  S423  1  0.21628724  0.51603129  0.82325282  1
  S  S424  1  0.59313982  0.79174577  0.90204398  1
  S  S425  1  0.12597092  0.01626679  0.00956806  1
  S  S426  1  0.18859089  0.46884073  0.94130802  1
  S  S427  1  0.12265093  0.23516152  0.98165655  1
  S  S428  1  0.13429767  0.69869089  0.90180851  1
  S  S429  1  0.66863111  0.57022999  0.92189628  1
  S  S430  1  0.64031613  0.05473992  0.93044223  1
  S  S431  1  0.71610097  0.56997368  0.97969165  1
  S  S432  1  0.08336539  0.19890840  0.92294277  1
  S  S433  1  0.10854491  0.96906700  0.95385949  1
  S  S434  1  0.57966054  0.28586884  0.89459561  1
  S  S435  1  0.57993736  0.82219228  0.96101569  1
  S  S436  1  0.13246152  0.35220093  0.92839826  1
  S  S437  1  0.12658681  0.89447877  0.99963723  1
  S  S438  1  0.58965114  0.90555908  0.91909829  1
  S  S439  1  0.69042339  0.67751326  0.94831336  1
  S  S440  1  0.17270918  0.11905809  0.96602644  1
  S  S441  1  0.12510014  0.58225966  0.88738939  1
  S  S442  1  0.03631924  0.82909462  0.92854614  1
  S  S443  1  0.67786531  0.95945871  0.98916145  1
  S  S444  1  0.71937209  0.43573122  0.91930639  1
  S  S445  1  0.55313791  0.20578317  0.94910693  1
  S  S446  1  0.21071501  0.05711574  0.89582301  1
  S  S447  1  0.24925000  0.60382257  0.95629269  1
