# generated using pymatgen
data_Li3PS4
_symmetry_space_group_name_H-M   'P 1'
_cell_length_a   8.10679100
_cell_length_b   13.05789500
_cell_length_c   44.07522627
_cell_angle_alpha   90.00000000
_cell_angle_beta   90.00000000
_cell_angle_gamma   90.00000000
_symmetry_Int_Tables_number   1
_chemical_formula_structural   Li3PS4
_chemical_formula_sum   'Li84 P28 S112'
_cell_volume   4665.69880307
_cell_formula_units_Z   28
loop_
 _symmetry_equiv_pos_site_id
 _symmetry_equiv_pos_as_xyz
  1  'x, y, z'
loop_
 _atom_site_type_symbol
 _atom_site_label
 _atom_site_symmetry_multiplicity
 _atom_site_fract_x
 _atom_site_fract_y
 _atom_site_fract_z
 _atom_site_occupancy
  Li  Li0  1  0.95972719  0.82631166  0.12231792  1
  Li  Li1  1  0.02581736  0.17639180  0.09284405  1
  Li  Li2  1  0.02525179  0.66335569  0.05587695  1
  Li  Li3  1  0.99045567  0.33140645  0.02103582  1
  Li  Li4  1  0.49163603  0.32809240  0.01854257  1
  Li  Li5  1  0.45458911  0.67603342  0.05214300  1
  Li  Li6  1  0.46954464  0.16913850  0.09417106  1
  Li  Li7  1  0.53338000  0.83641792  0.12510901  1
  Li  Li8  1  0.03715338  0.00183546  0.03578229  1
  Li  Li9  1  0.04821528  0.49151898  0.11767614  1
  Li  Li10  1  0.55206698  0.50633475  0.09885969  1
  Li  Li11  1  0.44946869  0.00176949  0.03472525  1
  Li  Li12  1  0.97026723  0.84107192  0.26583531  1
  Li  Li13  1  0.03501604  0.15919393  0.23435314  1
  Li  Li14  1  0.02568780  0.66554297  0.19821337  1
  Li  Li15  1  0.95975420  0.32898504  0.16786922  1
  Li  Li16  1  0.52934583  0.33445770  0.16137764  1
  Li  Li17  1  0.45886127  0.66786434  0.19111258  1
  Li  Li18  1  0.46736410  0.17290701  0.23661446  1
  Li  Li19  1  0.53750975  0.82389400  0.26410092  1
  Li  Li20  1  0.05163415  0.99227919  0.17085517  1
  Li  Li21  1  0.05247363  0.49129545  0.25888314  1
  Li  Li22  1  0.55150098  0.50625885  0.24189855  1
  Li  Li23  1  0.55206483  0.00850220  0.18714363  1
  Li  Li24  1  0.98248371  0.82394383  0.40811171  1
  Li  Li25  1  0.05159045  0.17078991  0.37901163  1
  Li  Li26  1  0.03850467  0.67262862  0.33416874  1
  Li  Li27  1  0.96934128  0.32362112  0.30630305  1
  Li  Li28  1  0.53525812  0.34039607  0.30562526  1
  Li  Li29  1  0.46972218  0.66056785  0.33662676  1
  Li  Li30  1  0.47801941  0.16401480  0.37338574  1
  Li  Li31  1  0.53859019  0.82643410  0.40458848  1
  Li  Li32  1  0.95572253  0.00816019  0.32976114  1
  Li  Li33  1  0.95344111  0.50975285  0.38361949  1
  Li  Li34  1  0.44933016  0.49153633  0.40042210  1
  Li  Li35  1  0.45338835  0.99000902  0.31237052  1
  Li  Li36  1  0.99982321  0.66906559  0.48061749  1
  Li  Li37  1  0.97020936  0.33484407  0.44401118  1
  Li  Li38  1  0.53876566  0.32431837  0.44766968  1
  Li  Li39  1  0.49980654  0.66995584  0.48092551  1
  Li  Li40  1  0.95759367  0.99851119  0.46662283  1
  Li  Li41  1  0.54129284  0.99683123  0.46264305  1
  Li  Li42  1  0.52145190  0.66298077  0.62615982  1
  Li  Li43  1  0.46218868  0.32880173  0.59441838  1
  Li  Li44  1  0.45415973  0.82411159  0.55212739  1
  Li  Li45  1  0.49353116  0.16952664  0.51866413  1
  Li  Li46  1  0.99220945  0.17012532  0.51916973  1
  Li  Li47  1  0.02519132  0.83546734  0.55557604  1
  Li  Li48  1  0.01734048  0.32390353  0.59218597  1
  Li  Li49  1  0.94896072  0.67284633  0.62129316  1
  Li  Li50  1  0.45330413  0.49845718  0.53622214  1
  Li  Li51  1  0.54784142  0.99229592  0.59869203  1
  Li  Li52  1  0.04013573  0.00911255  0.61687125  1
  Li  Li53  1  0.03834451  0.49803206  0.53375675  1
  Li  Li54  1  0.53472411  0.67498680  0.76304477  1
  Li  Li55  1  0.46224221  0.32795255  0.73594257  1
  Li  Li56  1  0.45568892  0.83383132  0.69150338  1
  Li  Li57  1  0.52234937  0.16433054  0.66110859  1
  Li  Li58  1  0.95371607  0.17192470  0.66766630  1
  Li  Li59  1  0.02254043  0.83486176  0.69745934  1
  Li  Li60  1  0.03093147  0.33971607  0.73470626  1
  Li  Li61  1  0.96645019  0.66265341  0.76598266  1
  Li  Li62  1  0.54646180  0.49024087  0.68748848  1
  Li  Li63  1  0.54738318  0.99536533  0.74126169  1
  Li  Li64  1  0.04596165  0.00879302  0.75917398  1
  Li  Li65  1  0.04165666  0.50874263  0.67048245  1
  Li  Li66  1  0.53138396  0.67240429  0.90496122  1
  Li  Li67  1  0.46944713  0.33844899  0.87390904  1
  Li  Li68  1  0.45850344  0.83032211  0.83295865  1
  Li  Li69  1  0.52805990  0.16426036  0.80396250  1
  Li  Li70  1  0.96241859  0.17410957  0.80799968  1
  Li  Li71  1  0.02818853  0.83732544  0.83790660  1
  Li  Li72  1  0.04365816  0.32897429  0.87826174  1
  Li  Li73  1  0.97500729  0.67398819  0.90783238  1
  Li  Li74  1  0.44752401  0.51141452  0.81212094  1
  Li  Li75  1  0.54771137  0.99190983  0.88266623  1
  Li  Li76  1  0.05211164  0.00678169  0.90121172  1
  Li  Li77  1  0.94804092  0.49397955  0.82932008  1
  Li  Li78  1  0.48972860  0.83103443  0.97861651  1
  Li  Li79  1  0.52626883  0.16493551  0.94398939  1
  Li  Li80  1  0.95521687  0.17494681  0.94798482  1
  Li  Li81  1  0.99013456  0.82879389  0.98278609  1
  Li  Li82  1  0.53856330  0.50068923  0.96374966  1
  Li  Li83  1  0.95437351  0.50212897  0.96610607  1
  P  P84  1  0.24489038  0.91172097  0.08754147  1
  P  P85  1  0.75398086  0.08987030  0.13015448  1
  P  P86  1  0.73855910  0.59051326  0.01691442  1
  P  P87  1  0.24804330  0.41960801  0.05902415  1
  P  P88  1  0.25901729  0.91059491  0.22769090  1
  P  P89  1  0.74684409  0.08782210  0.27274932  1
  P  P90  1  0.75062096  0.58809038  0.15708038  1
  P  P91  1  0.25191378  0.40953462  0.20177541  1
  P  P92  1  0.25222261  0.90839349  0.36986175  1
  P  P93  1  0.76103968  0.08733127  0.41252239  1
  P  P94  1  0.75815672  0.58830585  0.29834280  1
  P  P95  1  0.24560386  0.41124430  0.34322858  1
  P  P96  1  0.74782515  0.57954000  0.44131439  1
  P  P97  1  0.25391169  0.40945053  0.48277788  1
  P  P98  1  0.23679391  0.58772078  0.58730749  1
  P  P99  1  0.74624722  0.40950447  0.62994998  1
  P  P100  1  0.73941331  0.90903083  0.51677665  1
  P  P101  1  0.24512202  0.08033421  0.55848788  1
  P  P102  1  0.25226650  0.58994397  0.72724392  1
  P  P103  1  0.74070350  0.41260971  0.77236366  1
  P  P104  1  0.74608652  0.91187971  0.65685475  1
  P  P105  1  0.24525926  0.09069579  0.70162850  1
  P  P106  1  0.24592998  0.59140336  0.86966217  1
  P  P107  1  0.75408900  0.41256191  0.91254588  1
  P  P108  1  0.74835206  0.91211802  0.79832187  1
  P  P109  1  0.24896557  0.08931776  0.84326377  1
  P  P110  1  0.74984227  0.91927446  0.94120031  1
  P  P111  1  0.24072031  0.09079736  0.98309270  1
  S  S112  1  0.46171664  0.85294133  0.07054460  1
  S  S113  1  0.52437058  0.64946653  0.99846214  1
  S  S114  1  0.46055047  0.34679193  0.07326488  1
  S  S115  1  0.03493127  0.35509860  0.07547503  1
  S  S116  1  0.95843090  0.64925165  0.00087977  1
  S  S117  1  0.03395355  0.84896057  0.06899707  1
  S  S118  1  0.24484878  0.06452027  0.07365913  1
  S  S119  1  0.25528402  0.56508497  0.07839728  1
  S  S120  1  0.74125347  0.43698062  0.00336434  1
  S  S121  1  0.24362864  0.88956437  0.13338442  1
  S  S122  1  0.74972991  0.10301218  0.08397284  1
  S  S123  1  0.73517035  0.61359969  0.06280673  1
  S  S124  1  0.24231617  0.42206566  0.01269266  1
  S  S125  1  0.47010359  0.84392424  0.21067234  1
  S  S126  1  0.54165448  0.15116484  0.14793608  1
  S  S127  1  0.54321299  0.65117669  0.13802862  1
  S  S128  1  0.47148126  0.34632743  0.21603198  1
  S  S129  1  0.04566519  0.34508025  0.22096098  1
  S  S130  1  0.96890205  0.65331050  0.14306784  1
  S  S131  1  0.96763097  0.15557291  0.14655396  1
  S  S132  1  0.04320283  0.85043077  0.21120019  1
  S  S133  1  0.75889767  0.94014423  0.14683667  1
  S  S134  1  0.26313212  0.06068357  0.21159361  1
  S  S135  1  0.25614392  0.55958895  0.21780663  1
  S  S136  1  0.75731063  0.43823801  0.14071355  1
  S  S137  1  0.25850928  0.89522676  0.27393848  1
  S  S138  1  0.74741488  0.10378489  0.22652307  1
  S  S139  1  0.74069029  0.60325880  0.20327942  1
  S  S140  1  0.24180239  0.39346787  0.15557679  1
  S  S141  1  0.46032566  0.84456737  0.35111904  1
  S  S142  1  0.53807848  0.15633662  0.29009627  1
  S  S143  1  0.54079665  0.64645812  0.28192816  1
  S  S144  1  0.45881954  0.34914557  0.36012950  1
  S  S145  1  0.03273079  0.34538695  0.35967947  1
  S  S146  1  0.96700420  0.65655271  0.28088255  1
  S  S147  1  0.96479668  0.14598709  0.28902343  1
  S  S148  1  0.03454416  0.84555300  0.35437641  1
  S  S149  1  0.74112677  0.93779872  0.28880182  1
  S  S150  1  0.24967038  0.05839504  0.35335392  1
  S  S151  1  0.24264185  0.56131697  0.35946943  1
  S  S152  1  0.76377842  0.43798060  0.28251969  1
  S  S153  1  0.26068795  0.89425449  0.41600388  1
  S  S154  1  0.76723417  0.11010563  0.36670682  1
  S  S155  1  0.75764914  0.60455385  0.34456376  1
  S  S156  1  0.24858251  0.39643852  0.29698258  1
  S  S157  1  0.54239778  0.14790844  0.42836126  1
  S  S158  1  0.53640928  0.65179913  0.42645241  1
  S  S159  1  0.46841256  0.35083815  0.50117855  1
  S  S160  1  0.03481517  0.35013251  0.49890348  1
  S  S161  1  0.96224436  0.64466337  0.42560858  1
  S  S162  1  0.97017084  0.14876313  0.43199918  1
  S  S163  1  0.75860698  0.93459964  0.42630572  1
  S  S164  1  0.25135843  0.56285289  0.49654415  1
  S  S165  1  0.74138902  0.43419341  0.42181245  1
  S  S166  1  0.74948823  0.57666875  0.48767673  1
  S  S167  1  0.25853279  0.38675179  0.43686823  1
  S  S168  1  0.02734599  0.64955890  0.56806887  1
  S  S169  1  0.95852373  0.84949358  0.50067295  1
  S  S170  1  0.03104522  0.14546782  0.57425651  1
  S  S171  1  0.45732030  0.15242190  0.57317533  1
  S  S172  1  0.52450906  0.85075645  0.49843747  1
  S  S173  1  0.45526555  0.64771824  0.57121517  1
  S  S174  1  0.23901461  0.43503691  0.57340708  1
  S  S175  1  0.25203407  0.93503526  0.57803906  1
  S  S176  1  0.74161378  0.06241411  0.50307996  1
  S  S177  1  0.23186334  0.61036510  0.63312920  1
  S  S178  1  0.74069863  0.39574360  0.58376722  1
  S  S179  1  0.73540593  0.88606630  0.56268674  1
  S  S180  1  0.24285790  0.07741718  0.51211079  1
  S  S181  1  0.03624401  0.65037995  0.71098231  1
  S  S182  1  0.96089668  0.34457733  0.64605808  1
  S  S183  1  0.96320781  0.84619862  0.64251732  1
  S  S184  1  0.03886322  0.15478087  0.72085213  1
  S  S185  1  0.46465645  0.15453995  0.71573862  1
  S  S186  1  0.53764824  0.84887007  0.63817890  1
  S  S187  1  0.53505048  0.34779221  0.64803946  1
  S  S188  1  0.46298956  0.65600258  0.70980275  1
  S  S189  1  0.75045425  0.55929317  0.64659527  1
  S  S190  1  0.25590239  0.43961646  0.71140599  1
  S  S191  1  0.25036290  0.94089149  0.71778891  1
  S  S192  1  0.75177769  0.06175268  0.64045644  1
  S  S193  1  0.25364022  0.60674690  0.77347454  1
  S  S194  1  0.74358393  0.39643079  0.72615562  1
  S  S195  1  0.73771251  0.89751102  0.70311135  1
  S  S196  1  0.23506783  0.10611258  0.65542970  1
  S  S197  1  0.03103758  0.65667143  0.85385819  1
  S  S198  1  0.95581815  0.35226968  0.78924186  1
  S  S199  1  0.96286550  0.84501713  0.78313309  1
  S  S200  1  0.03813510  0.15057542  0.86145538  1
  S  S201  1  0.46432609  0.15530117  0.85844350  1
  S  S202  1  0.53631344  0.85296174  0.77977575  1
  S  S203  1  0.52907706  0.34650291  0.78927504  1
  S  S204  1  0.45724329  0.65311366  0.85144125  1
  S  S205  1  0.73697961  0.56289686  0.78831316  1
  S  S206  1  0.24139150  0.44181843  0.85291862  1
  S  S207  1  0.25593745  0.93921089  0.85945820  1
  S  S208  1  0.75663096  0.06256455  0.78259235  1
  S  S209  1  0.25354885  0.60435102  0.91582147  1
  S  S210  1  0.75917872  0.39061466  0.86667170  1
  S  S211  1  0.74084046  0.89502732  0.84449906  1
  S  S212  1  0.24220738  0.10483395  0.79703708  1
  S  S213  1  0.96646888  0.35315026  0.93138777  1
  S  S214  1  0.96617252  0.84932473  0.92786323  1
  S  S215  1  0.02625089  0.15000992  0.00147401  1
  S  S216  1  0.46015685  0.14909251  0.99929672  1
  S  S217  1  0.54062707  0.85166369  0.92408550  1
  S  S218  1  0.53856439  0.34989985  0.92891344  1
  S  S219  1  0.75033914  0.56507819  0.92653479  1
  S  S220  1  0.24231802  0.93719935  0.99664278  1
  S  S221  1  0.75514539  0.06478643  0.92174354  1
  S  S222  1  0.74006204  0.92234476  0.98750530  1
  S  S223  1  0.23737908  0.11417788  0.93721330  1
