# generated using pymatgen
data_Li3PS4
_symmetry_space_group_name_H-M   'P 1'
_cell_length_a   8.10679100
_cell_length_b   13.05789500
_cell_length_c   44.09166454
_cell_angle_alpha   90.00000000
_cell_angle_beta   90.00000000
_cell_angle_gamma   90.00000000
_symmetry_Int_Tables_number   1
_chemical_formula_structural   Li3PS4
_chemical_formula_sum   'Li84 P28 S112'
_cell_volume   4667.43892018
_cell_formula_units_Z   28
loop_
 _symmetry_equiv_pos_site_id
 _symmetry_equiv_pos_as_xyz
  1  'x, y, z'
loop_
 _atom_site_type_symbol
 _atom_site_label
 _atom_site_symmetry_multiplicity
 _atom_site_fract_x
 _atom_site_fract_y
 _atom_site_fract_z
 _atom_site_occupancy
  Li  Li0  1  0.95899217  0.82687241  0.12225794  1
  Li  Li1  1  0.02534416  0.17643741  0.09262430  1
  Li  Li2  1  0.03170431  0.66530071  0.05516640  1
  Li  Li3  1  0.99916554  0.32885393  0.02003012  1
  Li  Li4  1  0.49921960  0.32736898  0.01906527  1
  Li  Li5  1  0.46199951  0.67521419  0.05238829  1
  Li  Li6  1  0.46879320  0.17029276  0.09473536  1
  Li  Li7  1  0.53147265  0.83823581  0.12595514  1
  Li  Li8  1  0.04161860  0.00020520  0.03427553  1
  Li  Li9  1  0.04823030  0.49177324  0.11734323  1
  Li  Li10  1  0.55345661  0.50709419  0.09901777  1
  Li  Li11  1  0.45476106  0.00020987  0.03604951  1
  Li  Li12  1  0.96899579  0.84212637  0.26533711  1
  Li  Li13  1  0.03650371  0.16169890  0.23499306  1
  Li  Li14  1  0.02774589  0.66713323  0.19766265  1
  Li  Li15  1  0.95995377  0.32917433  0.16788330  1
  Li  Li16  1  0.53014728  0.33542677  0.16128538  1
  Li  Li17  1  0.46071049  0.66893743  0.19093767  1
  Li  Li18  1  0.46803534  0.17487953  0.23610207  1
  Li  Li19  1  0.53732171  0.82573180  0.26410844  1
  Li  Li20  1  0.05146945  0.99369388  0.17075865  1
  Li  Li21  1  0.05240018  0.49350714  0.25864255  1
  Li  Li22  1  0.54840009  0.50875872  0.24195450  1
  Li  Li23  1  0.55333758  0.00975484  0.18762573  1
  Li  Li24  1  0.97873439  0.82512121  0.40826618  1
  Li  Li25  1  0.04595040  0.17087281  0.37855845  1
  Li  Li26  1  0.04033073  0.67399845  0.33425663  1
  Li  Li27  1  0.96921270  0.32639667  0.30634236  1
  Li  Li28  1  0.53615974  0.34050361  0.30570975  1
  Li  Li29  1  0.47051859  0.66250058  0.33686258  1
  Li  Li30  1  0.47234958  0.16592823  0.37407895  1
  Li  Li31  1  0.53615377  0.82778900  0.40451026  1
  Li  Li32  1  0.95216877  0.00798857  0.32945775  1
  Li  Li33  1  0.95283962  0.51037312  0.38331784  1
  Li  Li34  1  0.44999474  0.49360601  0.40093785  1
  Li  Li35  1  0.44980790  0.99165523  0.31249971  1
  Li  Li36  1  0.00986919  0.66879113  0.47948864  1
  Li  Li37  1  0.97507069  0.33666086  0.44389211  1
  Li  Li38  1  0.54554104  0.32398757  0.44787151  1
  Li  Li39  1  0.50841238  0.67239967  0.48143295  1
  Li  Li40  1  0.96044551  0.00008107  0.46542816  1
  Li  Li41  1  0.54632750  0.99777944  0.46426816  1
  Li  Li42  1  0.52655841  0.66270744  0.62607181  1
  Li  Li43  1  0.46708881  0.32709508  0.59495825  1
  Li  Li44  1  0.46673502  0.83419135  0.55563521  1
  Li  Li45  1  0.50289905  0.16860418  0.52107621  1
  Li  Li46  1  0.00213851  0.17264267  0.51762445  1
  Li  Li47  1  0.03744425  0.82589766  0.55211178  1
  Li  Li48  1  0.02415429  0.32640122  0.59221636  1
  Li  Li49  1  0.95390814  0.67196990  0.62109705  1
  Li  Li50  1  0.46187320  0.49875955  0.53625149  1
  Li  Li51  1  0.44825182  0.00842533  0.61700219  1
  Li  Li52  1  0.94448217  0.99260887  0.59902288  1
  Li  Li53  1  0.04845937  0.49766937  0.53345949  1
  Li  Li54  1  0.53202955  0.67252200  0.76447551  1
  Li  Li55  1  0.46231087  0.32619703  0.73612539  1
  Li  Li56  1  0.46780512  0.83746850  0.69613718  1
  Li  Li57  1  0.53624270  0.17044472  0.66661022  1
  Li  Li58  1  0.96851584  0.16509949  0.66219548  1
  Li  Li59  1  0.03493662  0.82758947  0.69198193  1
  Li  Li60  1  0.02988433  0.33917582  0.73355341  1
  Li  Li61  1  0.96386163  0.66182615  0.76491936  1
  Li  Li62  1  0.55039279  0.49140540  0.68751556  1
  Li  Li63  1  0.44861196  0.00627129  0.75878087  1
  Li  Li64  1  0.94904640  0.99347379  0.74102050  1
  Li  Li65  1  0.04770992  0.50798279  0.67057081  1
  Li  Li66  1  0.53100922  0.66891412  0.90589769  1
  Li  Li67  1  0.46951470  0.33720545  0.87412345  1
  Li  Li68  1  0.47261198  0.83489316  0.83892506  1
  Li  Li69  1  0.54091959  0.16788480  0.80886227  1
  Li  Li70  1  0.97261326  0.16622546  0.80243266  1
  Li  Li71  1  0.04229294  0.82890972  0.83203874  1
  Li  Li72  1  0.04161451  0.32629087  0.87799458  1
  Li  Li73  1  0.97407818  0.67520401  0.90717255  1
  Li  Li74  1  0.44802482  0.50855211  0.81286034  1
  Li  Li75  1  0.44653162  0.00628845  0.90109257  1
  Li  Li76  1  0.95263545  0.99129022  0.88264835  1
  Li  Li77  1  0.95409258  0.49141762  0.82875363  1
  Li  Li78  1  0.50229230  0.82776600  0.98075445  1
  Li  Li79  1  0.53943374  0.17442752  0.94730010  1
  Li  Li80  1  0.96854074  0.16491667  0.94493601  1
  Li  Li81  1  0.00295337  0.82799408  0.97995384  1
  Li  Li82  1  0.54578480  0.49917253  0.96410199  1
  Li  Li83  1  0.96001527  0.49989540  0.96583748  1
  P  P84  1  0.24431671  0.91219879  0.08768854  1
  P  P85  1  0.74616039  0.58902057  0.01701372  1
  P  P86  1  0.25225083  0.41958793  0.05887049  1
  P  P87  1  0.25909420  0.91194925  0.22757098  1
  P  P88  1  0.75390126  0.09066359  0.13027887  1
  P  P89  1  0.75215725  0.58901389  0.15708400  1
  P  P90  1  0.25234137  0.41074407  0.20166868  1
  P  P91  1  0.24935748  0.90986534  0.36991869  1
  P  P92  1  0.74554752  0.08938764  0.27272757  1
  P  P93  1  0.75799352  0.59003502  0.29843780  1
  P  P94  1  0.24677191  0.41256650  0.34331918  1
  P  P95  1  0.75684647  0.08819160  0.41254050  1
  P  P96  1  0.75231341  0.58076862  0.44130973  1
  P  P97  1  0.26160906  0.40982696  0.48283871  1
  P  P98  1  0.24438922  0.58767110  0.58728803  1
  P  P99  1  0.75306248  0.90999570  0.51699904  1
  P  P100  1  0.24403307  0.08062501  0.55868882  1
  P  P101  1  0.25491016  0.58878816  0.72747040  1
  P  P102  1  0.75162629  0.40976625  0.63015164  1
  P  P103  1  0.74706772  0.91179654  0.65677516  1
  P  P104  1  0.24817425  0.08917362  0.70155841  1
  P  P105  1  0.24672483  0.58996049  0.86983029  1
  P  P106  1  0.74277846  0.41104125  0.77235675  1
  P  P107  1  0.74967394  0.91008565  0.79829512  1
  P  P108  1  0.24912539  0.08834135  0.84301699  1
  P  P109  1  0.75656883  0.41136327  0.91241255  1
  P  P110  1  0.74994023  0.91875413  0.94108389  1
  P  P111  1  0.25484310  0.08901230  0.98296562  1
  S  S112  1  0.46178543  0.85202739  0.07125769  1
  S  S113  1  0.53077963  0.64720311  0.99880711  1
  S  S114  1  0.46407431  0.34715177  0.07361412  1
  S  S115  1  0.03824070  0.35504194  0.07488028  1
  S  S116  1  0.96456822  0.64835995  0.00049161  1
  S  S117  1  0.03395292  0.84989975  0.06890517  1
  S  S118  1  0.24544794  0.06464549  0.07357192  1
  S  S119  1  0.25895591  0.56533590  0.07811659  1
  S  S120  1  0.74853590  0.43543710  0.00347299  1
  S  S121  1  0.74829947  0.10417292  0.08415144  1
  S  S122  1  0.74324874  0.61254997  0.06285562  1
  S  S123  1  0.24972011  0.42140674  0.01252269  1
  S  S124  1  0.47045897  0.84509883  0.21065513  1
  S  S125  1  0.54211814  0.15180601  0.14832940  1
  S  S126  1  0.54494892  0.65216364  0.13795059  1
  S  S127  1  0.47203577  0.34803226  0.21599044  1
  S  S128  1  0.04582964  0.34674697  0.22091909  1
  S  S129  1  0.97038439  0.65374905  0.14283908  1
  S  S130  1  0.96804026  0.15644417  0.14642380  1
  S  S131  1  0.04369897  0.85180101  0.21088480  1
  S  S132  1  0.75916167  0.94098575  0.14696790  1
  S  S133  1  0.26307577  0.06218571  0.21164043  1
  S  S134  1  0.25680929  0.56099413  0.21759999  1
  S  S135  1  0.75824388  0.43899308  0.14078409  1
  S  S136  1  0.24155034  0.89066249  0.13354490  1
  S  S137  1  0.74859108  0.10533349  0.22652445  1
  S  S138  1  0.74257988  0.60455622  0.20326053  1
  S  S139  1  0.24213180  0.39424234  0.15552452  1
  S  S140  1  0.45780833  0.84641831  0.35117954  1
  S  S141  1  0.53534960  0.15732992  0.28966192  1
  S  S142  1  0.54057577  0.64879064  0.28218417  1
  S  S143  1  0.45995206  0.35059708  0.36022600  1
  S  S144  1  0.03399921  0.34660947  0.35980921  1
  S  S145  1  0.96699797  0.65816156  0.28099254  1
  S  S146  1  0.96236330  0.14804310  0.28938116  1
  S  S147  1  0.03216381  0.84651885  0.35442787  1
  S  S148  1  0.74041686  0.93931267  0.28875679  1
  S  S149  1  0.24635392  0.05973109  0.35331684  1
  S  S150  1  0.24348199  0.56257413  0.35962744  1
  S  S151  1  0.76295738  0.43993734  0.28245113  1
  S  S152  1  0.25757844  0.89585788  0.27378331  1
  S  S153  1  0.76124877  0.11046753  0.36673419  1
  S  S154  1  0.75824505  0.60619876  0.34464923  1
  S  S155  1  0.24917768  0.39787969  0.29706866  1
  S  S156  1  0.53931838  0.14784985  0.42893310  1
  S  S157  1  0.54018207  0.65327626  0.42686589  1
  S  S158  1  0.47483074  0.35006261  0.50144855  1
  S  S159  1  0.04110787  0.35166642  0.49872146  1
  S  S160  1  0.96590606  0.64541894  0.42503090  1
  S  S161  1  0.96679902  0.15055725  0.43157745  1
  S  S162  1  0.75577734  0.93552325  0.42645322  1
  S  S163  1  0.26002718  0.56327061  0.49651565  1
  S  S164  1  0.74477376  0.43538646  0.42184208  1
  S  S165  1  0.25766475  0.89608176  0.41602948  1
  S  S166  1  0.75729944  0.57838527  0.48762477  1
  S  S167  1  0.26523151  0.38679260  0.43697284  1
  S  S168  1  0.03261999  0.64675579  0.56810108  1
  S  S169  1  0.96820033  0.85075789  0.49883360  1
  S  S170  1  0.02841199  0.15076682  0.57233430  1
  S  S171  1  0.45416346  0.14787434  0.57561839  1
  S  S172  1  0.53432996  0.85150464  0.50054955  1
  S  S173  1  0.46024394  0.65020688  0.57108834  1
  S  S174  1  0.24864326  0.43498990  0.57339571  1
  S  S175  1  0.23932349  0.93502092  0.57808346  1
  S  S176  1  0.75097881  0.06346773  0.50335094  1
  S  S177  1  0.74448955  0.39578053  0.58403866  1
  S  S178  1  0.75549787  0.88698323  0.56286666  1
  S  S179  1  0.25210528  0.07790528  0.51238205  1
  S  S180  1  0.04039854  0.64975425  0.71052608  1
  S  S181  1  0.96690764  0.34528034  0.64605281  1
  S  S182  1  0.95770923  0.84998714  0.63856954  1
  S  S183  1  0.03395433  0.15657999  0.71681247  1
  S  S184  1  0.46066010  0.14819667  0.71989908  1
  S  S185  1  0.53154016  0.84582142  0.64167239  1
  S  S186  1  0.54049762  0.34820407  0.64845826  1
  S  S187  1  0.46715027  0.65512384  0.71091067  1
  S  S188  1  0.75569516  0.55970100  0.64669097  1
  S  S189  1  0.25854133  0.43887743  0.71127603  1
  S  S190  1  0.23935692  0.93918400  0.71752040  1
  S  S191  1  0.74082819  0.06187349  0.64056314  1
  S  S192  1  0.23757602  0.61004330  0.63310613  1
  S  S193  1  0.74232830  0.39561788  0.72610947  1
  S  S194  1  0.75425271  0.89630081  0.70297696  1
  S  S195  1  0.25465481  0.10550960  0.65536186  1
  S  S196  1  0.03313798  0.65554827  0.85344513  1
  S  S197  1  0.95849058  0.34999952  0.78857976  1
  S  S198  1  0.95608013  0.84655983  0.77893689  1
  S  S199  1  0.03106524  0.15332271  0.85721861  1
  S  S200  1  0.45681207  0.15126803  0.86199979  1
  S  S201  1  0.52993133  0.84653745  0.78421216  1
  S  S202  1  0.53164046  0.34447469  0.78946998  1
  S  S203  1  0.45908020  0.65118131  0.85204638  1
  S  S204  1  0.73953377  0.56087068  0.78857552  1
  S  S205  1  0.24187678  0.44013449  0.85311897  1
  S  S206  1  0.24309578  0.93836816  0.85932713  1
  S  S207  1  0.74452226  0.06021134  0.78233753  1
  S  S208  1  0.25063996  0.60410947  0.77370066  1
  S  S209  1  0.75946349  0.39026030  0.86655802  1
  S  S210  1  0.76028386  0.89368801  0.84444397  1
  S  S211  1  0.25852887  0.10383951  0.79683260  1
  S  S212  1  0.96661983  0.34903983  0.93128470  1
  S  S213  1  0.96366744  0.85399701  0.92506035  1
  S  S214  1  0.03699759  0.14869408  0.99960338  1
  S  S215  1  0.47067233  0.14710277  0.00102943  1
  S  S216  1  0.53776030  0.84656232  0.92634168  1
  S  S217  1  0.53892994  0.35128622  0.92880076  1
  S  S218  1  0.75535889  0.56368353  0.92663249  1
  S  S219  1  0.25264266  0.93549194  0.99659203  1
  S  S220  1  0.74294270  0.06444165  0.92179772  1
  S  S221  1  0.25102281  0.60268165  0.91598721  1
  S  S222  1  0.75259365  0.92069381  0.98741357  1
  S  S223  1  0.25714805  0.11230111  0.93711570  1
