# generated using pymatgen
data_Li3PS4
_symmetry_space_group_name_H-M   'P 1'
_cell_length_a   8.10679100
_cell_length_b   13.05789500
_cell_length_c   43.57734718
_cell_angle_alpha   90.00000000
_cell_angle_beta   90.00000000
_cell_angle_gamma   90.00000000
_symmetry_Int_Tables_number   1
_chemical_formula_structural   Li3PS4
_chemical_formula_sum   'Li84 P28 S112'
_cell_volume   4612.99450553
_cell_formula_units_Z   28
loop_
 _symmetry_equiv_pos_site_id
 _symmetry_equiv_pos_as_xyz
  1  'x, y, z'
loop_
 _atom_site_type_symbol
 _atom_site_label
 _atom_site_symmetry_multiplicity
 _atom_site_fract_x
 _atom_site_fract_y
 _atom_site_fract_z
 _atom_site_occupancy
  Li  Li0  1  0.93756929  0.15563517  0.08888006  1
  Li  Li1  1  0.94097645  0.66568829  0.04799966  1
  Li  Li2  1  0.61455001  0.41153003  0.05620437  1
  Li  Li3  1  0.36924843  0.47056299  0.97727981  1
  Li  Li4  1  0.37740991  0.65981771  0.05250179  1
  Li  Li5  1  0.37396281  0.16468508  0.09078623  1
  Li  Li6  1  0.44038659  0.82151166  0.98370490  1
  Li  Li7  1  0.91000249  0.49810005  0.10769693  1
  Li  Li8  1  0.34650345  0.49315799  0.11616064  1
  Li  Li9  1  0.43750226  0.00360678  0.03773178  1
  Li  Li10  1  0.87490673  0.83685901  0.12143910  1
  Li  Li11  1  0.94689420  0.16870747  0.23760054  1
  Li  Li12  1  0.93816696  0.67255068  0.19270890  1
  Li  Li13  1  0.87245852  0.32563458  0.16151558  1
  Li  Li14  1  0.43877172  0.32892473  0.16419281  1
  Li  Li15  1  0.37494995  0.66285173  0.19687752  1
  Li  Li16  1  0.37847819  0.16359429  0.23173015  1
  Li  Li17  1  0.44430452  0.82485608  0.12050897  1
  Li  Li18  1  0.86324249  0.00634072  0.18583702  1
  Li  Li19  1  0.85484013  0.50498698  0.24157943  1
  Li  Li20  1  0.35482994  0.49137326  0.25862059  1
  Li  Li21  1  0.35533545  0.98897217  0.16909661  1
  Li  Li22  1  0.87867182  0.83589849  0.26826493  1
  Li  Li23  1  0.94201766  0.17457663  0.37967310  1
  Li  Li24  1  0.93830385  0.67046000  0.33511374  1
  Li  Li25  1  0.87223313  0.33694820  0.30401094  1
  Li  Li26  1  0.43984072  0.32693649  0.30804399  1
  Li  Li27  1  0.37168171  0.67272644  0.33820718  1
  Li  Li28  1  0.37413731  0.16296402  0.37856722  1
  Li  Li29  1  0.44648167  0.83118259  0.26250458  1
  Li  Li30  1  0.85504502  0.01080569  0.33074145  1
  Li  Li31  1  0.84335778  0.50868437  0.38308345  1
  Li  Li32  1  0.39028022  0.49752650  0.39614814  1
  Li  Li33  1  0.36290749  0.99349996  0.31380246  1
  Li  Li34  1  0.87102977  0.83577909  0.40824643  1
  Li  Li35  1  0.93883223  0.17900462  0.51605055  1
  Li  Li36  1  0.86873331  0.52917051  0.52275822  1
  Li  Li37  1  0.87658883  0.34014154  0.44657310  1
  Li  Li38  1  0.44193148  0.33403365  0.45210116  1
  Li  Li39  1  0.10876539  0.58965067  0.44421284  1
  Li  Li40  1  0.43699037  0.84391328  0.41106422  1
  Li  Li41  1  0.93749312  0.99564326  0.46187416  1
  Li  Li42  1  0.88549329  0.34357694  0.58968950  1
  Li  Li43  1  0.88265444  0.83154439  0.54791639  1
  Li  Li44  1  0.21231897  0.09050411  0.55582053  1
  Li  Li45  1  0.45139726  0.03079740  0.47747333  1
  Li  Li46  1  0.44806809  0.84096335  0.55316303  1
  Li  Li47  1  0.45152965  0.33429863  0.59149913  1
  Li  Li48  1  0.38369566  0.67924202  0.48347903  1
  Li  Li49  1  0.93612300  0.99592450  0.60373601  1
  Li  Li50  1  0.48025146  0.00811813  0.61634357  1
  Li  Li51  1  0.38505584  0.49510122  0.53842591  1
  Li  Li52  1  0.94821146  0.66187655  0.62202401  1
  Li  Li53  1  0.88343207  0.33126735  0.73741332  1
  Li  Li54  1  0.88625107  0.82797677  0.69258823  1
  Li  Li55  1  0.95104784  0.17169838  0.66147035  1
  Li  Li56  1  0.38381297  0.16912604  0.66545347  1
  Li  Li57  1  0.45308712  0.83623453  0.69601198  1
  Li  Li58  1  0.45136273  0.33584148  0.73205450  1
  Li  Li59  1  0.37917558  0.67432025  0.62015334  1
  Li  Li60  1  0.96835086  0.49346869  0.68640993  1
  Li  Li61  1  0.96956409  0.99383788  0.74154674  1
  Li  Li62  1  0.46952333  0.00628465  0.75847400  1
  Li  Li63  1  0.46904996  0.50917955  0.66914084  1
  Li  Li64  1  0.94970739  0.66452936  0.76832730  1
  Li  Li65  1  0.87932850  0.32573265  0.87986568  1
  Li  Li66  1  0.88389331  0.83088017  0.83455606  1
  Li  Li67  1  0.95323412  0.16384712  0.80399432  1
  Li  Li68  1  0.38797957  0.17194751  0.80776813  1
  Li  Li69  1  0.45113279  0.82831510  0.83851986  1
  Li  Li70  1  0.44860945  0.33886557  0.87807129  1
  Li  Li71  1  0.38319876  0.66873988  0.76258432  1
  Li  Li72  1  0.96914830  0.49080074  0.83088180  1
  Li  Li73  1  0.98227267  0.99163277  0.88342627  1
  Li  Li74  1  0.43632397  0.00403769  0.89623745  1
  Li  Li75  1  0.46820046  0.50651762  0.81362407  1
  Li  Li76  1  0.95126617  0.66593486  0.90851989  1
  Li  Li77  1  0.88437601  0.32106359  0.01658900  1
  Li  Li78  1  0.95362519  0.97066438  0.02274576  1
  Li  Li79  1  0.94833376  0.15917044  0.94677040  1
  Li  Li80  1  0.38264619  0.16919010  0.95208597  1
  Li  Li81  1  0.71294125  0.91109264  0.94404249  1
  Li  Li82  1  0.38553781  0.65649430  0.91031498  1
  Li  Li83  1  0.88467816  0.50563750  0.96159828  1
  P  P84  1  0.16527073  0.90725866  0.08328880  1
  P  P85  1  0.65748379  0.58554986  0.01271249  1
  P  P86  1  0.15150862  0.40867402  0.05723963  1
  P  P87  1  0.15578872  0.91030892  0.22776727  1
  P  P88  1  0.65223800  0.08522586  0.12869734  1
  P  P89  1  0.65531048  0.58704031  0.15641889  1
  P  P90  1  0.15055063  0.41063636  0.20086163  1
  P  P91  1  0.15151076  0.91419545  0.37106574  1
  P  P92  1  0.65568941  0.08983512  0.27223573  1
  P  P93  1  0.65074643  0.58901806  0.29881458  1
  P  P94  1  0.15426645  0.41224091  0.34393815  1
  P  P95  1  0.66406692  0.09246569  0.41672380  1
  P  P96  1  0.64940796  0.59145145  0.44267047  1
  P  P97  1  0.15751603  0.41506452  0.48712761  1
  P  P98  1  0.65910073  0.59231249  0.58338123  1
  P  P99  1  0.16566788  0.91493954  0.51290116  1
  P  P100  1  0.67461075  0.09092558  0.55705157  1
  P  P101  1  0.67155632  0.58901826  0.72757185  1
  P  P102  1  0.17159410  0.41267590  0.62896419  1
  P  P103  1  0.17006890  0.91196535  0.65621633  1
  P  P104  1  0.67298423  0.08958647  0.70119369  1
  P  P105  1  0.67169551  0.58742112  0.87097344  1
  P  P106  1  0.17154958  0.41088712  0.77248130  1
  P  P107  1  0.17307797  0.91074037  0.79879074  1
  P  P108  1  0.67120338  0.08796624  0.84388885  1
  P  P109  1  0.15913517  0.40804178  0.91657909  1
  P  P110  1  0.17529647  0.90970180  0.94288721  1
  P  P111  1  0.66637156  0.08581604  0.98706686  1
  S  S112  1  0.37856608  0.84220087  0.06644135  1
  S  S113  1  0.43392807  0.64261023  0.99801065  1
  S  S114  1  0.35476739  0.34687123  0.07902338  1
  S  S115  1  0.93544581  0.34155465  0.07382623  1
  S  S116  1  0.85396957  0.65893299  0.99466053  1
  S  S117  1  0.95099043  0.84419349  0.06683088  1
  S  S118  1  0.16670786  0.05613375  0.06646693  1
  S  S119  1  0.14714145  0.55868087  0.07419316  1
  S  S120  1  0.65174643  0.43182578  0.00008194  1
  S  S121  1  0.65223547  0.09787372  0.08201003  1
  S  S122  1  0.66125063  0.59607227  0.06031719  1
  S  S123  1  0.15301431  0.39297083  0.01131291  1
  S  S124  1  0.36418031  0.84743641  0.20876577  1
  S  S125  1  0.44016061  0.15199084  0.14567492  1
  S  S126  1  0.43761642  0.65119317  0.14156843  1
  S  S127  1  0.36231491  0.34848331  0.21862268  1
  S  S128  1  0.93641250  0.34317709  0.21625570  1
  S  S129  1  0.86414706  0.65362562  0.13856156  1
  S  S130  1  0.86796972  0.14634896  0.14525806  1
  S  S131  1  0.93754896  0.84620401  0.21304219  1
  S  S132  1  0.64918759  0.93576091  0.14562281  1
  S  S133  1  0.14996606  0.05984401  0.21102190  1
  S  S134  1  0.14485032  0.55989503  0.21747327  1
  S  S135  1  0.65347892  0.43723806  0.13968912  1
  S  S136  1  0.16290913  0.89241492  0.13018585  1
  S  S137  1  0.66470732  0.10468585  0.22553177  1
  S  S138  1  0.65984961  0.60092411  0.20324089  1
  S  S139  1  0.15485548  0.39531828  0.15384585  1
  S  S140  1  0.36716463  0.85308021  0.35454553  1
  S  S141  1  0.43749861  0.15406016  0.28697596  1
  S  S142  1  0.43624245  0.65557207  0.28323704  1
  S  S143  1  0.36313126  0.34656407  0.36201132  1
  S  S144  1  0.93659428  0.34870779  0.35913103  1
  S  S145  1  0.86271788  0.65007039  0.28079093  1
  S  S146  1  0.86384061  0.15275876  0.29132466  1
  S  S147  1  0.93988573  0.84756732  0.35377285  1
  S  S148  1  0.64980809  0.94018282  0.28891740  1
  S  S149  1  0.14826001  0.06397341  0.35442866  1
  S  S150  1  0.15175158  0.56249620  0.36032581  1
  S  S151  1  0.64450535  0.43891621  0.28266148  1
  S  S152  1  0.16447757  0.89556042  0.27449184  1
  S  S153  1  0.66169868  0.10715696  0.36983771  1
  S  S154  1  0.65503045  0.60583586  0.34565113  1
  S  S155  1  0.15863104  0.39702492  0.29717529  1
  S  S156  1  0.45004588  0.15587130  0.43319056  1
  S  S157  1  0.43256464  0.65881551  0.42647842  1
  S  S158  1  0.35348239  0.34145425  0.50523481  1
  S  S159  1  0.93344998  0.35761886  0.50126050  1
  S  S160  1  0.85197917  0.65370653  0.42080078  1
  S  S161  1  0.87731011  0.15744517  0.43364785  1
  S  S162  1  0.66580195  0.94361952  0.43345849  1
  S  S163  1  0.15116702  0.56846707  0.49999904  1
  S  S164  1  0.64511589  0.44162506  0.42562073  1
  S  S165  1  0.15012541  0.90055997  0.41773884  1
  S  S166  1  0.65220498  0.60677172  0.48863168  1
  S  S167  1  0.16162893  0.40509932  0.43938670  1
  S  S168  1  0.44690786  0.65787060  0.56617889  1
  S  S169  1  0.38974141  0.85805455  0.49858548  1
  S  S170  1  0.47166308  0.15290393  0.57886536  1
  S  S171  1  0.89108078  0.15855283  0.57329100  1
  S  S172  1  0.97016123  0.84107981  0.49473916  1
  S  S173  1  0.87445449  0.65442049  0.56708567  1
  S  S174  1  0.65695353  0.44326662  0.56668166  1
  S  S175  1  0.67943507  0.94114128  0.57414918  1
  S  S176  1  0.17111091  0.06848255  0.50003287  1
  S  S177  1  0.17200786  0.39883595  0.58229194  1
  S  S178  1  0.16235415  0.90495044  0.56063361  1
  S  S179  1  0.67131618  0.10617377  0.51108367  1
  S  S180  1  0.46265903  0.65172462  0.70865275  1
  S  S181  1  0.38346555  0.34596709  0.64612586  1
  S  S182  1  0.38738187  0.84803041  0.64097904  1
  S  S183  1  0.46189973  0.15089026  0.71950738  1
  S  S184  1  0.88822105  0.15616530  0.71647216  1
  S  S185  1  0.96077079  0.84605159  0.63835536  1
  S  S186  1  0.95609797  0.35233861  0.64575810  1
  S  S187  1  0.88930292  0.65395513  0.71287792  1
  S  S188  1  0.17570977  0.56267764  0.64546572  1
  S  S189  1  0.67813908  0.43951452  0.71093639  1
  S  S190  1  0.67955826  0.93971130  0.71746954  1
  S  S191  1  0.17221600  0.06200246  0.63960906  1
  S  S192  1  0.66002824  0.60726733  0.63024110  1
  S  S193  1  0.16448350  0.39556377  0.72571892  1
  S  S194  1  0.16663971  0.89785829  0.70300614  1
  S  S195  1  0.66731553  0.10594069  0.65436392  1
  S  S196  1  0.45619192  0.64763952  0.85414960  1
  S  S197  1  0.38910753  0.34599914  0.78731687  1
  S  S198  1  0.38801881  0.84388853  0.78349220  1
  S  S199  1  0.46261371  0.15424437  0.86188152  1
  S  S200  1  0.88870237  0.15179374  0.85901853  1
  S  S201  1  0.96162481  0.84971970  0.78051414  1
  S  S202  1  0.96237855  0.34827473  0.79132721  1
  S  S203  1  0.88359695  0.65415036  0.85381093  1
  S  S204  1  0.17786698  0.56047201  0.78905129  1
  S  S205  1  0.67596390  0.43739416  0.85448673  1
  S  S206  1  0.67273079  0.93790439  0.86042109  1
  S  S207  1  0.18024529  0.06065194  0.78261979  1
  S  S208  1  0.66371427  0.60414964  0.77433639  1
  S  S209  1  0.16025798  0.39277504  0.86971851  1
  S  S210  1  0.16764351  0.89401469  0.84561132  1
  S  S211  1  0.66714866  0.10199850  0.79707748  1
  S  S212  1  0.37460749  0.34601289  0.93289268  1
  S  S213  1  0.39149451  0.84182013  0.92660196  1
  S  S214  1  0.47063966  0.15933320  0.00526777  1
  S  S215  1  0.89061348  0.14274398  0.00133625  1
  S  S216  1  0.97220336  0.84747729  0.92118067  1
  S  S217  1  0.94708772  0.34249123  0.93380765  1
  S  S218  1  0.15686838  0.55704810  0.93323142  1
  S  S219  1  0.67232490  0.93227332  0.99988639  1
  S  S220  1  0.17998138  0.05932623  0.92568290  1
  S  S221  1  0.67203411  0.60128948  0.91762986  1
  S  S222  1  0.17289937  0.89500756  0.98887407  1
  S  S223  1  0.66255969  0.09600773  0.93933866  1
