# generated using pymatgen
data_Li3PS4
_symmetry_space_group_name_H-M   'P 1'
_cell_length_a   8.10679100
_cell_length_b   13.05789500
_cell_length_c   41.23664263
_cell_angle_alpha   90.00000000
_cell_angle_beta   90.00000000
_cell_angle_gamma   90.00000000
_symmetry_Int_Tables_number   1
_chemical_formula_structural   Li3PS4
_chemical_formula_sum   'Li72 P24 S96'
_cell_volume   4365.21307890
_cell_formula_units_Z   24
loop_
 _symmetry_equiv_pos_site_id
 _symmetry_equiv_pos_as_xyz
  1  'x, y, z'
loop_
 _atom_site_type_symbol
 _atom_site_label
 _atom_site_symmetry_multiplicity
 _atom_site_fract_x
 _atom_site_fract_y
 _atom_site_fract_z
 _atom_site_occupancy
  Li  Li0  1  0.90274876  0.82895215  0.11575391  1
  Li  Li1  1  0.97485847  0.17394985  0.07896152  1
  Li  Li2  1  0.16026423  0.68599771  0.04139770  1
  Li  Li3  1  0.33100477  0.95001689  0.00791834  1
  Li  Li4  1  0.40561455  0.17875138  0.07239594  1
  Li  Li5  1  0.45569074  0.82205261  0.11039273  1
  Li  Li6  1  0.97637511  0.48032660  0.11028717  1
  Li  Li7  1  0.46372485  0.48743495  0.09756737  1
  Li  Li8  1  0.77912565  0.96255518  0.03567984  1
  Li  Li9  1  0.91107955  0.83780844  0.26722510  1
  Li  Li10  1  0.98068476  0.16495212  0.23909487  1
  Li  Li11  1  0.96789945  0.67026928  0.19170432  1
  Li  Li12  1  0.90181228  0.31904370  0.16058536  1
  Li  Li13  1  0.47192120  0.32878666  0.16051657  1
  Li  Li14  1  0.40516631  0.66057277  0.19249190  1
  Li  Li15  1  0.41024213  0.16085778  0.23202927  1
  Li  Li16  1  0.48075367  0.83478020  0.26077367  1
  Li  Li17  1  0.88704079  0.00917955  0.18128121  1
  Li  Li18  1  0.89476165  0.50605593  0.24224312  1
  Li  Li19  1  0.39474320  0.49354933  0.25776858  1
  Li  Li20  1  0.38192572  0.99650266  0.16070700  1
  Li  Li21  1  0.90599820  0.82086724  0.42712180  1
  Li  Li22  1  0.95569361  0.17779073  0.38943437  1
  Li  Li23  1  0.97145603  0.66978451  0.33946008  1
  Li  Li24  1  0.90525694  0.33823769  0.30762186  1
  Li  Li25  1  0.46796915  0.32928450  0.30831261  1
  Li  Li26  1  0.40183964  0.68105892  0.33934665  1
  Li  Li27  1  0.40410848  0.17093989  0.38427967  1
  Li  Li28  1  0.47482157  0.82605983  0.42103693  1
  Li  Li29  1  0.88210159  0.00339014  0.33899795  1
  Li  Li30  1  0.96365510  0.51253812  0.40241866  1
  Li  Li31  1  0.47642683  0.51940371  0.38970259  1
  Li  Li32  1  0.38835726  0.99076954  0.31855928  1
  Li  Li33  1  0.83071055  0.04951684  0.49218997  1
  Li  Li34  1  0.66086047  0.31357397  0.45858198  1
  Li  Li35  1  0.27174327  0.03926341  0.46361170  1
  Li  Li36  1  0.32304823  0.67149176  0.61551807  1
  Li  Li37  1  0.25259032  0.32540004  0.57896663  1
  Li  Li38  1  0.06649003  0.81332853  0.54129160  1
  Li  Li39  1  0.89607979  0.54945916  0.50751990  1
  Li  Li40  1  0.81998573  0.32128177  0.57279307  1
  Li  Li41  1  0.77064171  0.67832390  0.61035614  1
  Li  Li42  1  0.24431974  0.01900755  0.61058106  1
  Li  Li43  1  0.76084969  0.01118646  0.59782156  1
  Li  Li44  1  0.45578025  0.53981111  0.53626734  1
  Li  Li45  1  0.31487118  0.66189920  0.76761591  1
  Li  Li46  1  0.24373785  0.33410997  0.73953267  1
  Li  Li47  1  0.25496857  0.82883170  0.69202758  1
  Li  Li48  1  0.32395996  0.18100667  0.66085751  1
  Li  Li49  1  0.75087480  0.17039516  0.66043638  1
  Li  Li50  1  0.81653389  0.83872045  0.69227572  1
  Li  Li51  1  0.81494511  0.33846686  0.73243389  1
  Li  Li52  1  0.74368349  0.66601812  0.76051157  1
  Li  Li53  1  0.33824877  0.49027549  0.68130798  1
  Li  Li54  1  0.32528158  0.99379768  0.74321801  1
  Li  Li55  1  0.82520055  0.00627477  0.75685035  1
  Li  Li56  1  0.84460470  0.50368150  0.66095366  1
  Li  Li57  1  0.32172117  0.67900246  0.92741272  1
  Li  Li58  1  0.26995207  0.32221198  0.88960942  1
  Li  Li59  1  0.25170263  0.83032440  0.83972126  1
  Li  Li60  1  0.31640111  0.16175986  0.80782624  1
  Li  Li61  1  0.75522311  0.17171623  0.80823973  1
  Li  Li62  1  0.82381888  0.81924796  0.83924762  1
  Li  Li63  1  0.82342665  0.32974697  0.88479656  1
  Li  Li64  1  0.75265996  0.67467526  0.92116514  1
  Li  Li65  1  0.34466959  0.49740740  0.83927492  1
  Li  Li66  1  0.26117103  0.98687932  0.90246319  1
  Li  Li67  1  0.74470789  0.98126396  0.88950957  1
  Li  Li68  1  0.83863805  0.50989194  0.81873024  1
  Li  Li69  1  0.39558619  0.45002015  0.99241978  1
  Li  Li70  1  0.56640679  0.18666206  0.95872713  1
  Li  Li71  1  0.95037155  0.46211548  0.96413250  1
  P  P72  1  0.17324314  0.90905605  0.07152320  1
  P  P73  1  0.68008053  0.08946660  0.11861190  1
  P  P74  1  0.17141870  0.44274333  0.04964431  1
  P  P75  1  0.18796432  0.91267040  0.22439782  1
  P  P76  1  0.68786657  0.08694041  0.27532952  1
  P  P77  1  0.69240185  0.58595767  0.15293742  1
  P  P78  1  0.18168891  0.40391817  0.19953439  1
  P  P79  1  0.18022165  0.91043383  0.38110101  1
  P  P80  1  0.67389669  0.09008353  0.42842205  1
  P  P81  1  0.68142780  0.59567485  0.30041253  1
  P  P82  1  0.19231312  0.41360504  0.34702459  1
  P  P83  1  0.67157673  0.55713567  0.45033128  1
  P  P84  1  0.05218011  0.59019234  0.57141032  1
  P  P85  1  0.54600702  0.41023161  0.61878380  1
  P  P86  1  0.05428307  0.05690667  0.54966593  1
  P  P87  1  0.03846376  0.58716470  0.72464626  1
  P  P88  1  0.53816902  0.41312159  0.77544564  1
  P  P89  1  0.52986356  0.91435134  0.65309726  1
  P  P90  1  0.04152370  0.09593367  0.69960762  1
  P  P91  1  0.04607116  0.59028656  0.88137811  1
  P  P92  1  0.55212678  0.40977482  0.92865277  1
  P  P93  1  0.54186041  0.90452047  0.80055298  1
  P  P94  1  0.03048812  0.08637139  0.84710961  1
  P  P95  1  0.55470674  0.94323158  0.95042368  1
  S  S96  1  0.36918379  0.82795835  0.05275416  1
  S  S97  1  0.48094692  0.64858135  0.13477572  1
  S  S98  1  0.39323223  0.36346040  0.04714333  1
  S  S99  1  0.97324504  0.35695445  0.06252838  1
  S  S100  1  0.90419261  0.64906644  0.13489622  1
  S  S101  1  0.96177325  0.83242038  0.05674671  1
  S  S102  1  0.17630309  0.05454327  0.05159571  1
  S  S103  1  0.20516274  0.55897770  0.08246768  1
  S  S104  1  0.69198292  0.43420770  0.13566742  1
  S  S105  1  0.18132229  0.90180042  0.12124453  1
  S  S106  1  0.69051416  0.10746221  0.06908785  1
  S  S107  1  0.13416820  0.52204115  0.00632526  1
  S  S108  1  0.39420988  0.84962243  0.20365866  1
  S  S109  1  0.46469390  0.15963502  0.13315455  1
  S  S110  1  0.46844631  0.65989744  0.28218737  1
  S  S111  1  0.39663156  0.34424476  0.21789977  1
  S  S112  1  0.96841128  0.33979722  0.21767949  1
  S  S113  1  0.89660959  0.65511416  0.28210451  1
  S  S114  1  0.89381402  0.14709934  0.13808446  1
  S  S115  1  0.96868924  0.84923750  0.20888700  1
  S  S116  1  0.66811229  0.93933638  0.13538699  1
  S  S117  1  0.18196108  0.06318462  0.20763396  1
  S  S118  1  0.17840958  0.55545245  0.21565887  1
  S  S119  1  0.67839168  0.44409348  0.28435018  1
  S  S120  1  0.19744299  0.89644858  0.27380169  1
  S  S121  1  0.69762727  0.10327341  0.22590503  1
  S  S122  1  0.68889158  0.59867391  0.20241353  1
  S  S123  1  0.18349341  0.38468046  0.15037213  1
  S  S124  1  0.39437716  0.85295299  0.36177596  1
  S  S125  1  0.46852862  0.15033102  0.29076098  1
  S  S126  1  0.47338099  0.64288547  0.43743040  1
  S  S127  1  0.40408991  0.35058842  0.36510670  1
  S  S128  1  0.98087147  0.35121882  0.36525685  1
  S  S129  1  0.89332801  0.63647955  0.45282066  1
  S  S130  1  0.89411428  0.14983041  0.29616044  1
  S  S131  1  0.96529269  0.84015451  0.36636537  1
  S  S132  1  0.68261149  0.93631788  0.29199769  1
  S  S133  1  0.16846305  0.06070244  0.36446277  1
  S  S134  1  0.19208797  0.56541799  0.36425148  1
  S  S135  1  0.70525107  0.44082516  0.41752527  1
  S  S136  1  0.19007531  0.89228885  0.43064399  1
  S  S137  1  0.68159824  0.09783737  0.37868187  1
  S  S138  1  0.68297520  0.61504710  0.34958568  1
  S  S139  1  0.18873500  0.40074457  0.29755623  1
  S  S140  1  0.46270740  0.16672787  0.44336504  1
  S  S141  1  0.86991710  0.17139210  0.44714281  1
  S  S142  1  0.67773627  0.94449796  0.44818019  1
  S  S143  1  0.63434828  0.47777388  0.49363739  1
  S  S144  1  0.85610488  0.67138599  0.55262960  1
  S  S145  1  0.74127605  0.85155632  0.63484818  1
  S  S146  1  0.83312039  0.13651272  0.54700910  1
  S  S147  1  0.25263715  0.14193163  0.56294152  1
  S  S148  1  0.31825695  0.85064922  0.63521422  1
  S  S149  1  0.26343053  0.66687552  0.55642924  1
  S  S150  1  0.04876006  0.44454993  0.55175054  1
  S  S151  1  0.01887858  0.94016266  0.58229306  1
  S  S152  1  0.53101043  0.06575331  0.63557544  1
  S  S153  1  0.04444944  0.59847425  0.62115008  1
  S  S154  1  0.53576326  0.39216895  0.56922940  1
  S  S155  1  0.09267783  0.97779634  0.50633745  1
  S  S156  1  0.83288174  0.65024943  0.70362979  1
  S  S157  1  0.76097263  0.34016342  0.63353994  1
  S  S158  1  0.75472013  0.84053433  0.78220712  1
  S  S159  1  0.82636349  0.15573784  0.71787277  1
  S  S160  1  0.25470805  0.15966145  0.71790964  1
  S  S161  1  0.32663020  0.84460545  0.78237152  1
  S  S162  1  0.33207710  0.35252074  0.63816514  1
  S  S163  1  0.25808387  0.65008188  0.70918332  1
  S  S164  1  0.55757379  0.56054679  0.63538473  1
  S  S165  1  0.04342163  0.43647601  0.70803135  1
  S  S166  1  0.04337027  0.94422594  0.71562049  1
  S  S167  1  0.54367012  0.05612807  0.78451304  1
  S  S168  1  0.02756532  0.60437049  0.77401403  1
  S  S169  1  0.52751871  0.39599138  0.72606740  1
  S  S170  1  0.53379034  0.90233216  0.70256330  1
  S  S171  1  0.04068952  0.11586958  0.65047768  1
  S  S172  1  0.83200597  0.64773551  0.86197220  1
  S  S173  1  0.75788557  0.35028081  0.79090223  1
  S  S174  1  0.75310006  0.85819497  0.93716356  1
  S  S175  1  0.81920176  0.15031934  0.86506637  1
  S  S176  1  0.24225367  0.14864504  0.86531742  1
  S  S177  1  0.33358792  0.86334592  0.95304763  1
  S  S178  1  0.33251457  0.35023112  0.79647222  1
  S  S179  1  0.26112868  0.66050964  0.86669506  1
  S  S180  1  0.54332229  0.56383534  0.79203732  1
  S  S181  1  0.05772374  0.44008203  0.86465194  1
  S  S182  1  0.03119351  0.93470708  0.86448444  1
  S  S183  1  0.51864521  0.05973785  0.91777185  1
  S  S184  1  0.03602324  0.60825025  0.93091624  1
  S  S185  1  0.54455962  0.40197648  0.87892558  1
  S  S186  1  0.54118580  0.88510783  0.84971524  1
  S  S187  1  0.03382228  0.09816794  0.79761251  1
  S  S188  1  0.76333156  0.33316663  0.94367685  1
  S  S189  1  0.35605002  0.32860391  0.94734532  1
  S  S190  1  0.54937302  0.55537288  0.94845310  1
  S  S191  1  0.59290404  0.02205394  0.99378667  1
