# generated using pymatgen
data_Li3PS4
_symmetry_space_group_name_H-M   'P 1'
_cell_length_a   8.10679100
_cell_length_b   14.48087000
_cell_length_c   45.85276012
_cell_angle_alpha   90.00000000
_cell_angle_beta   90.00000000
_cell_angle_gamma   90.00000000
_symmetry_Int_Tables_number   1
_chemical_formula_structural   Li3PS4
_chemical_formula_sum   'Li96 P32 S128'
_cell_volume   5382.81079464
_cell_formula_units_Z   32
loop_
 _symmetry_equiv_pos_site_id
 _symmetry_equiv_pos_as_xyz
  1  'x, y, z'
loop_
 _atom_site_type_symbol
 _atom_site_label
 _atom_site_symmetry_multiplicity
 _atom_site_fract_x
 _atom_site_fract_y
 _atom_site_fract_z
 _atom_site_occupancy
  Li  Li0  1  0.88621275  0.74400162  0.05866692  1
  Li  Li1  1  0.93862157  0.05978380  0.07225634  1
  Li  Li2  1  0.94744095  0.51994612  0.09448362  1
  Li  Li3  1  0.81282166  0.34040305  0.05349997  1
  Li  Li4  1  0.41336209  0.27835711  0.01868751  1
  Li  Li5  1  0.39022803  0.52387723  0.09716812  1
  Li  Li6  1  0.38562859  0.06500740  0.08512617  1
  Li  Li7  1  0.44806119  0.75761524  0.05995646  1
  Li  Li8  1  0.34806285  0.49402330  0.00938453  1
  Li  Li9  1  0.43555752  0.99985233  0.02194548  1
  Li  Li10  1  0.87493220  0.55786757  0.17770012  1
  Li  Li11  1  0.94328612  0.86478896  0.19440075  1
  Li  Li12  1  0.94708249  0.33240482  0.22124749  1
  Li  Li13  1  0.88542514  0.09274998  0.15472259  1
  Li  Li14  1  0.46036882  0.10067122  0.15965956  1
  Li  Li15  1  0.38086749  0.32212386  0.21986192  1
  Li  Li16  1  0.38000240  0.86362951  0.19925414  1
  Li  Li17  1  0.44584478  0.55096311  0.18408691  1
  Li  Li18  1  0.97531563  0.81122294  0.11952173  1
  Li  Li19  1  0.98899183  0.29076236  0.13291997  1
  Li  Li20  1  0.46834958  0.32321055  0.11711353  1
  Li  Li21  1  0.45782910  0.79819741  0.13488270  1
  Li  Li22  1  0.87579813  0.36572475  0.30148974  1
  Li  Li23  1  0.94059109  0.67734479  0.31520753  1
  Li  Li24  1  0.95687820  0.14269353  0.34254544  1
  Li  Li25  1  0.88464194  0.91069884  0.27727918  1
  Li  Li26  1  0.45066683  0.89861659  0.27969856  1
  Li  Li27  1  0.38879512  0.13464182  0.34848728  1
  Li  Li28  1  0.37482683  0.67272134  0.32291777  1
  Li  Li29  1  0.44666782  0.36415314  0.30583670  1
  Li  Li30  1  0.96837074  0.62113306  0.24108887  1
  Li  Li31  1  0.85448555  0.13463809  0.24295873  1
  Li  Li32  1  0.35661094  0.09978698  0.25773062  1
  Li  Li33  1  0.46328825  0.60654135  0.25860504  1
  Li  Li34  1  0.86523486  0.18292923  0.42283893  1
  Li  Li35  1  0.92823915  0.49273861  0.43982333  1
  Li  Li36  1  0.15724607  0.93761682  0.42919075  1
  Li  Li37  1  0.89702726  0.72675923  0.39643336  1
  Li  Li38  1  0.45387577  0.71388394  0.40164251  1
  Li  Li39  1  0.45382781  0.78989707  0.47950598  1
  Li  Li40  1  0.36652126  0.48383160  0.44811847  1
  Li  Li41  1  0.43579459  0.17843578  0.43175092  1
  Li  Li42  1  0.96877712  0.43418355  0.36416154  1
  Li  Li43  1  0.86519112  0.94669243  0.36780533  1
  Li  Li44  1  0.41363814  0.92026911  0.37567710  1
  Li  Li45  1  0.45961776  0.42138357  0.38311864  1
  Li  Li46  1  0.94247918  0.25304772  0.48474511  1
  Li  Li47  1  0.88486520  0.76732271  0.48533652  1
  Li  Li48  1  0.08318143  0.77997151  0.56366394  1
  Li  Li49  1  0.03373718  0.47120728  0.57357454  1
  Li  Li50  1  0.02897534  0.00690906  0.59448488  1
  Li  Li51  1  0.15996789  0.18542987  0.55350952  1
  Li  Li52  1  0.55723601  0.24598823  0.51868136  1
  Li  Li53  1  0.58526657  0.00279612  0.59862150  1
  Li  Li54  1  0.58697284  0.45820585  0.58583550  1
  Li  Li55  1  0.52337748  0.77204016  0.55770354  1
  Li  Li56  1  0.62489398  0.03396971  0.50971239  1
  Li  Li57  1  0.53810288  0.52423700  0.52309964  1
  Li  Li58  1  0.09389543  0.97401054  0.67863578  1
  Li  Li59  1  0.02355701  0.65841503  0.69875366  1
  Li  Li60  1  0.02894446  0.19397902  0.72152165  1
  Li  Li61  1  0.09011183  0.43453892  0.65414681  1
  Li  Li62  1  0.51253949  0.42300746  0.66012674  1
  Li  Li63  1  0.59514489  0.20048190  0.71892729  1
  Li  Li64  1  0.58526667  0.66143937  0.69502646  1
  Li  Li65  1  0.52341677  0.97024243  0.68297552  1
  Li  Li66  1  0.09483578  0.72445358  0.63532766  1
  Li  Li67  1  0.98551314  0.23805815  0.63245514  1
  Li  Li68  1  0.50516239  0.20247951  0.61667481  1
  Li  Li69  1  0.60399759  0.71679162  0.62162402  1
  Li  Li70  1  0.09398946  0.16023833  0.80159717  1
  Li  Li71  1  0.03381933  0.84595922  0.81375097  1
  Li  Li72  1  0.01793634  0.38222422  0.84298735  1
  Li  Li73  1  0.09128993  0.61277021  0.77743445  1
  Li  Li74  1  0.52473109  0.62789546  0.77833584  1
  Li  Li75  1  0.58484529  0.38860021  0.84805815  1
  Li  Li76  1  0.59769409  0.85111922  0.82185156  1
  Li  Li77  1  0.52568776  0.16046306  0.80494723  1
  Li  Li78  1  0.00140900  0.90534509  0.74042425  1
  Li  Li79  1  0.11751831  0.38905722  0.74317645  1
  Li  Li80  1  0.61596526  0.42529287  0.75733737  1
  Li  Li81  1  0.51103214  0.91745278  0.75763657  1
  Li  Li82  1  0.10761106  0.34168025  0.92236202  1
  Li  Li83  1  0.04313552  0.03123126  0.93878332  1
  Li  Li84  1  0.81594649  0.58569783  0.92857995  1
  Li  Li85  1  0.07413773  0.79547980  0.89453123  1
  Li  Li86  1  0.51963214  0.80911923  0.90048627  1
  Li  Li87  1  0.52251811  0.73388265  0.97918915  1
  Li  Li88  1  0.60402891  0.03749678  0.94729142  1
  Li  Li89  1  0.54007722  0.34553349  0.93167076  1
  Li  Li90  1  0.00302187  0.08957254  0.86373175  1
  Li  Li91  1  0.10779001  0.57736630  0.86716231  1
  Li  Li92  1  0.55884940  0.60137516  0.87476433  1
  Li  Li93  1  0.51098264  0.10286218  0.88221067  1
  Li  Li94  1  0.02969244  0.27123862  0.98391515  1
  Li  Li95  1  0.09359075  0.76017296  0.98428144  1
  P  P96  1  0.15755203  0.87073295  0.04236796  1
  P  P97  1  0.67032113  0.94458697  0.09945459  1
  P  P98  1  0.65064516  0.51162181  0.05046429  1
  P  P99  1  0.16781018  0.30413001  0.07099681  1
  P  P100  1  0.16734602  0.66503105  0.15831855  1
  P  P101  1  0.66654942  0.75030177  0.21973698  1
  P  P102  1  0.67169182  0.31305959  0.17792428  1
  P  P103  1  0.15720465  0.10834963  0.19797874  1
  P  P104  1  0.16511084  0.47699033  0.28087586  1
  P  P105  1  0.66650754  0.56175462  0.34179956  1
  P  P106  1  0.66142028  0.12180393  0.30330414  1
  P  P107  1  0.16546626  0.91868638  0.32107534  1
  P  P108  1  0.16050473  0.29118897  0.40495708  1
  P  P109  1  0.66434601  0.37328469  0.46574921  1
  P  P110  1  0.66694477  0.94158157  0.42831129  1
  P  P111  1  0.16577604  0.73396109  0.44160401  1
  P  P112  1  0.80995509  0.65699641  0.54366557  1
  P  P113  1  0.31044068  0.58237025  0.60014822  1
  P  P114  1  0.32508223  0.01452461  0.55117549  1
  P  P115  1  0.80676334  0.22206417  0.57103606  1
  P  P116  1  0.81165890  0.86048467  0.65858379  1
  P  P117  1  0.30119083  0.77504511  0.71941885  1
  P  P118  1  0.30022947  0.21248746  0.67763979  1
  P  P119  1  0.81699410  0.41659814  0.69778819  1
  P  P120  1  0.80725752  0.04765782  0.78044787  1
  P  P121  1  0.30677092  0.96191895  0.84086983  1
  P  P122  1  0.31338483  0.40301385  0.80309627  1
  P  P123  1  0.80717425  0.60525016  0.82034611  1
  P  P124  1  0.81285140  0.23224053  0.90465129  1
  P  P125  1  0.30814085  0.15110288  0.96483642  1
  P  P126  1  0.30730786  0.58248484  0.92769364  1
  P  P127  1  0.80940595  0.78895298  0.94050839  1
  S  S128  1  0.35929859  0.83942239  0.01569223  1
  S  S129  1  0.43952583  0.59107805  0.04957976  1
  S  S130  1  0.38587464  0.23236663  0.07200576  1
  S  S131  1  0.96330364  0.22737653  0.08186290  1
  S  S132  1  0.86649066  0.58059702  0.04556537  1
  S  S133  1  0.94321462  0.85164219  0.02108870  1
  S  S134  1  0.67121193  0.80220422  0.09329631  1
  S  S135  1  0.18776149  0.00858479  0.05181859  1
  S  S136  1  0.17865818  0.40369478  0.10379175  1
  S  S137  1  0.62714617  0.41388554  0.01758818  1
  S  S138  1  0.16865290  0.78235950  0.07772763  1
  S  S139  1  0.65206431  0.02381593  0.06253446  1
  S  S140  1  0.66903046  0.44644358  0.09105056  1
  S  S141  1  0.13072255  0.36222801  0.03055469  1
  S  S142  1  0.38695425  0.63251563  0.13819204  1
  S  S143  1  0.46969525  0.96928525  0.12577544  1
  S  S144  1  0.45836443  0.38531003  0.17056468  1
  S  S145  1  0.36762326  0.03406466  0.20644602  1
  S  S146  1  0.94291383  0.03389692  0.20330366  1
  S  S147  1  0.88463276  0.38892669  0.17239712  1
  S  S148  1  0.89363780  0.97460630  0.11832609  1
  S  S149  1  0.95959132  0.64050680  0.13384519  1
  S  S150  1  0.67399488  0.60710742  0.21508366  1
  S  S151  1  0.17291693  0.80778537  0.16395532  1
  S  S152  1  0.15346972  0.21062759  0.22984766  1
  S  S153  1  0.67551187  0.21231859  0.14561553  1
  S  S154  1  0.15680908  0.58955204  0.19611112  1
  S  S155  1  0.65849612  0.82341125  0.18167627  1
  S  S156  1  0.66624923  0.26380062  0.21991129  1
  S  S157  1  0.16918863  0.15680495  0.15599802  1
  S  S158  1  0.37903109  0.44181271  0.25926726  1
  S  S159  1  0.45558393  0.77516489  0.24329123  1
  S  S160  1  0.44497870  0.19494819  0.29935689  1
  S  S161  1  0.37658612  0.84286377  0.32823566  1
  S  S162  1  0.94908833  0.84613632  0.32624712  1
  S  S163  1  0.87020624  0.19725343  0.29436035  1
  S  S164  1  0.88261360  0.78449867  0.24087118  1
  S  S165  1  0.95193404  0.45372148  0.25789480  1
  S  S166  1  0.67234181  0.41874205  0.33757560  1
  S  S167  1  0.17433849  0.61998117  0.28568466  1
  S  S168  1  0.16301923  0.01985698  0.35346336  1
  S  S169  1  0.65454541  0.02159851  0.27085998  1
  S  S170  1  0.15936967  0.40283414  0.31892577  1
  S  S171  1  0.65394925  0.63584702  0.30380609  1
  S  S172  1  0.67334459  0.07383432  0.34540623  1
  S  S173  1  0.16998220  0.96745046  0.27916768  1
  S  S174  1  0.38025388  0.25753156  0.38523638  1
  S  S175  1  0.45870746  0.58702589  0.36622813  1
  S  S176  1  0.45373125  0.01454100  0.41992291  1
  S  S177  1  0.37395646  0.65568615  0.44895469  1
  S  S178  1  0.94788453  0.66258013  0.44415526  1
  S  S179  1  0.87518257  0.01619540  0.41796352  1
  S  S180  1  0.88491647  0.59679985  0.36181398  1
  S  S181  1  0.95609629  0.26598293  0.37967558  1
  S  S182  1  0.66930295  0.22897485  0.46040039  1
  S  S183  1  0.16518413  0.43372417  0.41014806  1
  S  S184  1  0.16644681  0.83947643  0.47138124  1
  S  S185  1  0.66400953  0.83623380  0.39703299  1
  S  S186  1  0.14671935  0.21552708  0.44284215  1
  S  S187  1  0.64241769  0.44789566  0.42791570  1
  S  S188  1  0.67577409  0.90044648  0.47109567  1
  S  S189  1  0.17918377  0.78961889  0.39970593  1
  S  S190  1  0.45810118  0.39447399  0.49147159  1
  S  S191  1  0.87773844  0.41158618  0.48520092  1
  S  S192  1  0.61256718  0.68404944  0.51549436  1
  S  S193  1  0.53972171  0.93816253  0.55063914  1
  S  S194  1  0.58746865  0.29257898  0.57174377  1
  S  S195  1  0.00997666  0.30064394  0.58132032  1
  S  S196  1  0.11274306  0.94234524  0.54645854  1
  S  S197  1  0.02724354  0.67928176  0.52369796  1
  S  S198  1  0.31845241  0.72458199  0.59401638  1
  S  S199  1  0.78393535  0.51885802  0.55309631  1
  S  S200  1  0.79761519  0.12364917  0.60419448  1
  S  S201  1  0.34471373  0.11134617  0.51787354  1
  S  S202  1  0.79533678  0.74516531  0.57895591  1
  S  S203  1  0.32158071  0.50228252  0.56336460  1
  S  S204  1  0.30513878  0.08113364  0.59150850  1
  S  S205  1  0.84529373  0.16200818  0.53091418  1
  S  S206  1  0.59336933  0.88618848  0.63753602  1
  S  S207  1  0.51100441  0.55394049  0.62631082  1
  S  S208  1  0.51039493  0.13740392  0.66999703  1
  S  S209  1  0.60802033  0.49188658  0.70634154  1
  S  S210  1  0.03277702  0.48971960  0.70324045  1
  S  S211  1  0.08379506  0.14008756  0.67233752  1
  S  S212  1  0.08697886  0.55839158  0.61951067  1
  S  S213  1  0.02124167  0.89021075  0.63484950  1
  S  S214  1  0.29555622  0.91821306  0.71472113  1
  S  S215  1  0.81641706  0.71796293  0.66457261  1
  S  S216  1  0.81925685  0.31394346  0.72956530  1
  S  S217  1  0.29885808  0.31326800  0.64528268  1
  S  S218  1  0.81308762  0.93712273  0.69621279  1
  S  S219  1  0.30111180  0.70164041  0.68138326  1
  S  S220  1  0.31033928  0.26139171  0.71963377  1
  S  S221  1  0.80513944  0.36915993  0.65570345  1
  S  S222  1  0.59410428  0.08251420  0.75857266  1
  S  S223  1  0.51826986  0.74844180  0.74084284  1
  S  S224  1  0.52910758  0.32940233  0.79898005  1
  S  S225  1  0.59596331  0.68098742  0.82737166  1
  S  S226  1  0.02330014  0.67795223  0.82586819  1
  S  S227  1  0.10328341  0.32831880  0.79448604  1
  S  S228  1  0.09129660  0.74324495  0.74282978  1
  S  S229  1  0.02157682  0.07153330  0.75784788  1
  S  S230  1  0.30069068  0.10498140  0.83678194  1
  S  S231  1  0.79784836  0.90459211  0.78500117  1
  S  S232  1  0.80980618  0.50411669  0.85276508  1
  S  S233  1  0.32055262  0.50286286  0.77054132  1
  S  S234  1  0.81150985  0.12151869  0.81856930  1
  S  S235  1  0.32051369  0.88837776  0.80277247  1
  S  S236  1  0.30197718  0.45094809  0.84521708  1
  S  S237  1  0.80424189  0.55678170  0.77841973  1
  S  S238  1  0.59329420  0.26654658  0.88497784  1
  S  S239  1  0.51380659  0.93647313  0.86545585  1
  S  S240  1  0.52028095  0.50907231  0.91957968  1
  S  S241  1  0.60055765  0.86676415  0.94799012  1
  S  S242  1  0.02687884  0.86095151  0.94224678  1
  S  S243  1  0.09863171  0.50786905  0.91748732  1
  S  S244  1  0.08745827  0.92685409  0.86051724  1
  S  S245  1  0.01743386  0.25716140  0.87937094  1
  S  S246  1  0.30340709  0.29534869  0.95967333  1
  S  S247  1  0.80674501  0.08977833  0.90963000  1
  S  S248  1  0.81097087  0.68442766  0.97062489  1
  S  S249  1  0.31017169  0.68690536  0.89610542  1
  S  S250  1  0.82727339  0.30823695  0.94247913  1
  S  S251  1  0.33011302  0.07614842  0.92703809  1
  S  S252  1  0.29858595  0.62510312  0.97032294  1
  S  S253  1  0.79361896  0.73241680  0.89878152  1
  S  S254  1  0.51457970  0.12978184  0.99051594  1
  S  S255  1  0.09440550  0.11272181  0.98414982  1
