# generated using pymatgen
data_Li3PS4
_symmetry_space_group_name_H-M   'P 1'
_cell_length_a   8.10679100
_cell_length_b   14.48087000
_cell_length_c   45.86730083
_cell_angle_alpha   90.00000000
_cell_angle_beta   90.00000000
_cell_angle_gamma   90.00000000
_symmetry_Int_Tables_number   1
_chemical_formula_structural   Li3PS4
_chemical_formula_sum   'Li96 P32 S128'
_cell_volume   5384.51777857
_cell_formula_units_Z   32
loop_
 _symmetry_equiv_pos_site_id
 _symmetry_equiv_pos_as_xyz
  1  'x, y, z'
loop_
 _atom_site_type_symbol
 _atom_site_label
 _atom_site_symmetry_multiplicity
 _atom_site_fract_x
 _atom_site_fract_y
 _atom_site_fract_z
 _atom_site_occupancy
  Li  Li0  1  0.88466455  0.70552850  0.06307191  1
  Li  Li1  1  0.93259884  0.01271778  0.07353039  1
  Li  Li2  1  0.80501706  0.29725597  0.05378381  1
  Li  Li3  1  0.40947155  0.24275667  0.01939566  1
  Li  Li4  1  0.37846768  0.02624093  0.08492867  1
  Li  Li5  1  0.44542037  0.71365449  0.05731191  1
  Li  Li6  1  0.35306043  0.45653429  0.00818240  1
  Li  Li7  1  0.42768184  0.96167714  0.02229730  1
  Li  Li8  1  0.87511148  0.51233402  0.17799929  1
  Li  Li9  1  0.94787101  0.82750024  0.19837790  1
  Li  Li10  1  0.94208444  0.47692525  0.09442544  1
  Li  Li11  1  0.87866347  0.05015252  0.15462210  1
  Li  Li12  1  0.45183298  0.06074200  0.15951103  1
  Li  Li13  1  0.38320319  0.48149581  0.09825234  1
  Li  Li14  1  0.38494841  0.82367932  0.19437185  1
  Li  Li15  1  0.44667190  0.51627047  0.18247569  1
  Li  Li16  1  0.87404849  0.76061291  0.13481052  1
  Li  Li17  1  0.97764682  0.24595101  0.13256730  1
  Li  Li18  1  0.45896772  0.28091903  0.11767391  1
  Li  Li19  1  0.36400817  0.76816895  0.12040515  1
  Li  Li20  1  0.87558323  0.32869378  0.30125646  1
  Li  Li21  1  0.93757972  0.64137417  0.31443372  1
  Li  Li22  1  0.94418921  0.29214664  0.22107730  1
  Li  Li23  1  0.88399203  0.87444656  0.27725955  1
  Li  Li24  1  0.44796750  0.85926389  0.27838064  1
  Li  Li25  1  0.37631014  0.28518759  0.22048195  1
  Li  Li26  1  0.37272963  0.63520086  0.32266149  1
  Li  Li27  1  0.44402777  0.32635981  0.30591914  1
  Li  Li28  1  0.96859104  0.58076574  0.24050449  1
  Li  Li29  1  0.85367875  0.09653512  0.24364265  1
  Li  Li30  1  0.35792540  0.06012665  0.25738209  1
  Li  Li31  1  0.46175933  0.57084249  0.25813417  1
  Li  Li32  1  0.86545537  0.14482435  0.42189771  1
  Li  Li33  1  0.93349072  0.45384114  0.43961045  1
  Li  Li34  1  0.95793803  0.10533109  0.34226174  1
  Li  Li35  1  0.90008124  0.69063038  0.39525529  1
  Li  Li36  1  0.45751175  0.67656501  0.40087590  1
  Li  Li37  1  0.38952335  0.09545026  0.34826408  1
  Li  Li38  1  0.36910383  0.44547615  0.44786973  1
  Li  Li39  1  0.43651920  0.14165196  0.43149122  1
  Li  Li40  1  0.96871657  0.39752922  0.36412921  1
  Li  Li41  1  0.86458071  0.91031152  0.36713385  1
  Li  Li42  1  0.41169901  0.88098916  0.37552554  1
  Li  Li43  1  0.46330925  0.38230675  0.38306723  1
  Li  Li44  1  0.15681106  0.90004570  0.42845045  1
  Li  Li45  1  0.45637531  0.75101447  0.47852645  1
  Li  Li46  1  0.94920394  0.21246235  0.48470164  1
  Li  Li47  1  0.88372528  0.72934999  0.48436109  1
  Li  Li48  1  0.08328284  0.74600461  0.56312208  1
  Li  Li49  1  0.03769285  0.43363428  0.57388132  1
  Li  Li50  1  0.27033764  0.17806481  0.56456609  1
  Li  Li51  1  0.56297738  0.21076008  0.51885253  1
  Li  Li52  1  0.59375244  0.42304792  0.58506380  1
  Li  Li53  1  0.52291216  0.73670392  0.55675638  1
  Li  Li54  1  0.61155773  0.00014494  0.50912953  1
  Li  Li55  1  0.54379828  0.48708692  0.52194495  1
  Li  Li56  1  0.10010812  0.93764803  0.67863253  1
  Li  Li57  1  0.02916962  0.62323582  0.69845034  1
  Li  Li58  1  0.03178262  0.97244671  0.59495466  1
  Li  Li59  1  0.09457557  0.39769496  0.65465683  1
  Li  Li60  1  0.52079362  0.38840956  0.65950454  1
  Li  Li61  1  0.59366830  0.96238551  0.59753122  1
  Li  Li62  1  0.59151200  0.62627158  0.69467877  1
  Li  Li63  1  0.53083664  0.93418071  0.68275139  1
  Li  Li64  1  0.10260350  0.68961358  0.63479823  1
  Li  Li65  1  0.99434163  0.20065200  0.63166067  1
  Li  Li66  1  0.52710136  0.16509600  0.61981003  1
  Li  Li67  1  0.60571937  0.68179280  0.62059191  1
  Li  Li68  1  0.10052065  0.12330190  0.80157260  1
  Li  Li69  1  0.04001276  0.81009991  0.81443128  1
  Li  Li70  1  0.03086022  0.15887925  0.72133967  1
  Li  Li71  1  0.09306419  0.57730343  0.77729357  1
  Li  Li72  1  0.52749436  0.59131050  0.77814441  1
  Li  Li73  1  0.59695580  0.16604021  0.72001884  1
  Li  Li74  1  0.60436923  0.81548394  0.82290517  1
  Li  Li75  1  0.53145505  0.12473876  0.80559950  1
  Li  Li76  1  0.00955304  0.87073497  0.74094910  1
  Li  Li77  1  0.11888354  0.35362213  0.74330773  1
  Li  Li78  1  0.61651822  0.38957877  0.75729362  1
  Li  Li79  1  0.51597257  0.88087297  0.75826208  1
  Li  Li80  1  0.11046806  0.30538643  0.92272689  1
  Li  Li81  1  0.04810950  0.99409763  0.93909595  1
  Li  Li82  1  0.01804206  0.34550056  0.84314879  1
  Li  Li83  1  0.07629302  0.76052633  0.89523872  1
  Li  Li84  1  0.51729129  0.77379611  0.90160971  1
  Li  Li85  1  0.58511924  0.35274541  0.84821161  1
  Li  Li86  1  0.60877771  0.00365796  0.94821029  1
  Li  Li87  1  0.54044832  0.30906178  0.93170478  1
  Li  Li88  1  0.00992988  0.05382527  0.86412152  1
  Li  Li89  1  0.10679629  0.54115181  0.86698653  1
  Li  Li90  1  0.55209294  0.56430294  0.87355122  1
  Li  Li91  1  0.51721551  0.06583941  0.88294025  1
  Li  Li92  1  0.81281958  0.54923732  0.92750604  1
  Li  Li93  1  0.52686440  0.69641916  0.97888738  1
  Li  Li94  1  0.03017755  0.23349982  0.98440791  1
  Li  Li95  1  0.09346294  0.72059568  0.98448233  1
  P  P96  1  0.15742057  0.82825532  0.04282910  1
  P  P97  1  0.64540164  0.47070623  0.05110260  1
  P  P98  1  0.16111958  0.26234372  0.07127682  1
  P  P99  1  0.15823625  0.62512290  0.15809156  1
  P  P100  1  0.65603608  0.90303312  0.09984274  1
  P  P101  1  0.66704178  0.27287686  0.17811210  1
  P  P102  1  0.15264159  0.06907161  0.19789426  1
  P  P103  1  0.16462935  0.43988419  0.28065712  1
  P  P104  1  0.67005201  0.71134025  0.21922216  1
  P  P105  1  0.66015847  0.08449776  0.30317919  1
  P  P106  1  0.16544059  0.88125881  0.32065768  1
  P  P107  1  0.16161310  0.25304083  0.40449450  1
  P  P108  1  0.66524637  0.52473373  0.34137355  1
  P  P109  1  0.66676912  0.90429469  0.42778321  1
  P  P110  1  0.16710973  0.69646829  0.44088371  1
  P  P111  1  0.66811840  0.33400926  0.46535593  1
  P  P112  1  0.81268309  0.62136765  0.54297632  1
  P  P113  1  0.31950000  0.98111565  0.55236186  1
  P  P114  1  0.80866954  0.18161104  0.57004178  1
  P  P115  1  0.81694818  0.82380862  0.65841795  1
  P  P116  1  0.31396244  0.54544581  0.59974227  1
  P  P117  1  0.30537251  0.17687076  0.67800559  1
  P  P118  1  0.82047263  0.38074030  0.69785135  1
  P  P119  1  0.81200953  0.01175789  0.78076279  1
  P  P120  1  0.30641049  0.73947641  0.71936997  1
  P  P121  1  0.31435842  0.36699171  0.80313597  1
  P  P122  1  0.80881303  0.56912695  0.82020849  1
  P  P123  1  0.81521064  0.19622916  0.90482266  1
  P  P124  1  0.31156462  0.92627438  0.84144209  1
  P  P125  1  0.30756927  0.54583838  0.92730965  1
  P  P126  1  0.81066375  0.75290395  0.94067392  1
  P  P127  1  0.31043299  0.11437748  0.96550448  1
  S  S128  1  0.35600720  0.80100780  0.01486723  1
  S  S129  1  0.43095008  0.54750591  0.05035064  1
  S  S130  1  0.38058183  0.19189634  0.07212887  1
  S  S131  1  0.95790668  0.18349913  0.08153988  1
  S  S132  1  0.85775377  0.54265759  0.04636781  1
  S  S133  1  0.94131621  0.80494418  0.02266676  1
  S  S134  1  0.18128013  0.96654394  0.05212911  1
  S  S135  1  0.62529255  0.37382013  0.01776180  1
  S  S136  1  0.17193775  0.74046937  0.07819819  1
  S  S137  1  0.64512243  0.98250889  0.06294278  1
  S  S138  1  0.12378438  0.32277377  0.03124828  1
  S  S139  1  0.37603083  0.59889044  0.13691367  1
  S  S140  1  0.45409489  0.93095528  0.12567128  1
  S  S141  1  0.45598533  0.34725186  0.17077331  1
  S  S142  1  0.36161388  0.99346996  0.20621864  1
  S  S143  1  0.93709094  0.99594806  0.20351853  1
  S  S144  1  0.88235657  0.34593508  0.17211120  1
  S  S145  1  0.87870476  0.92739237  0.11946038  1
  S  S146  1  0.94858813  0.59523397  0.13433570  1
  S  S147  1  0.64951604  0.76079156  0.09364276  1
  S  S148  1  0.15367136  0.76773386  0.16383349  1
  S  S149  1  0.17059029  0.36045445  0.10451498  1
  S  S150  1  0.66807059  0.17127504  0.14596100  1
  S  S151  1  0.15661731  0.54925826  0.19579617  1
  S  S152  1  0.66999723  0.78458426  0.18113702  1
  S  S153  1  0.66359811  0.40397847  0.09137215  1
  S  S154  1  0.16254042  0.11640016  0.15577299  1
  S  S155  1  0.37919711  0.40502288  0.25929291  1
  S  S156  1  0.45347165  0.73863745  0.24071996  1
  S  S157  1  0.44315907  0.15688934  0.29912568  1
  S  S158  1  0.37692653  0.80559059  0.32748132  1
  S  S159  1  0.94868216  0.80912184  0.32597849  1
  S  S160  1  0.86885326  0.16002127  0.29423375  1
  S  S161  1  0.88018636  0.74309456  0.24259189  1
  S  S162  1  0.95215238  0.41550381  0.25751973  1
  S  S163  1  0.67450862  0.56815260  0.21451077  1
  S  S164  1  0.17307080  0.58291341  0.28532020  1
  S  S165  1  0.15159413  0.17147250  0.22973247  1
  S  S166  1  0.65313053  0.98400214  0.27076319  1
  S  S167  1  0.15775240  0.36612805  0.31876964  1
  S  S168  1  0.65143909  0.59892649  0.30341455  1
  S  S169  1  0.66156408  0.22501784  0.22021534  1
  S  S170  1  0.16883238  0.93018261  0.27876188  1
  S  S171  1  0.38090219  0.21917953  0.38465646  1
  S  S172  1  0.45812235  0.54937291  0.36597587  1
  S  S173  1  0.45374873  0.97747939  0.41943654  1
  S  S174  1  0.37499902  0.61767589  0.44808378  1
  S  S175  1  0.94917708  0.62498846  0.44303089  1
  S  S176  1  0.87549412  0.97862102  0.41747288  1
  S  S177  1  0.88435473  0.55988974  0.36110612  1
  S  S178  1  0.95713816  0.22895192  0.37913020  1
  S  S179  1  0.67168759  0.38169335  0.33716500  1
  S  S180  1  0.16781891  0.39544502  0.40989068  1
  S  S181  1  0.16271314  0.98207341  0.35310435  1
  S  S182  1  0.66460125  0.79922520  0.39637625  1
  S  S183  1  0.14745169  0.17658998  0.44217451  1
  S  S184  1  0.64552587  0.40966233  0.42773191  1
  S  S185  1  0.67361398  0.03688291  0.34527650  1
  S  S186  1  0.18155782  0.75247088  0.39903561  1
  S  S187  1  0.46206004  0.35588527  0.49121636  1
  S  S188  1  0.88156532  0.37165904  0.48488498  1
  S  S189  1  0.67197118  0.19024108  0.45956713  1
  S  S190  1  0.16789190  0.80179945  0.47067873  1
  S  S191  1  0.67530944  0.86335850  0.47050865  1
  S  S192  1  0.61418345  0.64730471  0.51492569  1
  S  S193  1  0.53182363  0.90261132  0.54937185  1
  S  S194  1  0.59010610  0.25637095  0.57364410  1
  S  S195  1  0.01219407  0.26148259  0.57987133  1
  S  S196  1  0.10714908  0.90989225  0.54730020  1
  S  S197  1  0.02904471  0.64546124  0.52295967  1
  S  S198  1  0.79039078  0.48279290  0.55221636  1
  S  S199  1  0.33584458  0.08409050  0.52105830  1
  S  S200  1  0.79612462  0.70923303  0.57828296  1
  S  S201  1  0.32546149  0.46456392  0.56306701  1
  S  S202  1  0.82408906  0.12596021  0.52936646  1
  S  S203  1  0.59840329  0.84995762  0.63742048  1
  S  S204  1  0.51635178  0.51856259  0.62561080  1
  S  S205  1  0.51715552  0.10203321  0.67128435  1
  S  S206  1  0.61129825  0.45617088  0.70606942  1
  S  S207  1  0.03587831  0.45412833  0.70332060  1
  S  S208  1  0.08991300  0.10387600  0.67239495  1
  S  S209  1  0.09205171  0.52128133  0.61958050  1
  S  S210  1  0.02622384  0.85460057  0.63475450  1
  S  S211  1  0.32002309  0.68755157  0.59317663  1
  S  S212  1  0.82223821  0.68128964  0.66404429  1
  S  S213  1  0.80215721  0.08497009  0.60377957  1
  S  S214  1  0.30546911  0.27688277  0.64536785  1
  S  S215  1  0.81868144  0.89988372  0.69614120  1
  S  S216  1  0.30653607  0.66606344  0.68132116  1
  S  S217  1  0.31519591  0.03937515  0.59430707  1
  S  S218  1  0.81048700  0.33214524  0.65584888  1
  S  S219  1  0.59775524  0.04635405  0.75920972  1
  S  S220  1  0.52288162  0.71228722  0.74087616  1
  S  S221  1  0.53051104  0.29368132  0.79903836  1
  S  S222  1  0.59773364  0.64516779  0.82700414  1
  S  S223  1  0.02489454  0.64174890  0.82582361  1
  S  S224  1  0.10472308  0.29192549  0.79461537  1
  S  S225  1  0.09588785  0.70797207  0.74265809  1
  S  S226  1  0.02488787  0.03624940  0.75776433  1
  S  S227  1  0.30227510  0.88271400  0.71474190  1
  S  S228  1  0.80398156  0.86873831  0.78546848  1
  S  S229  1  0.82220603  0.27868572  0.72979951  1
  S  S230  1  0.32183023  0.46684173  0.77057875  1
  S  S231  1  0.81783085  0.08553044  0.81886928  1
  S  S232  1  0.32568834  0.85231317  0.80343720  1
  S  S233  1  0.31229524  0.22687161  0.71983971  1
  S  S234  1  0.80656685  0.52054299  0.77829896  1
  S  S235  1  0.59571480  0.23010587  0.88503561  1
  S  S236  1  0.51794955  0.90046663  0.86614052  1
  S  S237  1  0.51964736  0.47218926  0.91858793  1
  S  S238  1  0.60322919  0.83132461  0.94878839  1
  S  S239  1  0.02903175  0.82402313  0.94314055  1
  S  S240  1  0.09857172  0.47147671  0.91726503  1
  S  S241  1  0.09212557  0.89126184  0.86107350  1
  S  S242  1  0.02012182  0.22132043  0.87963342  1
  S  S243  1  0.30580537  0.06926271  0.83725263  1
  S  S244  1  0.80995363  0.05376990  0.90996297  1
  S  S245  1  0.81050118  0.46810920  0.85265292  1
  S  S246  1  0.30992137  0.65106359  0.89599132  1
  S  S247  1  0.82877075  0.27222678  0.94263027  1
  S  S248  1  0.33407386  0.04014043  0.92761498  1
  S  S249  1  0.30267367  0.41515686  0.84523714  1
  S  S250  1  0.79358679  0.69909179  0.89868259  1
  S  S251  1  0.51474422  0.09267446  0.99155769  1
  S  S252  1  0.09634386  0.07538645  0.98459046  1
  S  S253  1  0.30510765  0.25875871  0.96028506  1
  S  S254  1  0.81135215  0.64602646  0.96998972  1
  S  S255  1  0.30153850  0.58780061  0.96998931  1
