# generated using pymatgen
data_Li3PS4
_symmetry_space_group_name_H-M   'P 1'
_cell_length_a   8.10679100
_cell_length_b   14.48087000
_cell_length_c   45.84055029
_cell_angle_alpha   90.00000000
_cell_angle_beta   90.00000000
_cell_angle_gamma   90.00000000
_symmetry_Int_Tables_number   1
_chemical_formula_structural   Li3PS4
_chemical_formula_sum   'Li96 P32 S128'
_cell_volume   5381.37744205
_cell_formula_units_Z   32
loop_
 _symmetry_equiv_pos_site_id
 _symmetry_equiv_pos_as_xyz
  1  'x, y, z'
loop_
 _atom_site_type_symbol
 _atom_site_label
 _atom_site_symmetry_multiplicity
 _atom_site_fract_x
 _atom_site_fract_y
 _atom_site_fract_z
 _atom_site_occupancy
  Li  Li0  1  0.89326679  0.72736126  0.06083512  1
  Li  Li1  1  0.94012950  0.04637424  0.07248027  1
  Li  Li2  1  0.95028036  0.50440458  0.09469075  1
  Li  Li3  1  0.82267077  0.32767648  0.05248378  1
  Li  Li4  1  0.41664839  0.26528600  0.01883986  1
  Li  Li5  1  0.39495603  0.50848093  0.09834443  1
  Li  Li6  1  0.39074635  0.05359441  0.08578081  1
  Li  Li7  1  0.45394448  0.73920617  0.05919815  1
  Li  Li8  1  0.35125359  0.47890469  0.00920183  1
  Li  Li9  1  0.44007488  0.98771803  0.02324432  1
  Li  Li10  1  0.88177495  0.54182915  0.17819235  1
  Li  Li11  1  0.94821326  0.85106163  0.19616710  1
  Li  Li12  1  0.95674824  0.32003878  0.22080433  1
  Li  Li13  1  0.88936499  0.07808125  0.15505562  1
  Li  Li14  1  0.46760967  0.08858397  0.16009987  1
  Li  Li15  1  0.38803314  0.30952782  0.21988222  1
  Li  Li16  1  0.39245512  0.84749166  0.19717624  1
  Li  Li17  1  0.45571106  0.54103037  0.18337746  1
  Li  Li18  1  0.95843534  0.79442636  0.12230356  1
  Li  Li19  1  0.99399183  0.27389253  0.13334282  1
  Li  Li20  1  0.47416977  0.30925779  0.11698680  1
  Li  Li21  1  0.39577415  0.79176883  0.12383274  1
  Li  Li22  1  0.88490306  0.35228395  0.30167471  1
  Li  Li23  1  0.94746086  0.66457093  0.31426741  1
  Li  Li24  1  0.96327620  0.13032622  0.34307744  1
  Li  Li25  1  0.89202746  0.89859242  0.27722112  1
  Li  Li26  1  0.45823218  0.88273344  0.27922587  1
  Li  Li27  1  0.39611745  0.12100707  0.34898662  1
  Li  Li28  1  0.38223554  0.66086607  0.32198140  1
  Li  Li29  1  0.45182494  0.35082251  0.30600421  1
  Li  Li30  1  0.97457570  0.60620675  0.24079932  1
  Li  Li31  1  0.86417764  0.12188449  0.24334640  1
  Li  Li32  1  0.36515562  0.08535085  0.25780458  1
  Li  Li33  1  0.47013543  0.59326043  0.25805817  1
  Li  Li34  1  0.87381541  0.17027393  0.42253417  1
  Li  Li35  1  0.93718389  0.48123410  0.44009659  1
  Li  Li36  1  0.16663308  0.92579356  0.42897343  1
  Li  Li37  1  0.90921555  0.71606864  0.39547415  1
  Li  Li38  1  0.46523956  0.70131051  0.40153726  1
  Li  Li39  1  0.46289147  0.77915797  0.47952813  1
  Li  Li40  1  0.37541924  0.47439415  0.44739076  1
  Li  Li41  1  0.43995977  0.16665922  0.43164955  1
  Li  Li42  1  0.97482193  0.42207266  0.36410298  1
  Li  Li43  1  0.87349157  0.93519194  0.36706098  1
  Li  Li44  1  0.42221780  0.90626916  0.37565585  1
  Li  Li45  1  0.46860241  0.41000345  0.38275884  1
  Li  Li46  1  0.94854875  0.24046382  0.48427709  1
  Li  Li47  1  0.89242423  0.75730455  0.48437587  1
  Li  Li48  1  0.08241916  0.77340185  0.56069102  1
  Li  Li49  1  0.03213867  0.45524633  0.57243959  1
  Li  Li50  1  0.02208110  0.99573142  0.59440372  1
  Li  Li51  1  0.15651033  0.17408610  0.55349350  1
  Li  Li52  1  0.55863317  0.23549003  0.51870969  1
  Li  Li53  1  0.58121737  0.99217387  0.59795012  1
  Li  Li54  1  0.58333681  0.44754026  0.58557802  1
  Li  Li55  1  0.51944050  0.75975498  0.55920763  1
  Li  Li56  1  0.62463758  0.02249966  0.50964593  1
  Li  Li57  1  0.53638037  0.51260024  0.52278158  1
  Li  Li58  1  0.09408574  0.95777620  0.67811180  1
  Li  Li59  1  0.02636677  0.64896857  0.69545145  1
  Li  Li60  1  0.02057084  0.17995211  0.72086498  1
  Li  Li61  1  0.08364706  0.42247923  0.65502730  1
  Li  Li62  1  0.50823564  0.41141829  0.65996773  1
  Li  Li63  1  0.58815683  0.19046801  0.71955878  1
  Li  Li64  1  0.58340968  0.65154414  0.69667862  1
  Li  Li65  1  0.51982292  0.95953871  0.68332278  1
  Li  Li66  1  0.01408462  0.70628791  0.62192011  1
  Li  Li67  1  0.98331695  0.22622206  0.63307130  1
  Li  Li68  1  0.50302816  0.19088117  0.61723474  1
  Li  Li69  1  0.57670871  0.70900938  0.62379726  1
  Li  Li70  1  0.09012269  0.14744995  0.80162547  1
  Li  Li71  1  0.02471122  0.83440902  0.81460187  1
  Li  Li72  1  0.01093760  0.37008501  0.84321507  1
  Li  Li73  1  0.08325916  0.60222376  0.77698275  1
  Li  Li74  1  0.51822409  0.61719763  0.77915195  1
  Li  Li75  1  0.57745020  0.37699269  0.84844451  1
  Li  Li76  1  0.59207810  0.83954827  0.82193169  1
  Li  Li77  1  0.52117637  0.14871417  0.80551837  1
  Li  Li78  1  0.00101975  0.89323543  0.74044516  1
  Li  Li79  1  0.11168615  0.37728792  0.74315880  1
  Li  Li80  1  0.60873014  0.41573795  0.75748068  1
  Li  Li81  1  0.50473337  0.90556535  0.75842669  1
  Li  Li82  1  0.10430049  0.32894930  0.92247653  1
  Li  Li83  1  0.04010772  0.01883448  0.94000147  1
  Li  Li84  1  0.80746861  0.57244711  0.92901570  1
  Li  Li85  1  0.06645839  0.78301735  0.89551568  1
  Li  Li86  1  0.51170478  0.79734242  0.90112162  1
  Li  Li87  1  0.51385856  0.72112873  0.97919051  1
  Li  Li88  1  0.60204575  0.02549054  0.94746936  1
  Li  Li89  1  0.53645909  0.33322744  0.93169510  1
  Li  Li90  1  0.99999943  0.07737822  0.86402255  1
  Li  Li91  1  0.10066698  0.56530629  0.86725406  1
  Li  Li92  1  0.55121745  0.58941607  0.87496569  1
  Li  Li93  1  0.50623944  0.09007467  0.88278122  1
  Li  Li94  1  0.02927577  0.25915085  0.98426326  1
  Li  Li95  1  0.08380537  0.74280012  0.98462293  1
  P  P96  1  0.16618785  0.85684697  0.04382974  1
  P  P97  1  0.67093943  0.93073847  0.09961956  1
  P  P98  1  0.65169875  0.49627251  0.05084353  1
  P  P99  1  0.17061907  0.29047205  0.07128624  1
  P  P100  1  0.17046532  0.65056492  0.15818684  1
  P  P101  1  0.67577553  0.73685014  0.21974292  1
  P  P102  1  0.67943718  0.30033184  0.17800449  1
  P  P103  1  0.16404772  0.09443725  0.19797831  1
  P  P104  1  0.17293389  0.46398372  0.28089311  1
  P  P105  1  0.67305799  0.55018423  0.34142516  1
  P  P106  1  0.66738125  0.10870634  0.30344130  1
  P  P107  1  0.17342650  0.90599229  0.32086667  1
  P  P108  1  0.16701768  0.28015769  0.40496415  1
  P  P109  1  0.67045244  0.36137419  0.46535107  1
  P  P110  1  0.67594006  0.92975145  0.42812675  1
  P  P111  1  0.17534519  0.72294100  0.44141604  1
  P  P112  1  0.80843459  0.64422104  0.54373562  1
  P  P113  1  0.30249567  0.56944851  0.59944177  1
  P  P114  1  0.32100894  0.00416540  0.55071977  1
  P  P115  1  0.80229812  0.21065432  0.57113640  1
  P  P116  1  0.80469375  0.85010456  0.65796790  1
  P  P117  1  0.30010289  0.76278986  0.71944473  1
  P  P118  1  0.29551254  0.19989514  0.67787777  1
  P  P119  1  0.81087337  0.40534304  0.69787932  1
  P  P120  1  0.80195931  0.03590228  0.78074560  1
  P  P121  1  0.30088114  0.94947739  0.84132891  1
  P  P122  1  0.30667607  0.39135180  0.80330092  1
  P  P123  1  0.80138421  0.59392264  0.82075955  1
  P  P124  1  0.80953357  0.21974864  0.90489324  1
  P  P125  1  0.30665870  0.13828194  0.96542991  1
  P  P126  1  0.29912587  0.56967115  0.92800952  1
  P  P127  1  0.80156403  0.77639123  0.94126109  1
  S  S128  1  0.36675202  0.82686357  0.01696296  1
  S  S129  1  0.43863943  0.57396747  0.05022505  1
  S  S130  1  0.38909745  0.21921007  0.07194496  1
  S  S131  1  0.96577384  0.21371416  0.08178190  1
  S  S132  1  0.86655143  0.56619707  0.04582413  1
  S  S133  1  0.95130398  0.83379158  0.02310774  1
  S  S134  1  0.66909372  0.78842111  0.09348300  1
  S  S135  1  0.19150000  0.99488979  0.05288185  1
  S  S136  1  0.62992231  0.39961121  0.01756031  1
  S  S137  1  0.17781206  0.76938795  0.07984165  1
  S  S138  1  0.65480223  0.01072068  0.06275867  1
  S  S139  1  0.67276574  0.43060068  0.09121005  1
  S  S140  1  0.13267786  0.34947164  0.03090510  1
  S  S141  1  0.38977108  0.62299439  0.13747752  1
  S  S142  1  0.47068623  0.95737529  0.12592385  1
  S  S143  1  0.46707077  0.37355742  0.17067412  1
  S  S144  1  0.37370147  0.01972811  0.20635829  1
  S  S145  1  0.94931915  0.02046953  0.20357287  1
  S  S146  1  0.89317947  0.37495955  0.17208755  1
  S  S147  1  0.89420964  0.95995680  0.11849694  1
  S  S148  1  0.96157530  0.62395503  0.13405710  1
  S  S149  1  0.68258022  0.59303651  0.21532054  1
  S  S150  1  0.17040708  0.79335144  0.16418787  1
  S  S151  1  0.18178914  0.38902963  0.10431522  1
  S  S152  1  0.68169192  0.19926938  0.14569759  1
  S  S153  1  0.16502185  0.57459085  0.19584890  1
  S  S154  1  0.67066418  0.80737947  0.18155185  1
  S  S155  1  0.67422410  0.25150313  0.22000135  1
  S  S156  1  0.17458447  0.14232453  0.15587012  1
  S  S157  1  0.38684464  0.42833559  0.25942709  1
  S  S158  1  0.46128931  0.76162282  0.24243096  1
  S  S159  1  0.45073612  0.18156836  0.29961947  1
  S  S160  1  0.38482415  0.83042891  0.32812678  1
  S  S161  1  0.95728545  0.83316182  0.32607252  1
  S  S162  1  0.87658961  0.18398038  0.29467727  1
  S  S163  1  0.88919086  0.76931358  0.24213141  1
  S  S164  1  0.95983891  0.43977968  0.25794920  1
  S  S165  1  0.67884482  0.40706958  0.33735176  1
  S  S166  1  0.18190593  0.60701293  0.28525921  1
  S  S167  1  0.16115409  0.19721302  0.22973119  1
  S  S168  1  0.66071086  0.00873673  0.27091814  1
  S  S169  1  0.16659042  0.39091116  0.31916591  1
  S  S170  1  0.66038780  0.62349945  0.30330735  1
  S  S171  1  0.68011626  0.06074780  0.34559806  1
  S  S172  1  0.17804635  0.95435748  0.27893782  1
  S  S173  1  0.38637025  0.24612118  0.38516024  1
  S  S174  1  0.46542999  0.57595610  0.36584853  1
  S  S175  1  0.46246585  0.00252468  0.41971674  1
  S  S176  1  0.38329268  0.64480303  0.44896922  1
  S  S177  1  0.95728911  0.65163019  0.44347443  1
  S  S178  1  0.88422016  0.00407135  0.41767687  1
  S  S179  1  0.89201064  0.58506142  0.36129912  1
  S  S180  1  0.96262590  0.25493430  0.37967391  1
  S  S181  1  0.67567716  0.21730051  0.45975176  1
  S  S182  1  0.17213904  0.42259631  0.41009931  1
  S  S183  1  0.16924730  0.00696803  0.35337112  1
  S  S184  1  0.67332278  0.82401706  0.39700819  1
  S  S185  1  0.15302181  0.20406988  0.44281776  1
  S  S186  1  0.65040968  0.43707808  0.42766025  1
  S  S187  1  0.68458015  0.88925973  0.47104127  1
  S  S188  1  0.19054667  0.77853631  0.39957877  1
  S  S189  1  0.46280556  0.38256522  0.49075464  1
  S  S190  1  0.88346913  0.39908282  0.48514360  1
  S  S191  1  0.17476651  0.82797655  0.47143566  1
  S  S192  1  0.60781978  0.67370171  0.51685735  1
  S  S193  1  0.53332307  0.92574621  0.55002586  1
  S  S194  1  0.58367176  0.28170171  0.57209129  1
  S  S195  1  0.00671226  0.28774518  0.58165137  1
  S  S196  1  0.10563346  0.93471203  0.54550186  1
  S  S197  1  0.02365215  0.66677378  0.52311433  1
  S  S198  1  0.30463498  0.71181938  0.59330160  1
  S  S199  1  0.78221216  0.50616343  0.55273591  1
  S  S200  1  0.34369892  0.10152152  0.51767693  1
  S  S201  1  0.79631050  0.73182841  0.57967851  1
  S  S202  1  0.31857334  0.48947341  0.56259643  1
  S  S203  1  0.30106890  0.06923787  0.59123998  1
  S  S204  1  0.83980910  0.15192998  0.53075555  1
  S  S205  1  0.58531746  0.87812145  0.63732407  1
  S  S206  1  0.50263039  0.54311228  0.62581989  1
  S  S207  1  0.50807733  0.12684135  0.67043563  1
  S  S208  1  0.60109661  0.48018847  0.70621764  1
  S  S209  1  0.02540671  0.47940721  0.70349723  1
  S  S210  1  0.08173538  0.12514266  0.67210689  1
  S  S211  1  0.07924951  0.54075165  0.61840671  1
  S  S212  1  0.01339122  0.87664134  0.63379213  1
  S  S213  1  0.29322451  0.90666148  0.71517050  1
  S  S214  1  0.80430098  0.70719956  0.66379795  1
  S  S215  1  0.79237524  0.11174452  0.60409421  1
  S  S216  1  0.29252275  0.30113753  0.64564443  1
  S  S217  1  0.81074307  0.92564657  0.69569973  1
  S  S218  1  0.30527860  0.69259201  0.68118842  1
  S  S219  1  0.30181397  0.24850017  0.71992481  1
  S  S220  1  0.79950911  0.35744896  0.65577127  1
  S  S221  1  0.58831000  0.07120784  0.75909525  1
  S  S222  1  0.51423080  0.73773602  0.74217522  1
  S  S223  1  0.52257464  0.31803836  0.79911884  1
  S  S224  1  0.59063613  0.66992294  0.82804587  1
  S  S225  1  0.01793068  0.66617338  0.82607259  1
  S  S226  1  0.09684478  0.31650224  0.79461303  1
  S  S227  1  0.08599402  0.73006733  0.74160970  1
  S  S228  1  0.01558110  0.05970604  0.75791187  1
  S  S229  1  0.29520065  0.09263022  0.83725760  1
  S  S230  1  0.79263268  0.89280731  0.78518982  1
  S  S231  1  0.81407516  0.30251558  0.72958330  1
  S  S232  1  0.31397699  0.49172562  0.77092434  1
  S  S233  1  0.80753863  0.10935934  0.81895561  1
  S  S234  1  0.31270044  0.87612163  0.80320309  1
  S  S235  1  0.29506253  0.43901951  0.84552112  1
  S  S236  1  0.79718325  0.54578820  0.77881783  1
  S  S237  1  0.58983997  0.25379152  0.88519436  1
  S  S238  1  0.50889764  0.92404752  0.86571679  1
  S  S239  1  0.51237277  0.49656216  0.91966505  1
  S  S240  1  0.59329868  0.85464960  0.94858070  1
  S  S241  1  0.01948217  0.84788023  0.94344299  1
  S  S242  1  0.09087687  0.49508789  0.91779421  1
  S  S243  1  0.08270717  0.91436111  0.86138014  1
  S  S244  1  0.01366448  0.24498177  0.87955542  1
  S  S245  1  0.30132068  0.28240676  0.95985983  1
  S  S246  1  0.80448329  0.07730103  0.90997679  1
  S  S247  1  0.80346928  0.49249835  0.85314180  1
  S  S248  1  0.30207336  0.67476928  0.89670434  1
  S  S249  1  0.82369895  0.29563872  0.94278490  1
  S  S250  1  0.32656415  0.06269154  0.92771854  1
  S  S251  1  0.29173500  0.61108436  0.97085305  1
  S  S252  1  0.78588113  0.72029635  0.89949728  1
  S  S253  1  0.51403482  0.11721352  0.99088222  1
  S  S254  1  0.09362159  0.10056368  0.98519056  1
  S  S255  1  0.80176458  0.67158614  0.97135534  1
