# generated using pymatgen
data_Li3PS4
_symmetry_space_group_name_H-M   'P 1'
_cell_length_a   8.10679100
_cell_length_b   14.48087000
_cell_length_c   45.84893542
_cell_angle_alpha   90.00000000
_cell_angle_beta   90.00000000
_cell_angle_gamma   90.00000000
_symmetry_Int_Tables_number   1
_chemical_formula_structural   Li3PS4
_chemical_formula_sum   'Li96 P32 S128'
_cell_volume   5382.36180046
_cell_formula_units_Z   32
loop_
 _symmetry_equiv_pos_site_id
 _symmetry_equiv_pos_as_xyz
  1  'x, y, z'
loop_
 _atom_site_type_symbol
 _atom_site_label
 _atom_site_symmetry_multiplicity
 _atom_site_fract_x
 _atom_site_fract_y
 _atom_site_fract_z
 _atom_site_occupancy
  Li  Li0  1  0.89717363  0.70679956  0.06288108  1
  Li  Li1  1  0.92738855  0.04170190  0.07125088  1
  Li  Li2  1  0.88221606  0.35100926  0.04466654  1
  Li  Li3  1  0.43684398  0.24524991  0.02291651  1
  Li  Li4  1  0.37849901  0.03609833  0.08521368  1
  Li  Li5  1  0.45335775  0.73395082  0.05958451  1
  Li  Li6  1  0.36414824  0.46851409  0.00782450  1
  Li  Li7  1  0.42255420  0.97471541  0.02196086  1
  Li  Li8  1  0.87248898  0.53422498  0.17888627  1
  Li  Li9  1  0.94328195  0.84118236  0.19655572  1
  Li  Li10  1  0.92718717  0.48962495  0.10014952  1
  Li  Li11  1  0.88326649  0.06804759  0.15569943  1
  Li  Li12  1  0.45810613  0.07967951  0.15915989  1
  Li  Li13  1  0.37042657  0.50637664  0.09665089  1
  Li  Li14  1  0.38554266  0.84075824  0.19789959  1
  Li  Li15  1  0.44748772  0.53040333  0.18365056  1
  Li  Li16  1  0.96301966  0.78989291  0.12202180  1
  Li  Li17  1  0.96859762  0.26426801  0.13042678  1
  Li  Li18  1  0.45919325  0.30238656  0.11772832  1
  Li  Li19  1  0.40553968  0.77988035  0.12589887  1
  Li  Li20  1  0.87940358  0.34481653  0.30142970  1
  Li  Li21  1  0.94102948  0.65676514  0.31511952  1
  Li  Li22  1  0.95315383  0.31295582  0.21968994  1
  Li  Li23  1  0.88583244  0.88937837  0.27786141  1
  Li  Li24  1  0.45155348  0.87618957  0.27986484  1
  Li  Li25  1  0.38442077  0.30183534  0.22030027  1
  Li  Li26  1  0.37545681  0.65319769  0.32234140  1
  Li  Li27  1  0.44747515  0.34275902  0.30612555  1
  Li  Li28  1  0.96748729  0.59866277  0.24149645  1
  Li  Li29  1  0.86154474  0.11457972  0.24338071  1
  Li  Li30  1  0.36223809  0.07738167  0.25763664  1
  Li  Li31  1  0.46226187  0.58609164  0.25879677  1
  Li  Li32  1  0.86687334  0.16005786  0.42245978  1
  Li  Li33  1  0.93131214  0.47042034  0.43984666  1
  Li  Li34  1  0.96144520  0.12173913  0.34276979  1
  Li  Li35  1  0.90573748  0.70815595  0.39543306  1
  Li  Li36  1  0.46143110  0.69075507  0.40179309  1
  Li  Li37  1  0.39165549  0.11228634  0.34845849  1
  Li  Li38  1  0.37217443  0.46306445  0.44754571  1
  Li  Li39  1  0.43713107  0.15613832  0.43171033  1
  Li  Li40  1  0.96885571  0.41203889  0.36417259  1
  Li  Li41  1  0.86917434  0.92761711  0.36782240  1
  Li  Li42  1  0.41655924  0.89864554  0.37615175  1
  Li  Li43  1  0.46529127  0.39903533  0.38277966  1
  Li  Li44  1  0.16182687  0.91641705  0.43011453  1
  Li  Li45  1  0.45519380  0.76782549  0.48023635  1
  Li  Li46  1  0.94613425  0.23040050  0.48359854  1
  Li  Li47  1  0.88562053  0.74088486  0.48539016  1
  Li  Li48  1  0.08748126  0.75790350  0.56092877  1
  Li  Li49  1  0.03691176  0.44044187  0.57233949  1
  Li  Li50  1  0.15703209  0.15920049  0.55235649  1
  Li  Li51  1  0.56060124  0.22123855  0.51834278  1
  Li  Li52  1  0.58579679  0.43133925  0.58521514  1
  Li  Li53  1  0.52360266  0.74457251  0.55893376  1
  Li  Li54  1  0.63012882  0.00655956  0.50979692  1
  Li  Li55  1  0.53821146  0.49995621  0.52297799  1
  Li  Li56  1  0.09795768  0.94340219  0.67793153  1
  Li  Li57  1  0.03116588  0.63467901  0.69599531  1
  Li  Li58  1  0.02892532  0.98104131  0.59455899  1
  Li  Li59  1  0.08495858  0.40544995  0.65437975  1
  Li  Li60  1  0.51140932  0.39746397  0.65945591  1
  Li  Li61  1  0.58387574  0.97629687  0.59801158  1
  Li  Li62  1  0.58962533  0.63692042  0.69682352  1
  Li  Li63  1  0.52306759  0.94467420  0.68330863  1
  Li  Li64  1  0.02182532  0.69081818  0.62278166  1
  Li  Li65  1  0.98702221  0.20959901  0.63238925  1
  Li  Li66  1  0.50468008  0.17754752  0.61683579  1
  Li  Li67  1  0.58543888  0.69246071  0.62323197  1
  Li  Li68  1  0.09778195  0.13034016  0.80141557  1
  Li  Li69  1  0.03239448  0.81783693  0.81447299  1
  Li  Li70  1  0.02210928  0.16624031  0.72073264  1
  Li  Li71  1  0.09143383  0.58659824  0.77687566  1
  Li  Li72  1  0.52552758  0.59916940  0.77833538  1
  Li  Li73  1  0.59062786  0.17465392  0.71965659  1
  Li  Li74  1  0.60212729  0.82210369  0.82218882  1
  Li  Li75  1  0.52767779  0.13188251  0.80572973  1
  Li  Li76  1  0.00629191  0.87797520  0.74072678  1
  Li  Li77  1  0.11456660  0.36316597  0.74302448  1
  Li  Li78  1  0.61391531  0.39863230  0.75706141  1
  Li  Li79  1  0.50926612  0.88988484  0.75841305  1
  Li  Li80  1  0.10997309  0.31406304  0.92079316  1
  Li  Li81  1  0.04407142  0.00192146  0.93932235  1
  Li  Li82  1  0.01463974  0.35237017  0.84244723  1
  Li  Li83  1  0.07345135  0.76689697  0.89597882  1
  Li  Li84  1  0.51566007  0.78325705  0.90217910  1
  Li  Li85  1  0.58447313  0.36190671  0.84792490  1
  Li  Li86  1  0.60572832  0.01111538  0.94760058  1
  Li  Li87  1  0.54010904  0.31693587  0.93032593  1
  Li  Li88  1  0.00525210  0.05961017  0.86378958  1
  Li  Li89  1  0.10928241  0.54766833  0.86664570  1
  Li  Li90  1  0.56076915  0.57673747  0.87526836  1
  Li  Li91  1  0.51131469  0.07353624  0.88268179  1
  Li  Li92  1  0.81621227  0.55754987  0.92855537  1
  Li  Li93  1  0.52402653  0.70279298  0.98031427  1
  Li  Li94  1  0.03452284  0.24458319  0.98212546  1
  Li  Li95  1  0.09085474  0.73182911  0.98577949  1
  P  P96  1  0.15443126  0.84297597  0.04408244  1
  P  P97  1  0.66755549  0.92053310  0.09934985  1
  P  P98  1  0.64441052  0.48227179  0.05351290  1
  P  P99  1  0.16819746  0.28004841  0.07055298  1
  P  P100  1  0.16287703  0.64291618  0.15884128  1
  P  P101  1  0.66739236  0.72855513  0.22033948  1
  P  P102  1  0.67227176  0.29185340  0.17774044  1
  P  P103  1  0.15898116  0.08608289  0.19774704  1
  P  P104  1  0.16761098  0.45577067  0.28098144  1
  P  P105  1  0.66727587  0.54105632  0.34156156  1
  P  P106  1  0.66421315  0.10088533  0.30353367  1
  P  P107  1  0.16810616  0.89776917  0.32147988  1
  P  P108  1  0.16244410  0.26987799  0.40490168  1
  P  P109  1  0.66642763  0.35038267  0.46542585  1
  P  P110  1  0.67086296  0.91877350  0.42854329  1
  P  P111  1  0.17020071  0.71231732  0.44174122  1
  P  P112  1  0.81381804  0.62881184  0.54382424  1
  P  P113  1  0.30732628  0.55425964  0.59939757  1
  P  P114  1  0.32471631  0.98913423  0.55070540  1
  P  P115  1  0.80652463  0.19523270  0.57076432  1
  P  P116  1  0.80932135  0.83481121  0.65801529  1
  P  P117  1  0.30456851  0.74782342  0.71955582  1
  P  P118  1  0.29834821  0.18472934  0.67769465  1
  P  P119  1  0.81340384  0.39046285  0.69753667  1
  P  P120  1  0.80819449  0.02016404  0.78061948  1
  P  P121  1  0.30837151  0.93199331  0.84146060  1
  P  P122  1  0.31219718  0.37383656  0.80300619  1
  P  P123  1  0.80785214  0.57672717  0.82045487  1
  P  P124  1  0.81384191  0.20363558  0.90415174  1
  P  P125  1  0.30908256  0.12452099  0.96457426  1
  P  P126  1  0.30741814  0.55487365  0.92773998  1
  P  P127  1  0.80680870  0.76065995  0.94182224  1
  S  S128  1  0.35202390  0.81290393  0.01636891  1
  S  S129  1  0.44440518  0.56854887  0.04843209  1
  S  S130  1  0.37976728  0.20416286  0.07504366  1
  S  S131  1  0.94851036  0.21347363  0.07684165  1
  S  S132  1  0.87335403  0.54000510  0.04902585  1
  S  S133  1  0.93924604  0.81412604  0.02429992  1
  S  S134  1  0.66872886  0.77770378  0.09417535  1
  S  S135  1  0.17691835  0.98203215  0.05203209  1
  S  S136  1  0.62732765  0.38420934  0.02050486  1
  S  S137  1  0.17660601  0.75902095  0.08070111  1
  S  S138  1  0.64454196  0.99719315  0.06194932  1
  S  S139  1  0.16418197  0.33435687  0.02854829  1
  S  S140  1  0.37998816  0.61222561  0.13785234  1
  S  S141  1  0.46837051  0.94644500  0.12600904  1
  S  S142  1  0.45769374  0.36341692  0.17078849  1
  S  S143  1  0.37009446  0.01235340  0.20606190  1
  S  S144  1  0.94542119  0.01140042  0.20397398  1
  S  S145  1  0.88444745  0.36735599  0.17084963  1
  S  S146  1  0.89058660  0.95404600  0.11756570  1
  S  S147  1  0.95199371  0.61874098  0.13503630  1
  S  S148  1  0.67315039  0.58479280  0.21595149  1
  S  S149  1  0.16650230  0.78577202  0.16470816  1
  S  S150  1  0.17060030  0.37981691  0.10330169  1
  S  S151  1  0.67595406  0.18968030  0.14579956  1
  S  S152  1  0.15678221  0.56681398  0.19642940  1
  S  S153  1  0.66327459  0.79889777  0.18209000  1
  S  S154  1  0.64334680  0.42885801  0.09529876  1
  S  S155  1  0.16702318  0.13361333  0.15562071  1
  S  S156  1  0.38248697  0.42098832  0.25964106  1
  S  S157  1  0.45372884  0.75426914  0.24312186  1
  S  S158  1  0.44748508  0.17371966  0.29950009  1
  S  S159  1  0.37943226  0.82212380  0.32856500  1
  S  S160  1  0.95196268  0.82508368  0.32688518  1
  S  S161  1  0.87327653  0.17608706  0.29462681  1
  S  S162  1  0.88144562  0.76113340  0.24257280  1
  S  S163  1  0.95582429  0.43116158  0.25770536  1
  S  S164  1  0.67441409  0.39797228  0.33729204  1
  S  S165  1  0.17489844  0.59878936  0.28571015  1
  S  S166  1  0.15629642  0.18947947  0.22931934  1
  S  S167  1  0.65642194  0.00025402  0.27124883  1
  S  S168  1  0.16102324  0.38182400  0.31909240  1
  S  S169  1  0.65506773  0.61511436  0.30360975  1
  S  S170  1  0.67144475  0.24492506  0.21994009  1
  S  S171  1  0.17146605  0.94684270  0.27965174  1
  S  S172  1  0.38180559  0.23582155  0.38511689  1
  S  S173  1  0.45861408  0.56591787  0.36578154  1
  S  S174  1  0.45789078  0.99237368  0.42046380  1
  S  S175  1  0.37818715  0.63394945  0.44928518  1
  S  S176  1  0.95193070  0.64104765  0.44327965  1
  S  S177  1  0.87937557  0.99376578  0.41858159  1
  S  S178  1  0.88544507  0.57557166  0.36174021  1
  S  S179  1  0.95747180  0.24507360  0.37971372  1
  S  S180  1  0.67175654  0.20625765  0.46002903  1
  S  S181  1  0.16773625  0.41215963  0.41024503  1
  S  S182  1  0.16571171  0.99869205  0.35397343  1
  S  S183  1  0.66799236  0.81477592  0.39689173  1
  S  S184  1  0.14852014  0.19287287  0.44257904  1
  S  S185  1  0.64590757  0.42550847  0.42764387  1
  S  S186  1  0.67670058  0.05358811  0.34574192  1
  S  S187  1  0.18699276  0.76931397  0.40011846  1
  S  S188  1  0.45954865  0.37122188  0.49097967  1
  S  S189  1  0.87968468  0.38843400  0.48500038  1
  S  S190  1  0.16814863  0.81638740  0.47206929  1
  S  S191  1  0.67955666  0.87573645  0.47119144  1
  S  S192  1  0.61517103  0.65990691  0.51648112  1
  S  S193  1  0.53665110  0.91026014  0.55016663  1
  S  S194  1  0.58754742  0.26605434  0.57155243  1
  S  S195  1  0.01072990  0.27255279  0.58130632  1
  S  S196  1  0.10955217  0.91927969  0.54583783  1
  S  S197  1  0.02913237  0.65098459  0.52321613  1
  S  S198  1  0.30998636  0.69659642  0.59340294  1
  S  S199  1  0.78583124  0.49088947  0.55276181  1
  S  S200  1  0.34785193  0.08528797  0.51739649  1
  S  S201  1  0.80127980  0.71638850  0.57972529  1
  S  S202  1  0.32261274  0.47460958  0.56244930  1
  S  S203  1  0.84468498  0.13719418  0.53030799  1
  S  S204  1  0.58994063  0.86201513  0.63732138  1
  S  S205  1  0.50819839  0.52763407  0.62552390  1
  S  S206  1  0.51065934  0.11148022  0.67027244  1
  S  S207  1  0.60409373  0.46560866  0.70586779  1
  S  S208  1  0.02838761  0.46410903  0.70294413  1
  S  S209  1  0.08421544  0.11032206  0.67193563  1
  S  S210  1  0.08421811  0.52543532  0.61836056  1
  S  S211  1  0.01814730  0.86132521  0.63384808  1
  S  S212  1  0.29735615  0.89165023  0.71525576  1
  S  S213  1  0.81003646  0.69184372  0.66395675  1
  S  S214  1  0.79631060  0.09639753  0.60371315  1
  S  S215  1  0.29607624  0.28599494  0.64542247  1
  S  S216  1  0.81482018  0.91040172  0.69569767  1
  S  S217  1  0.30946814  0.67749808  0.68135897  1
  S  S218  1  0.30512600  0.05529426  0.59099857  1
  S  S219  1  0.80190818  0.34135071  0.65557338  1
  S  S220  1  0.59387802  0.05500105  0.75907862  1
  S  S221  1  0.51903584  0.72283880  0.74222893  1
  S  S222  1  0.52871872  0.30110200  0.79883392  1
  S  S223  1  0.59656538  0.65236620  0.82746534  1
  S  S224  1  0.02340625  0.64974575  0.82595873  1
  S  S225  1  0.10301187  0.29881650  0.79412392  1
  S  S226  1  0.09095960  0.71508565  0.74191615  1
  S  S227  1  0.02057061  0.04486773  0.75754444  1
  S  S228  1  0.30168212  0.07503838  0.83718178  1
  S  S229  1  0.80000580  0.87708991  0.78514943  1
  S  S230  1  0.81602896  0.28792329  0.72938843  1
  S  S231  1  0.31922790  0.47458149  0.77067397  1
  S  S232  1  0.81430492  0.09339891  0.81885337  1
  S  S233  1  0.32086362  0.85812620  0.80346666  1
  S  S234  1  0.30433006  0.23360967  0.71965908  1
  S  S235  1  0.80509404  0.52801583  0.77856965  1
  S  S236  1  0.59476875  0.23703309  0.88415943  1
  S  S237  1  0.51653831  0.90692130  0.86582798  1
  S  S238  1  0.52052584  0.48150223  0.91963369  1
  S  S239  1  0.59877038  0.83847497  0.94985544  1
  S  S240  1  0.02446279  0.83248154  0.94394596  1
  S  S241  1  0.09873989  0.48045964  0.91748557  1
  S  S242  1  0.08984071  0.89706146  0.86149675  1
  S  S243  1  0.01832220  0.22750202  0.87877091  1
  S  S244  1  0.30386764  0.26742379  0.95776095  1
  S  S245  1  0.80836156  0.06141212  0.90985359  1
  S  S246  1  0.81044396  0.47596282  0.85303568  1
  S  S247  1  0.31031272  0.65973682  0.89639896  1
  S  S248  1  0.82783858  0.28151227  0.94161858  1
  S  S249  1  0.33225476  0.04609366  0.92744170  1
  S  S250  1  0.29992487  0.42097424  0.84522695  1
  S  S251  1  0.79104435  0.70624222  0.89982905  1
  S  S252  1  0.51354262  0.10365127  0.99091200  1
  S  S253  1  0.09511552  0.08672379  0.98404845  1
  S  S254  1  0.80986864  0.65428376  0.97133087  1
  S  S255  1  0.29786089  0.59694122  0.97048050  1
