# generated using pymatgen
data_Li3PS4
_symmetry_space_group_name_H-M   'P 1'
_cell_length_a   8.10679100
_cell_length_b   14.48087000
_cell_length_c   34.60655229
_cell_angle_alpha   90.00000000
_cell_angle_beta   90.00000000
_cell_angle_gamma   90.00000000
_symmetry_Int_Tables_number   1
_chemical_formula_structural   Li3PS4
_chemical_formula_sum   'Li72 P24 S96'
_cell_volume   4062.58037189
_cell_formula_units_Z   24
loop_
 _symmetry_equiv_pos_site_id
 _symmetry_equiv_pos_as_xyz
  1  'x, y, z'
loop_
 _atom_site_type_symbol
 _atom_site_label
 _atom_site_symmetry_multiplicity
 _atom_site_fract_x
 _atom_site_fract_y
 _atom_site_fract_z
 _atom_site_occupancy
  Li  Li0  1  0.88565656  0.67383220  0.07826091  1
  Li  Li1  1  0.81634058  0.27350729  0.07124177  1
  Li  Li2  1  0.41446808  0.20860979  0.02572896  1
  Li  Li3  1  0.44720362  0.68810578  0.08005292  1
  Li  Li4  1  0.34859063  0.42434067  0.01216308  1
  Li  Li5  1  0.43379160  0.92918333  0.03035914  1
  Li  Li6  1  0.87591865  0.48798643  0.23666087  1
  Li  Li7  1  0.93874403  0.99062394  0.09685359  1
  Li  Li8  1  0.94523634  0.45109823  0.12612903  1
  Li  Li9  1  0.88447831  0.02178700  0.20667513  1
  Li  Li10  1  0.45796149  0.03204045  0.21024030  1
  Li  Li11  1  0.38555884  0.45520503  0.12894113  1
  Li  Li12  1  0.38531311  0.99446172  0.11334750  1
  Li  Li13  1  0.44737846  0.48245977  0.24365027  1
  Li  Li14  1  0.97156414  0.74175380  0.15906286  1
  Li  Li15  1  0.98543209  0.22018959  0.17671240  1
  Li  Li16  1  0.46708534  0.25559784  0.15559768  1
  Li  Li17  1  0.45790737  0.72920018  0.17978026  1
  Li  Li18  1  0.86926340  0.30011784  0.39813864  1
  Li  Li19  1  0.94039439  0.79730833  0.25590163  1
  Li  Li20  1  0.94870285  0.26454160  0.29350004  1
  Li  Li21  1  0.90210032  0.85047301  0.36096482  1
  Li  Li22  1  0.45779375  0.83272745  0.36978791  1
  Li  Li23  1  0.38244831  0.25691915  0.29296656  1
  Li  Li24  1  0.37592251  0.79407021  0.26474127  1
  Li  Li25  1  0.44051349  0.29823915  0.40795914  1
  Li  Li26  1  0.96850258  0.55377679  0.32008850  1
  Li  Li27  1  0.85594079  0.07060311  0.32374445  1
  Li  Li28  1  0.40545252  0.03793232  0.33621161  1
  Li  Li29  1  0.45941156  0.53886115  0.34424031  1
  Li  Li30  1  0.92938757  0.61297531  0.41884117  1
  Li  Li31  1  0.15666489  0.05816954  0.40610815  1
  Li  Li32  1  0.45074337  0.91069810  0.47377982  1
  Li  Li33  1  0.37033100  0.60454417  0.43054194  1
  Li  Li34  1  0.94775270  0.37363192  0.47812432  1
  Li  Li35  1  0.88206235  0.88217166  0.48014844  1
  Li  Li36  1  0.08988900  0.90064180  0.57837501  1
  Li  Li37  1  0.15616644  0.30216151  0.56985629  1
  Li  Li38  1  0.56183329  0.36540409  0.52492843  1
  Li  Li39  1  0.53072143  0.88664179  0.58029714  1
  Li  Li40  1  0.62454736  0.14903248  0.51168477  1
  Li  Li41  1  0.54324101  0.64449757  0.52981570  1
  Li  Li42  1  0.09998467  0.08769585  0.73579008  1
  Li  Li43  1  0.03813555  0.58380970  0.59662232  1
  Li  Li44  1  0.02820750  0.12448670  0.62551696  1
  Li  Li45  1  0.09059837  0.55215707  0.70619687  1
  Li  Li46  1  0.51640673  0.54224070  0.71014752  1
  Li  Li47  1  0.58516510  0.12008265  0.62959250  1
  Li  Li48  1  0.59170415  0.57915300  0.61335335  1
  Li  Li49  1  0.53103193  0.09301626  0.74373523  1
  Li  Li50  1  0.00428859  0.83328903  0.65868867  1
  Li  Li51  1  0.98969026  0.35423129  0.67618894  1
  Li  Li52  1  0.50740809  0.32049895  0.65485321  1
  Li  Li53  1  0.51711423  0.84573777  0.67925026  1
  Li  Li54  1  0.10752565  0.27381194  0.89810910  1
  Li  Li55  1  0.03427624  0.77872985  0.75643991  1
  Li  Li56  1  0.02399532  0.31054793  0.79333086  1
  Li  Li57  1  0.07397731  0.72428215  0.86070585  1
  Li  Li58  1  0.51518864  0.74368605  0.86922286  1
  Li  Li59  1  0.59229791  0.31727695  0.79255282  1
  Li  Li60  1  0.59673001  0.78063732  0.76397805  1
  Li  Li61  1  0.53563852  0.27609166  0.90809901  1
  Li  Li62  1  0.00800902  0.02168149  0.81966564  1
  Li  Li63  1  0.11611958  0.50477768  0.82325577  1
  Li  Li64  1  0.56785009  0.53598870  0.83570938  1
  Li  Li65  1  0.51566153  0.03565048  0.84438009  1
  Li  Li66  1  0.04530728  0.96366594  0.91861274  1
  Li  Li67  1  0.81995169  0.51773775  0.90559969  1
  Li  Li68  1  0.52218275  0.66581223  0.97218843  1
  Li  Li69  1  0.60621853  0.97190525  0.93106691  1
  Li  Li70  1  0.02671293  0.20238980  0.97892004  1
  Li  Li71  1  0.09405175  0.69237040  0.97949506  1
  P  P72  1  0.15565070  0.80085992  0.05677408  1
  P  P73  1  0.64816251  0.44202965  0.06769444  1
  P  P74  1  0.16663742  0.59567989  0.21023585  1
  P  P75  1  0.66878158  0.87497216  0.13234558  1
  P  P76  1  0.67091140  0.24384326  0.23654439  1
  P  P77  1  0.16664812  0.23465895  0.09484593  1
  P  P78  1  0.16050204  0.41038926  0.37344809  1
  P  P79  1  0.66598342  0.68240170  0.29065540  1
  P  P80  1  0.66623945  0.06056794  0.40459896  1
  P  P81  1  0.16032445  0.04022818  0.26301155  1
  P  P82  1  0.66649641  0.49255800  0.45382657  1
  P  P83  1  0.16718650  0.85490720  0.42219912  1
  P  P84  1  0.82045138  0.77320261  0.55691236  1
  P  P85  1  0.32587880  0.13288367  0.56740578  1
  P  P86  1  0.80885520  0.97921079  0.71000516  1
  P  P87  1  0.30711214  0.69942662  0.63214431  1
  P  P88  1  0.30303330  0.33119890  0.73614202  1
  P  P89  1  0.80822465  0.34009935  0.59445329  1
  P  P90  1  0.81490591  0.16474900  0.87341049  1
  P  P91  1  0.30944223  0.89382319  0.79007958  1
  P  P92  1  0.30848137  0.51386140  0.90424686  1
  P  P93  1  0.81390148  0.53473977  0.76271612  1
  P  P94  1  0.30755124  0.08261463  0.95415783  1
  P  P95  1  0.80880204  0.72120508  0.92169411  1
  S  S96  1  0.35713026  0.76962816  0.02136560  1
  S  S97  1  0.43742274  0.52162437  0.06595020  1
  S  S98  1  0.86477781  0.51031094  0.06109475  1
  S  S99  1  0.94134042  0.78212203  0.02860668  1
  S  S100  1  0.18632872  0.93864277  0.06944451  1
  S  S101  1  0.62571798  0.34395029  0.02422084  1
  S  S102  1  0.65196892  0.95411454  0.08345569  1
  S  S103  1  0.13052075  0.29218649  0.04112544  1
  S  S104  1  0.38539657  0.56362564  0.18308311  1
  S  S105  1  0.46753045  0.89934246  0.16698719  1
  S  S106  1  0.45763555  0.31617909  0.22699662  1
  S  S107  1  0.38454185  0.16279824  0.09657407  1
  S  S108  1  0.96133136  0.15820680  0.10891795  1
  S  S109  1  0.88371537  0.31955491  0.22892583  1
  S  S110  1  0.89129857  0.90517552  0.15782781  1
  S  S111  1  0.95774564  0.57080820  0.17826350  1
  S  S112  1  0.67039561  0.73264638  0.12420470  1
  S  S113  1  0.17216249  0.73856414  0.21736970  1
  S  S114  1  0.17614017  0.33441841  0.13825613  1
  S  S115  1  0.67516403  0.14301630  0.19380771  1
  S  S116  1  0.16698649  0.71253405  0.10359897  1
  S  S117  1  0.65425997  0.75632884  0.24040561  1
  S  S118  1  0.66625149  0.37793629  0.12163797  1
  S  S119  1  0.16666759  0.08787540  0.20722308  1
  S  S120  1  0.37591107  0.37478852  0.34564461  1
  S  S121  1  0.45694641  0.70702572  0.32261873  1
  S  S122  1  0.45377359  0.13425388  0.39386278  1
  S  S123  1  0.37244037  0.96538615  0.27211891  1
  S  S124  1  0.94658535  0.96586625  0.27146148  1
  S  S125  1  0.87490172  0.13499418  0.39075351  1
  S  S126  1  0.88401545  0.71646625  0.31757610  1
  S  S127  1  0.95085575  0.38721177  0.34159451  1
  S  S128  1  0.67306187  0.53917243  0.28493024  1
  S  S129  1  0.16835466  0.55272411  0.38041979  1
  S  S130  1  0.15958095  0.14283273  0.30515682  1
  S  S131  1  0.66295452  0.95634661  0.36274862  1
  S  S132  1  0.15844016  0.52061977  0.26040427  1
  S  S133  1  0.64294553  0.56607159  0.40346141  1
  S  S134  1  0.66655060  0.19579146  0.29248384  1
  S  S135  1  0.18373538  0.91084802  0.36678006  1
  S  S136  1  0.46135740  0.51431637  0.48819320  1
  S  S137  1  0.37474633  0.77657843  0.43269502  1
  S  S138  1  0.94919804  0.78335692  0.42418149  1
  S  S139  1  0.88062756  0.53162312  0.47907713  1
  S  S140  1  0.67170438  0.34809160  0.44717659  1
  S  S141  1  0.16472115  0.95991499  0.46189437  1
  S  S142  1  0.15168471  0.33430935  0.42365503  1
  S  S143  1  0.67643629  0.01792723  0.46104502  1
  S  S144  1  0.61937412  0.80471742  0.52139049  1
  S  S145  1  0.53694281  0.05352775  0.56615587  1
  S  S146  1  0.10982436  0.06408919  0.56074636  1
  S  S147  1  0.03498367  0.79206033  0.52887367  1
  S  S148  1  0.79002280  0.63537969  0.56935462  1
  S  S149  1  0.34906139  0.23024879  0.52365593  1
  S  S150  1  0.32465404  0.61993820  0.58334040  1
  S  S151  1  0.84570656  0.28218871  0.54084059  1
  S  S152  1  0.58906287  0.01127945  0.68329951  1
  S  S153  1  0.50826162  0.67521084  0.66681892  1
  S  S154  1  0.51665847  0.25924998  0.72646180  1
  S  S155  1  0.59045533  0.41203149  0.59580088  1
  S  S156  1  0.01349818  0.41639064  0.60868615  1
  S  S157  1  0.08997892  0.25557578  0.72869543  1
  S  S158  1  0.08431881  0.66939612  0.65751864  1
  S  S159  1  0.01659272  0.00431339  0.67769041  1
  S  S160  1  0.30560943  0.84184222  0.62388887  1
  S  S161  1  0.80341640  0.83641569  0.71722866  1
  S  S162  1  0.79691487  0.24071004  0.63797815  1
  S  S163  1  0.29846767  0.43184375  0.69329359  1
  S  S164  1  0.80909433  0.86171215  0.60369525  1
  S  S165  1  0.31897548  0.82006814  0.73977481  1
  S  S166  1  0.30661034  0.19813107  0.62107869  1
  S  S167  1  0.80737566  0.48670936  0.70699944  1
  S  S168  1  0.59931239  0.20011183  0.84559034  1
  S  S169  1  0.51908981  0.86845262  0.82174553  1
  S  S170  1  0.52107348  0.44031530  0.89353990  1
  S  S171  1  0.60172922  0.60947195  0.77188147  1
  S  S172  1  0.02772229  0.60918539  0.77090154  1
  S  S173  1  0.09990295  0.43942155  0.89041659  1
  S  S174  1  0.09278847  0.85950493  0.81760864  1
  S  S175  1  0.02414111  0.18792398  0.84141099  1
  S  S176  1  0.30245746  0.03695146  0.78443394  1
  S  S177  1  0.80639535  0.02246937  0.88044897  1
  S  S178  1  0.81448610  0.43223002  0.80494335  1
  S  S179  1  0.31190923  0.61823285  0.86241463  1
  S  S180  1  0.81863278  0.05433317  0.76016462  1
  S  S181  1  0.33235930  0.00914608  0.90381720  1
  S  S182  1  0.30752296  0.37912637  0.79207385  1
  S  S183  1  0.79128989  0.66517673  0.86631894  1
  S  S184  1  0.51211809  0.06050024  0.98874430  1
  S  S185  1  0.60130871  0.79991695  0.93195135  1
  S  S186  1  0.02699358  0.79244051  0.92379569  1
  S  S187  1  0.09272527  0.04389530  0.97915562  1
  S  S188  1  0.30341530  0.22696546  0.94738290  1
  S  S189  1  0.81012584  0.61617674  0.96136466  1
  S  S190  1  0.82412206  0.24071396  0.92361449  1
  S  S191  1  0.29854767  0.55652256  0.96071640  1
