# generated using pymatgen
data_Li14P4S17
_symmetry_space_group_name_H-M   'P 1'
_cell_length_a   8.10679100
_cell_length_b   14.48087000
_cell_length_c   49.50428840
_cell_angle_alpha   90.00000000
_cell_angle_beta   90.00000000
_cell_angle_gamma   90.00000000
_symmetry_Int_Tables_number   1
_chemical_formula_structural   Li14P4S17
_chemical_formula_sum   'Li112 P32 S136'
_cell_volume   5811.47606558
_cell_formula_units_Z   8
loop_
 _symmetry_equiv_pos_site_id
 _symmetry_equiv_pos_as_xyz
  1  'x, y, z'
loop_
 _atom_site_type_symbol
 _atom_site_label
 _atom_site_symmetry_multiplicity
 _atom_site_fract_x
 _atom_site_fract_y
 _atom_site_fract_z
 _atom_site_occupancy
  Li  Li0  1  0.97925742  0.70637672  0.08065336  1
  Li  Li1  1  0.05687363  0.03339820  0.10125499  1
  Li  Li2  1  0.96796614  0.65073621  0.01848456  1
  Li  Li3  1  0.99705916  0.20758435  0.03993539  1
  Li  Li4  1  0.44329627  0.16668093  0.03935775  1
  Li  Li5  1  0.55852487  0.64339564  0.01783324  1
  Li  Li6  1  0.47274062  0.03988072  0.09896893  1
  Li  Li7  1  0.53929195  0.70178826  0.07690846  1
  Li  Li8  1  0.97643634  0.96333457  0.04861168  1
  Li  Li9  1  0.05695837  0.39286280  0.01019284  1
  Li  Li10  1  0.47551408  0.37143425  0.00948508  1
  Li  Li11  1  0.55599149  0.94904852  0.04844431  1
  Li  Li12  1  0.96917416  0.50604117  0.18504673  1
  Li  Li13  1  0.03981452  0.83155329  0.20482761  1
  Li  Li14  1  0.05101881  0.48485393  0.10632292  1
  Li  Li15  1  0.96585314  0.06646917  0.16695394  1
  Li  Li16  1  0.54241889  0.05614509  0.16737639  1
  Li  Li17  1  0.47930025  0.47256706  0.10722189  1
  Li  Li18  1  0.47110951  0.81687312  0.20288695  1
  Li  Li19  1  0.54160150  0.51915824  0.18710645  1
  Li  Li20  1  0.95402435  0.75748695  0.14921052  1
  Li  Li21  1  0.96785934  0.28992842  0.12619913  1
  Li  Li22  1  0.47015303  0.25977706  0.13564857  1
  Li  Li23  1  0.45824359  0.76796435  0.13471783  1
  Li  Li24  1  0.96771127  0.32640315  0.29608131  1
  Li  Li25  1  0.03816317  0.63322025  0.31311609  1
  Li  Li26  1  0.04144897  0.27977379  0.22245143  1
  Li  Li27  1  0.97330473  0.85597827  0.28114721  1
  Li  Li28  1  0.54123068  0.86358948  0.27956673  1
  Li  Li29  1  0.47014590  0.29292420  0.22260003  1
  Li  Li30  1  0.46864872  0.63574600  0.31846960  1
  Li  Li31  1  0.53402449  0.31691677  0.30262886  1
  Li  Li32  1  0.06423839  0.57800156  0.24272063  1
  Li  Li33  1  0.06280743  0.05340397  0.25813000  1
  Li  Li34  1  0.56274139  0.09390873  0.24497525  1
  Li  Li35  1  0.56234938  0.56647511  0.25984332  1
  Li  Li36  1  0.95951928  0.12345772  0.40356483  1
  Li  Li37  1  0.02928569  0.44155626  0.42142628  1
  Li  Li38  1  0.04872703  0.09109343  0.33665431  1
  Li  Li39  1  0.98596202  0.67459825  0.39190732  1
  Li  Li40  1  0.55486488  0.66125876  0.39603907  1
  Li  Li41  1  0.47064318  0.07921035  0.33650292  1
  Li  Li42  1  0.46854893  0.44508553  0.42680654  1
  Li  Li43  1  0.53817926  0.11158145  0.40641777  1
  Li  Li44  1  0.05311236  0.39081761  0.35363850  1
  Li  Li45  1  0.96374866  0.89531534  0.36606337  1
  Li  Li46  1  0.47613307  0.85795553  0.37654396  1
  Li  Li47  1  0.55538290  0.37561248  0.36926832  1
  Li  Li48  1  0.88983330  0.02870777  0.46317380  1
  Li  Li49  1  0.04424731  0.51261088  0.48052977  1
  Li  Li50  1  0.47536918  0.50752868  0.48654547  1
  Li  Li51  1  0.23505284  0.92873618  0.43884324  1
  Li  Li52  1  0.05233873  0.20892757  0.45435641  1
  Li  Li53  1  0.93762791  0.79907010  0.48739161  1
  Li  Li54  1  0.53136671  0.87261076  0.46704416  1
  Li  Li55  1  0.46478290  0.18261497  0.46132033  1
  Li  Li56  1  0.53116630  0.94501673  0.57319262  1
  Li  Li57  1  0.45942933  0.61154813  0.59339002  1
  Li  Li58  1  0.52348635  0.00809495  0.51356785  1
  Li  Li59  1  0.76266487  0.42930020  0.56139823  1
  Li  Li60  1  0.10610318  0.52890540  0.53676888  1
  Li  Li61  1  0.95535304  0.01241858  0.51944488  1
  Li  Li62  1  0.03973031  0.62322271  0.59641395  1
  Li  Li63  1  0.97067443  0.94200606  0.57905964  1
  Li  Li64  1  0.53317659  0.68261099  0.53858737  1
  Li  Li65  1  0.46826155  0.37189110  0.53306241  1
  Li  Li66  1  0.06203377  0.29896375  0.51260493  1
  Li  Li67  1  0.94641060  0.70937134  0.54570835  1
  Li  Li68  1  0.52470040  0.13101122  0.68577148  1
  Li  Li69  1  0.46056749  0.82282855  0.69876491  1
  Li  Li70  1  0.44639735  0.16060722  0.60464740  1
  Li  Li71  1  0.52688695  0.58203532  0.66383575  1
  Li  Li72  1  0.94809343  0.58960473  0.66333642  1
  Li  Li73  1  0.01627747  0.17447122  0.60739331  1
  Li  Li74  1  0.02887188  0.81998823  0.70276959  1
  Li  Li75  1  0.95568650  0.13630805  0.68257832  1
  Li  Li76  1  0.44650045  0.87769450  0.63132341  1
  Li  Li77  1  0.52428708  0.35772587  0.62355385  1
  Li  Li78  1  0.03487391  0.39598691  0.63366994  1
  Li  Li79  1  0.94321041  0.88791046  0.64624945  1
  Li  Li80  1  0.52789109  0.32526088  0.79447765  1
  Li  Li81  1  0.45411201  0.00935243  0.81559264  1
  Li  Li82  1  0.45740911  0.36362389  0.71879042  1
  Li  Li83  1  0.52713816  0.79147412  0.77639952  1
  Li  Li84  1  0.95739923  0.78034866  0.77849908  1
  Li  Li85  1  0.02426589  0.35257222  0.72059808  1
  Li  Li86  1  0.02507366  0.01299483  0.81165317  1
  Li  Li87  1  0.95972314  0.32078063  0.79821026  1
  Li  Li88  1  0.54449803  0.07635681  0.75677422  1
  Li  Li89  1  0.43060748  0.59448456  0.75440225  1
  Li  Li90  1  0.93043161  0.55040820  0.74211416  1
  Li  Li91  1  0.04747484  0.06688083  0.74061441  1
  Li  Li92  1  0.53198759  0.53357769  0.90003660  1
  Li  Li93  1  0.46872202  0.20035563  0.91879707  1
  Li  Li94  1  0.45104975  0.55483101  0.83370119  1
  Li  Li95  1  0.52199581  0.96949480  0.89290108  1
  Li  Li96  1  0.94963993  0.98612769  0.89287629  1
  Li  Li97  1  0.03086026  0.56534214  0.83208159  1
  Li  Li98  1  0.02702703  0.20533869  0.92315369  1
  Li  Li99  1  0.94812179  0.53740723  0.89926885  1
  Li  Li100  1  0.44409040  0.25602850  0.85127799  1
  Li  Li101  1  0.54176508  0.75396469  0.86355704  1
  Li  Li102  1  0.04099623  0.78938939  0.87420907  1
  Li  Li103  1  0.94763667  0.26783574  0.86514035  1
  Li  Li104  1  0.56374397  0.66582659  0.95943702  1
  Li  Li105  1  0.44799441  0.14485128  0.98114696  1
  Li  Li106  1  0.03970375  0.15000483  0.98217250  1
  Li  Li107  1  0.01146134  0.70795265  0.96051641  1
  Li  Li108  1  0.44800224  0.44701984  0.95088865  1
  Li  Li109  1  0.53222600  0.87422645  0.98897351  1
  Li  Li110  1  0.95450812  0.89141140  0.99106459  1
  Li  Li111  1  0.02666455  0.46417485  0.95176030  1
  P  P112  1  0.25825933  0.82788692  0.05913533  1
  P  P113  1  0.77088217  0.46870887  0.06427890  1
  P  P114  1  0.25058634  0.27986443  0.08140392  1
  P  P115  1  0.24771203  0.62410275  0.16584966  1
  P  P116  1  0.75305792  0.90449620  0.11533930  1
  P  P117  1  0.74927251  0.27327644  0.18370688  1
  P  P118  1  0.25977724  0.06681329  0.20345108  1
  P  P119  1  0.26148011  0.43598861  0.27876713  1
  P  P120  1  0.76466973  0.70973599  0.22415231  1
  P  P121  1  0.76344938  0.07869125  0.30011595  1
  P  P122  1  0.25269551  0.87326060  0.31980365  1
  P  P123  1  0.25883735  0.24481026  0.38771798  1
  P  P124  1  0.75749455  0.52221188  0.33613614  1
  P  P125  1  0.75778986  0.86607026  0.42293511  1
  P  P126  1  0.26186699  0.68110813  0.43541255  1
  P  P127  1  0.74302432  0.32306397  0.44404014  1
  P  P128  1  0.25617601  0.82339286  0.55610560  1
  P  P129  1  0.73655249  0.18103772  0.56474867  1
  P  P130  1  0.24210693  0.36614130  0.57714961  1
  P  P131  1  0.23566846  0.02120075  0.66396936  1
  P  P132  1  0.73753748  0.74425906  0.61223692  1
  P  P133  1  0.74856683  0.37217104  0.68028830  1
  P  P134  1  0.23168596  0.57793129  0.69992837  1
  P  P135  1  0.24841371  0.20829512  0.77604345  1
  P  P136  1  0.74816487  0.93598083  0.72132092  1
  P  P137  1  0.73245375  0.56556900  0.79674440  1
  P  P138  1  0.25098927  0.77244245  0.81639007  1
  P  P139  1  0.24014959  0.40310944  0.88469713  1
  P  P140  1  0.73539901  0.12321814  0.83408280  1
  P  P141  1  0.74978494  0.77899426  0.91830377  1
  P  P142  1  0.23072451  0.96855512  0.93563180  1
  P  P143  1  0.74940185  0.32734366  0.94057509  1
  S  S144  1  0.46619690  0.79782891  0.03628521  1
  S  S145  1  0.61346402  0.04485063  0.01147683  1
  S  S146  1  0.55297398  0.54250159  0.06040991  1
  S  S147  1  0.46676446  0.19842437  0.08731772  1
  S  S148  1  0.04316571  0.19155690  0.08806276  1
  S  S149  1  0.98059359  0.54977461  0.06067874  1
  S  S150  1  0.87464944  0.05760303  0.01357786  1
  S  S151  1  0.04038038  0.80398555  0.03864044  1
  S  S152  1  0.74921735  0.76330307  0.10815247  1
  S  S153  1  0.26380252  0.97020566  0.06662700  1
  S  S154  1  0.77663621  0.37199471  0.03338720  1
  S  S155  1  0.26215343  0.74579634  0.09265535  1
  S  S156  1  0.76050245  0.99045890  0.08212217  1
  S  S157  1  0.24649893  0.23884618  0.00884982  1
  S  S158  1  0.46056166  0.59864811  0.14455936  1
  S  S159  1  0.53564659  0.93196212  0.13490859  1
  S  S160  1  0.54023479  0.35092711  0.17760177  1
  S  S161  1  0.46693639  0.98734362  0.21007729  1
  S  S162  1  0.04282360  0.99792426  0.21075900  1
  S  S163  1  0.96717845  0.34117855  0.17696589  1
  S  S164  1  0.96306070  0.92864567  0.13703648  1
  S  S165  1  0.03419740  0.59579110  0.14474255  1
  S  S166  1  0.76684956  0.56739779  0.21843110  1
  S  S167  1  0.24550027  0.76659275  0.17239156  1
  S  S168  1  0.25164318  0.36447174  0.11732089  1
  S  S169  1  0.74259850  0.17187071  0.15385963  1
  S  S170  1  0.25148263  0.54718419  0.20045673  1
  S  S171  1  0.75890031  0.78642950  0.18936507  1
  S  S172  1  0.76879711  0.41783122  0.10316048  1
  S  S173  1  0.25770170  0.11560443  0.16467911  1
  S  S174  1  0.48047387  0.40249465  0.26018701  1
  S  S175  1  0.55218290  0.73624771  0.24528820  1
  S  S176  1  0.54876198  0.14947919  0.29292538  1
  S  S177  1  0.46885174  0.80298666  0.32581547  1
  S  S178  1  0.04126094  0.79780494  0.32588856  1
  S  S179  1  0.97260155  0.15660331  0.29364280  1
  S  S180  1  0.97883063  0.74030896  0.24479773  1
  S  S181  1  0.05463667  0.41072783  0.25586735  1
  S  S182  1  0.76467624  0.37978068  0.32999917  1
  S  S183  1  0.26740631  0.57873526  0.28393036  1
  S  S184  1  0.26824580  0.16984134  0.23267298  1
  S  S185  1  0.76873580  0.97566117  0.27091223  1
  S  S186  1  0.24857889  0.36019545  0.31360662  1
  S  S187  1  0.75001355  0.59914764  0.30146607  1
  S  S188  1  0.75182174  0.22424549  0.22263373  1
  S  S189  1  0.25492872  0.92384669  0.28107021  1
  S  S190  1  0.47265419  0.21183975  0.36759666  1
  S  S191  1  0.54786503  0.54612304  0.35834609  1
  S  S192  1  0.53974797  0.94840958  0.41828014  1
  S  S193  1  0.47572427  0.60626755  0.44224725  1
  S  S194  1  0.04813342  0.60388772  0.43716677  1
  S  S195  1  0.95861959  0.96125109  0.41632554  1
  S  S196  1  0.97427250  0.55310247  0.35589186  1
  S  S197  1  0.04484009  0.22198169  0.36687497  1
  S  S198  1  0.75377753  0.17936104  0.43700862  1
  S  S199  1  0.26406782  0.38625266  0.39398615  1
  S  S200  1  0.24898632  0.97402724  0.34998136  1
  S  S201  1  0.75776455  0.78698316  0.38628408  1
  S  S202  1  0.25647379  0.16203503  0.42175594  1
  S  S203  1  0.74451887  0.40156498  0.40963539  1
  S  S204  1  0.76273080  0.03036691  0.33907306  1
  S  S205  1  0.27323045  0.73091874  0.39628360  1
  S  S206  1  0.33000202  0.04453754  0.47641776  1
  S  S207  1  0.53204278  0.34627227  0.46574560  1
  S  S208  1  0.95724001  0.35727105  0.46460840  1
  S  S209  1  0.11193019  0.11158105  0.49027209  1
  S  S210  1  0.24703953  0.78318572  0.46449444  1
  S  S211  1  0.75386783  0.93066150  0.49309638  1
  S  S212  1  0.04187589  0.85775362  0.53561780  1
  S  S213  1  0.88699874  0.61186000  0.50974091  1
  S  S214  1  0.94978452  0.10347661  0.56262147  1
  S  S215  1  0.04067481  0.46112502  0.58373377  1
  S  S216  1  0.45969066  0.44857484  0.58199127  1
  S  S217  1  0.52215746  0.10652760  0.55810541  1
  S  S218  1  0.66900327  0.54460276  0.52356802  1
  S  S219  1  0.46681978  0.84656118  0.53431078  1
  S  S220  1  0.73398032  0.88582766  0.60608392  1
  S  S221  1  0.24452831  0.67949879  0.56293080  1
  S  S222  1  0.75131894  0.28345133  0.53577326  1
  S  S223  1  0.25503678  0.90129785  0.59062408  1
  S  S224  1  0.74085434  0.66193861  0.57813296  1
  S  S225  1  0.24503144  0.43069413  0.50711722  1
  S  S226  1  0.02399695  0.04958221  0.64236597  1
  S  S227  1  0.95126749  0.72048087  0.63314813  1
  S  S228  1  0.96526933  0.30122846  0.67458701  1
  S  S229  1  0.01959239  0.65283928  0.70652633  1
  S  S230  1  0.44276308  0.65260495  0.70714572  1
  S  S231  1  0.53730993  0.29791143  0.67376979  1
  S  S232  1  0.52337843  0.71230890  0.63226384  1
  S  S233  1  0.45036854  0.04785693  0.64347820  1
  S  S234  1  0.75260813  0.07859223  0.71600434  1
  S  S235  1  0.23227484  0.87868215  0.66997641  1
  S  S236  1  0.24209766  0.28701225  0.61379086  1
  S  S237  1  0.74708737  0.47364480  0.65030342  1
  S  S238  1  0.23654777  0.09741063  0.69879816  1
  S  S239  1  0.74847847  0.85973175  0.68648553  1
  S  S240  1  0.72714257  0.23005132  0.60398028  1
  S  S241  1  0.23594887  0.53020091  0.66095444  1
  S  S242  1  0.03077931  0.23381096  0.75623456  1
  S  S243  1  0.95713686  0.90505264  0.74329942  1
  S  S244  1  0.94263469  0.49036616  0.78932091  1
  S  S245  1  0.04004020  0.84654545  0.82337466  1
  S  S246  1  0.46700319  0.84405292  0.82214565  1
  S  S247  1  0.51884372  0.49174315  0.79028254  1
  S  S248  1  0.53059218  0.90952986  0.74102044  1
  S  S249  1  0.45739445  0.23929242  0.75409991  1
  S  S250  1  0.73100578  0.26569737  0.82759222  1
  S  S251  1  0.25411599  0.06587479  0.78164700  1
  S  S252  1  0.23090699  0.47467452  0.72907364  1
  S  S253  1  0.73210020  0.66891991  0.76761778  1
  S  S254  1  0.24782817  0.28456996  0.81087828  1
  S  S255  1  0.73504672  0.04667788  0.79940080  1
  S  S256  1  0.74254542  0.42184433  0.71912945  1
  S  S257  1  0.24409799  0.72356563  0.77744391  1
  S  S258  1  0.02910455  0.43208362  0.86344219  1
  S  S259  1  0.95229420  0.09839999  0.85421794  1
  S  S260  1  0.96245234  0.69402645  0.91275709  1
  S  S261  1  0.01894473  0.04738491  0.93981628  1
  S  S262  1  0.44735217  0.04374124  0.93904463  1
  S  S263  1  0.53955227  0.69320816  0.91131544  1
  S  S264  1  0.52574660  0.09467876  0.85630251  1
  S  S265  1  0.45631933  0.42524683  0.86456974  1
  S  S266  1  0.74060550  0.46962902  0.93316688  1
  S  S267  1  0.23466365  0.26191575  0.89179226  1
  S  S268  1  0.25025762  0.67098052  0.84626069  1
  S  S269  1  0.75172054  0.86319676  0.88238454  1
  S  S270  1  0.24111199  0.48931958  0.91785037  1
  S  S271  1  0.75089076  0.24583981  0.90693808  1
  S  S272  1  0.73855706  0.61367372  0.83564589  1
  S  S273  1  0.23158032  0.91835939  0.89669611  1
  S  S274  1  0.13345153  0.55711611  0.98688297  1
  S  S275  1  0.96212097  0.30494983  0.96266238  1
  S  S276  1  0.53690021  0.29576854  0.96192430  1
  S  S277  1  0.39482495  0.54346055  0.98778838  1
  S  S278  1  0.23073521  0.87149929  0.96646780  1
  S  S279  1  0.76048759  0.73807004  0.99088739  1
