# generated using pymatgen
data_Li3PS4
_symmetry_space_group_name_H-M   'P 1'
_cell_length_a   8.10679100
_cell_length_b   14.48087000
_cell_length_c   45.85634440
_cell_angle_alpha   90.00000000
_cell_angle_beta   90.00000000
_cell_angle_gamma   90.00000000
_symmetry_Int_Tables_number   1
_chemical_formula_structural   Li3PS4
_chemical_formula_sum   'Li96 P32 S128'
_cell_volume   5383.23156615
_cell_formula_units_Z   32
loop_
 _symmetry_equiv_pos_site_id
 _symmetry_equiv_pos_as_xyz
  1  'x, y, z'
loop_
 _atom_site_type_symbol
 _atom_site_label
 _atom_site_symmetry_multiplicity
 _atom_site_fract_x
 _atom_site_fract_y
 _atom_site_fract_z
 _atom_site_occupancy
  Li  Li0  1  0.87257681  0.73719323  0.05258377  1
  Li  Li1  1  0.93715217  0.04267614  0.06900667  1
  Li  Li2  1  0.95955929  0.50750149  0.09834861  1
  Li  Li3  1  0.95368551  0.42935383  0.02021794  1
  Li  Li4  1  0.65987227  0.28322818  0.07113283  1
  Li  Li5  1  0.40294787  0.49193532  0.10458169  1
  Li  Li6  1  0.36692968  0.03996647  0.07745132  1
  Li  Li7  1  0.43127238  0.72951426  0.06054210  1
  Li  Li8  1  0.38488202  0.45767443  0.01557036  1
  Li  Li9  1  0.44494565  0.97049607  0.01626568  1
  Li  Li10  1  0.87593274  0.54721508  0.17772801  1
  Li  Li11  1  0.94524502  0.85731881  0.19403067  1
  Li  Li12  1  0.95433513  0.32245445  0.22056430  1
  Li  Li13  1  0.89077357  0.08787129  0.15179161  1
  Li  Li14  1  0.45831707  0.07761248  0.15704371  1
  Li  Li15  1  0.38563460  0.31091659  0.22278844  1
  Li  Li16  1  0.37572959  0.85371234  0.19857968  1
  Li  Li17  1  0.44332331  0.54311622  0.18468229  1
  Li  Li18  1  0.96126143  0.79951095  0.11762898  1
  Li  Li19  1  0.91339558  0.30219533  0.12415751  1
  Li  Li20  1  0.36643749  0.27297331  0.13307078  1
  Li  Li21  1  0.46810555  0.78731006  0.13567594  1
  Li  Li22  1  0.88664802  0.35738912  0.30196671  1
  Li  Li23  1  0.94770151  0.66925374  0.31572862  1
  Li  Li24  1  0.95751606  0.11862453  0.34167036  1
  Li  Li25  1  0.88512786  0.89934858  0.27968370  1
  Li  Li26  1  0.45227310  0.88729611  0.27994420  1
  Li  Li27  1  0.38320321  0.12972942  0.34455263  1
  Li  Li28  1  0.37493220  0.66474684  0.32105552  1
  Li  Li29  1  0.44260065  0.35713661  0.30409423  1
  Li  Li30  1  0.96486354  0.61375172  0.24101070  1
  Li  Li31  1  0.86295131  0.12323979  0.24292764  1
  Li  Li32  1  0.36345304  0.08526814  0.25663807  1
  Li  Li33  1  0.46824305  0.60100848  0.25859732  1
  Li  Li34  1  0.88145957  0.16282886  0.41497171  1
  Li  Li35  1  0.95825310  0.46566928  0.43963272  1
  Li  Li36  1  0.93819452  0.95552143  0.47721175  1
  Li  Li37  1  0.87308435  0.69321603  0.40307651  1
  Li  Li38  1  0.42848392  0.70984803  0.39987252  1
  Li  Li39  1  0.38510000  0.84839414  0.45515271  1
  Li  Li40  1  0.40506042  0.49394727  0.43677897  1
  Li  Li41  1  0.43330227  0.15740573  0.42830855  1
  Li  Li42  1  0.91368593  0.41947561  0.37238393  1
  Li  Li43  1  0.96179637  0.89724890  0.38196616  1
  Li  Li44  1  0.46876631  0.93381753  0.36961055  1
  Li  Li45  1  0.46690776  0.40920125  0.37808209  1
  Li  Li46  1  0.92982286  0.22556576  0.47748406  1
  Li  Li47  1  0.86663320  0.73218578  0.49197090  1
  Li  Li48  1  0.10914851  0.18971643  0.55150613  1
  Li  Li49  1  0.04330999  0.88350717  0.56948833  1
  Li  Li50  1  0.01754214  0.41668804  0.59765955  1
  Li  Li51  1  0.02351969  0.49493736  0.51907464  1
  Li  Li52  1  0.31782477  0.64269985  0.57082737  1
  Li  Li53  1  0.57443033  0.43364913  0.60387874  1
  Li  Li54  1  0.61121415  0.88665864  0.57936789  1
  Li  Li55  1  0.54843805  0.19678147  0.56074706  1
  Li  Li56  1  0.59383407  0.46958299  0.51449978  1
  Li  Li57  1  0.54080913  0.95382042  0.51757739  1
  Li  Li58  1  0.10220240  0.37944136  0.67776790  1
  Li  Li59  1  0.02990112  0.06921264  0.69418529  1
  Li  Li60  1  0.02189130  0.60320425  0.72019289  1
  Li  Li61  1  0.08541279  0.83856062  0.65200545  1
  Li  Li62  1  0.51510475  0.84957838  0.65754692  1
  Li  Li63  1  0.58850982  0.61503482  0.72361843  1
  Li  Li64  1  0.59843075  0.07152584  0.69866576  1
  Li  Li65  1  0.53299439  0.38315051  0.68477223  1
  Li  Li66  1  0.01132731  0.12628484  0.61721111  1
  Li  Li67  1  0.06543872  0.62064047  0.62346398  1
  Li  Li68  1  0.60990302  0.65410862  0.63340623  1
  Li  Li69  1  0.50582175  0.14163477  0.63604777  1
  Li  Li70  1  0.09406861  0.56595372  0.80078309  1
  Li  Li71  1  0.02777055  0.25363743  0.81563539  1
  Li  Li72  1  0.01043105  0.80331098  0.84070432  1
  Li  Li73  1  0.09048018  0.02555909  0.78024304  1
  Li  Li74  1  0.52219153  0.03607288  0.77928414  1
  Li  Li75  1  0.58388079  0.79604883  0.84562666  1
  Li  Li76  1  0.59807045  0.25858992  0.82228469  1
  Li  Li77  1  0.53128173  0.56708330  0.80604989  1
  Li  Li78  1  0.00723781  0.31065313  0.74124617  1
  Li  Li79  1  0.11383910  0.80353700  0.74291568  1
  Li  Li80  1  0.61457694  0.83909557  0.75698393  1
  Li  Li81  1  0.50507411  0.32412999  0.75938413  1
  Li  Li82  1  0.08550519  0.76460104  0.91482534  1
  Li  Li83  1  0.02171304  0.45814849  0.94017448  1
  Li  Li84  1  0.05731923  0.97678427  0.98119689  1
  Li  Li85  1  0.08300874  0.22358134  0.90291609  1
  Li  Li86  1  0.52637885  0.21993216  0.90519939  1
  Li  Li87  1  0.65419680  0.04161802  0.94735483  1
  Li  Li88  1  0.58351873  0.44331185  0.94067916  1
  Li  Li89  1  0.53166267  0.75907017  0.92774812  1
  Li  Li90  1  0.01933861  0.49961708  0.86524358  1
  Li  Li91  1  0.00477071  0.02387887  0.88324802  1
  Li  Li92  1  0.48786562  0.99148482  0.86766717  1
  Li  Li93  1  0.49901665  0.51192779  0.88064643  1
  Li  Li94  1  0.03403809  0.69789788  0.97743626  1
  Li  Li95  1  0.12455285  0.19190193  0.99028548  1
  P  P96  1  0.16644833  0.84992837  0.03486901  1
  P  P97  1  0.66166163  0.92999628  0.09529861  1
  P  P98  1  0.66941408  0.48691419  0.05885217  1
  P  P99  1  0.16972299  0.28001444  0.07196230  1
  P  P100  1  0.16678581  0.65770017  0.15836490  1
  P  P101  1  0.66650944  0.74417599  0.21908942  1
  P  P102  1  0.66725870  0.30203019  0.17919541  1
  P  P103  1  0.16323677  0.09839777  0.19685003  1
  P  P104  1  0.16816703  0.47085566  0.28002103  1
  P  P105  1  0.66495223  0.55628430  0.34095889  1
  P  P106  1  0.66046483  0.11243301  0.30255419  1
  P  P107  1  0.17329904  0.90723680  0.32213219  1
  P  P108  1  0.17145016  0.27834060  0.40059042  1
  P  P109  1  0.65951668  0.35728161  0.45578136  1
  P  P110  1  0.67148177  0.91960954  0.42942943  1
  P  P111  1  0.14568614  0.71816702  0.44627102  1
  P  P112  1  0.81164034  0.07575267  0.53530277  1
  P  P113  1  0.31589697  0.99743798  0.59575779  1
  P  P114  1  0.30854271  0.43956477  0.55783910  1
  P  P115  1  0.80888642  0.64515849  0.57206933  1
  P  P116  1  0.80957613  0.26882700  0.65843112  1
  P  P117  1  0.30889449  0.18200472  0.71934288  1
  P  P118  1  0.30958302  0.62432308  0.67933104  1
  P  P119  1  0.81190931  0.82778347  0.69681902  1
  P  P120  1  0.80648872  0.45354334  0.78040240  1
  P  P121  1  0.30622715  0.36592263  0.84177980  1
  P  P122  1  0.31355480  0.81132675  0.80240723  1
  P  P123  1  0.79908748  0.01571927  0.82220244  1
  P  P124  1  0.80145862  0.64560520  0.90036741  1
  P  P125  1  0.31411774  0.56967356  0.95754823  1
  P  P126  1  0.30369343  0.00356526  0.92910330  1
  P  P127  1  0.82115052  0.21113497  0.94941193  1
  S  S128  1  0.38005561  0.81201257  0.01544465  1
  S  S129  1  0.45570785  0.95444066  0.12024753  1
  S  S130  1  0.45190863  0.55898081  0.05718920  1
  S  S131  1  0.37802180  0.20542446  0.08227227  1
  S  S132  1  0.95661975  0.20673678  0.08012002  1
  S  S133  1  0.87756690  0.56475015  0.05101728  1
  S  S134  1  0.88027629  0.96372558  0.11540046  1
  S  S135  1  0.95964730  0.82838587  0.00926714  1
  S  S136  1  0.66771501  0.78760988  0.08998881  1
  S  S137  1  0.17072317  0.99405886  0.04015863  1
  S  S138  1  0.16677887  0.38461357  0.10345026  1
  S  S139  1  0.66622534  0.38186448  0.02888139  1
  S  S140  1  0.14553124  0.77521738  0.07273589  1
  S  S141  1  0.64906952  0.00689202  0.05762025  1
  S  S142  1  0.68532522  0.43067792  0.10062478  1
  S  S143  1  0.17914811  0.32226156  0.02927494  1
  S  S144  1  0.38524489  0.62392927  0.13818065  1
  S  S145  1  0.45420200  0.76795892  0.24231984  1
  S  S146  1  0.45093024  0.37478781  0.17396300  1
  S  S147  1  0.37201634  0.02261955  0.20537851  1
  S  S148  1  0.94608517  0.02618124  0.20094995  1
  S  S149  1  0.87825680  0.37781252  0.17200965  1
  S  S150  1  0.88099644  0.77894967  0.24053990  1
  S  S151  1  0.95850062  0.63246590  0.13410315  1
  S  S152  1  0.67530524  0.60113687  0.21435339  1
  S  S153  1  0.17194864  0.80075428  0.16274075  1
  S  S154  1  0.15735241  0.19854123  0.22936203  1
  S  S155  1  0.66392478  0.20129506  0.14664938  1
  S  S156  1  0.15581461  0.58344215  0.19632445  1
  S  S157  1  0.65908069  0.81811441  0.18099761  1
  S  S158  1  0.67135468  0.25284175  0.22101339  1
  S  S159  1  0.17489865  0.14668732  0.15476362  1
  S  S160  1  0.38301246  0.43812996  0.25813658  1
  S  S161  1  0.45462608  0.58079306  0.36488549  1
  S  S162  1  0.44717367  0.18735073  0.29641791  1
  S  S163  1  0.38590903  0.83188359  0.32879862  1
  S  S164  1  0.95865588  0.83564478  0.32891008  1
  S  S165  1  0.87242999  0.18589758  0.29461894  1
  S  S166  1  0.88245721  0.58750525  0.36174685  1
  S  S167  1  0.95541179  0.44488136  0.25704913  1
  S  S168  1  0.66850856  0.41337922  0.33527442  1
  S  S169  1  0.17443211  0.61464553  0.28418266  1
  S  S170  1  0.17668349  0.00845687  0.35444407  1
  S  S171  1  0.65716938  0.01016463  0.27063107  1
  S  S172  1  0.16310079  0.40073302  0.31835135  1
  S  S173  1  0.65818371  0.63173594  0.30324258  1
  S  S174  1  0.66764220  0.06358658  0.34454268  1
  S  S175  1  0.17215106  0.95552119  0.28010588  1
  S  S176  1  0.39388821  0.24472997  0.38216192  1
  S  S177  1  0.44507456  0.38714476  0.47567364  1
  S  S178  1  0.45179727  0.98614863  0.42313742  1
  S  S179  1  0.37480691  0.66055304  0.45086187  1
  S  S180  1  0.94606567  0.63167369  0.45131139  1
  S  S181  1  0.88336758  0.99512413  0.42496899  1
  S  S182  1  0.85884378  0.38681512  0.48314789  1
  S  S183  1  0.97115003  0.25266033  0.37416902  1
  S  S184  1  0.68072108  0.21789303  0.44814526  1
  S  S185  1  0.17420690  0.42117640  0.40561470  1
  S  S186  1  0.12928943  0.81639005  0.47922599  1
  S  S187  1  0.67292521  0.81977725  0.39673565  1
  S  S188  1  0.14960738  0.20156967  0.43796305  1
  S  S189  1  0.68156229  0.44035500  0.41900836  1
  S  S190  1  0.66699699  0.86539468  0.47148139  1
  S  S191  1  0.14528515  0.77104874  0.40441040  1
  S  S192  1  0.59730673  0.11264310  0.51586778  1
  S  S193  1  0.52010734  0.97408072  0.62126365  1
  S  S194  1  0.52614124  0.36776553  0.55596144  1
  S  S195  1  0.60027245  0.71981835  0.58221890  1
  S  S196  1  0.02193664  0.71861623  0.58016578  1
  S  S197  1  0.10065831  0.36141414  0.55004442  1
  S  S198  1  0.09688144  0.96348498  0.61571088  1
  S  S199  1  0.01618062  0.09617851  0.50893210  1
  S  S200  1  0.30974256  0.13956267  0.58991190  1
  S  S201  1  0.80705478  0.93295869  0.54242247  1
  S  S202  1  0.81141353  0.54021958  0.60338371  1
  S  S203  1  0.31061522  0.54545032  0.52820056  1
  S  S204  1  0.83585253  0.15493827  0.57225359  1
  S  S205  1  0.33118198  0.91905762  0.55840376  1
  S  S206  1  0.29238266  0.49450107  0.59983487  1
  S  S207  1  0.80027746  0.60297214  0.52932558  1
  S  S208  1  0.59166584  0.30349205  0.63812306  1
  S  S209  1  0.52112460  0.15751016  0.74247261  1
  S  S210  1  0.52627627  0.55189729  0.67435411  1
  S  S211  1  0.60331859  0.90320161  0.70582828  1
  S  S212  1  0.02906002  0.90006217  0.70100276  1
  S  S213  1  0.09910175  0.54833304  0.67176107  1
  S  S214  1  0.09465944  0.14665555  0.74086450  1
  S  S215  1  0.01823987  0.29348853  0.63417819  1
  S  S216  1  0.30076545  0.32503363  0.71470399  1
  S  S217  1  0.80265630  0.12594776  0.66296677  1
  S  S218  1  0.81823938  0.72681061  0.72908576  1
  S  S219  1  0.31278234  0.72517718  0.64685904  1
  S  S220  1  0.82098347  0.34331219  0.69632775  1
  S  S221  1  0.31560441  0.10852629  0.68116444  1
  S  S222  1  0.30289327  0.67262193  0.72125949  1
  S  S223  1  0.79990459  0.78092740  0.65460723  1
  S  S224  1  0.58973865  0.48788176  0.75950168  1
  S  S225  1  0.51411065  0.34121136  0.86619356  1
  S  S226  1  0.52796440  0.73724561  0.79692514  1
  S  S227  1  0.58602153  0.09113124  0.82806810  1
  S  S228  1  0.01245383  0.08781375  0.82950748  1
  S  S229  1  0.10356092  0.73674932  0.79397818  1
  S  S230  1  0.08668988  0.33337800  0.86190591  1
  S  S231  1  0.01671235  0.47886887  0.75665560  1
  S  S232  1  0.30085413  0.50868707  0.83614443  1
  S  S233  1  0.79868227  0.31026516  0.78489689  1
  S  S234  1  0.79522572  0.91473826  0.85450717  1
  S  S235  1  0.31712228  0.91376416  0.77049763  1
  S  S236  1  0.81599616  0.52595681  0.81854514  1
  S  S237  1  0.31659469  0.29091586  0.80391094  1
  S  S238  1  0.30101567  0.86005975  0.84434270  1
  S  S239  1  0.80386686  0.96738710  0.78013708  1
  S  S240  1  0.57849438  0.67568649  0.88141031  1
  S  S241  1  0.52957731  0.55037258  0.97845444  1
  S  S242  1  0.50877427  0.92703037  0.91861307  1
  S  S243  1  0.60477675  0.27973335  0.95428741  1
  S  S244  1  0.03172164  0.29094432  0.95033195  1
  S  S245  1  0.08562739  0.93192099  0.92786813  1
  S  S246  1  0.11365405  0.53850552  0.98441268  1
  S  S247  1  0.00216042  0.67050917  0.87408535  1
  S  S248  1  0.28310366  0.70748198  0.94814899  1
  S  S249  1  0.80079234  0.50321919  0.90646713  1
  S  S250  1  0.84462314  0.11358475  0.98238532  1
  S  S251  1  0.29364148  0.10330246  0.89634207  1
  S  S252  1  0.81887669  0.72473517  0.93732273  1
  S  S253  1  0.30181881  0.48168002  0.92205672  1
  S  S254  1  0.33986357  0.06150301  0.96960979  1
  S  S255  1  0.80329450  0.14572269  0.90890276  1
