# generated using pymatgen
data_Li3PS4
_symmetry_space_group_name_H-M   'P 1'
_cell_length_a   8.10679100
_cell_length_b   14.48087000
_cell_length_c   45.82775306
_cell_angle_alpha   90.00000000
_cell_angle_beta   90.00000000
_cell_angle_gamma   90.00000000
_symmetry_Int_Tables_number   1
_chemical_formula_structural   Li3PS4
_chemical_formula_sum   'Li96 P32 S128'
_cell_volume   5379.87513178
_cell_formula_units_Z   32
loop_
 _symmetry_equiv_pos_site_id
 _symmetry_equiv_pos_as_xyz
  1  'x, y, z'
loop_
 _atom_site_type_symbol
 _atom_site_label
 _atom_site_symmetry_multiplicity
 _atom_site_fract_x
 _atom_site_fract_y
 _atom_site_fract_z
 _atom_site_occupancy
  Li  Li0  1  0.88579875  0.69303536  0.06066079  1
  Li  Li1  1  0.93684688  0.01037977  0.07233154  1
  Li  Li2  1  0.81972089  0.29194056  0.05250118  1
  Li  Li3  1  0.41590850  0.22819217  0.01813117  1
  Li  Li4  1  0.38577729  0.01754185  0.08586908  1
  Li  Li5  1  0.44893616  0.70451686  0.05870229  1
  Li  Li6  1  0.34510110  0.44329600  0.00975394  1
  Li  Li7  1  0.43269614  0.95155644  0.02280428  1
  Li  Li8  1  0.87926863  0.50549745  0.17861143  1
  Li  Li9  1  0.94498888  0.81380251  0.19628585  1
  Li  Li10  1  0.94769173  0.46989142  0.09464001  1
  Li  Li11  1  0.88526711  0.04115862  0.15476072  1
  Li  Li12  1  0.46046347  0.05221966  0.15989905  1
  Li  Li13  1  0.39071914  0.47275824  0.09855572  1
  Li  Li14  1  0.38651983  0.81198586  0.19693232  1
  Li  Li15  1  0.45269180  0.50535123  0.18355373  1
  Li  Li16  1  0.95235533  0.75753694  0.12221542  1
  Li  Li17  1  0.98778570  0.23869342  0.13312701  1
  Li  Li18  1  0.46975865  0.27270845  0.11683132  1
  Li  Li19  1  0.38929107  0.75612313  0.12341907  1
  Li  Li20  1  0.88102112  0.31660138  0.30167603  1
  Li  Li21  1  0.94157661  0.62936095  0.31471054  1
  Li  Li22  1  0.94789931  0.28127437  0.22130306  1
  Li  Li23  1  0.88620562  0.86240458  0.27731873  1
  Li  Li24  1  0.45521038  0.84655174  0.27924026  1
  Li  Li25  1  0.38042262  0.27336998  0.21952523  1
  Li  Li26  1  0.37606359  0.62387826  0.32279384  1
  Li  Li27  1  0.44811811  0.31453199  0.30579632  1
  Li  Li28  1  0.97104856  0.57073687  0.24123963  1
  Li  Li29  1  0.85849621  0.08444520  0.24307555  1
  Li  Li30  1  0.36012071  0.04795435  0.25754648  1
  Li  Li31  1  0.46821736  0.55724250  0.25876250  1
  Li  Li32  1  0.86956525  0.13215415  0.42250127  1
  Li  Li33  1  0.93556784  0.44410380  0.43987813  1
  Li  Li34  1  0.96118252  0.09300073  0.34276884  1
  Li  Li35  1  0.90247420  0.67962808  0.39558890  1
  Li  Li36  1  0.45844345  0.66405545  0.40166944  1
  Li  Li37  1  0.39129955  0.08422315  0.34832983  1
  Li  Li38  1  0.37343033  0.43558367  0.44791687  1
  Li  Li39  1  0.43877492  0.13033778  0.43168730  1
  Li  Li40  1  0.96954992  0.38571823  0.36429863  1
  Li  Li41  1  0.87081553  0.89855783  0.36732090  1
  Li  Li42  1  0.41888808  0.87319626  0.37527838  1
  Li  Li43  1  0.46650410  0.37185097  0.38285568  1
  Li  Li44  1  0.16453194  0.88874616  0.42922829  1
  Li  Li45  1  0.45487385  0.74231644  0.47960894  1
  Li  Li46  1  0.94882698  0.20310348  0.48400455  1
  Li  Li47  1  0.88540479  0.71665086  0.48536177  1
  Li  Li48  1  0.08850612  0.73339422  0.56080810  1
  Li  Li49  1  0.03885317  0.41612966  0.57231900  1
  Li  Li50  1  0.15932253  0.13471668  0.55272943  1
  Li  Li51  1  0.56246029  0.19639782  0.51840838  1
  Li  Li52  1  0.58778695  0.40758515  0.58519668  1
  Li  Li53  1  0.52441573  0.72040938  0.55885331  1
  Li  Li54  1  0.63039178  0.98202468  0.50947209  1
  Li  Li55  1  0.53880856  0.47594835  0.52290418  1
  Li  Li56  1  0.09704691  0.91913426  0.67849305  1
  Li  Li57  1  0.02996165  0.61119394  0.69613925  1
  Li  Li58  1  0.02920345  0.95663506  0.59471196  1
  Li  Li59  1  0.08501580  0.38165731  0.65436059  1
  Li  Li60  1  0.51150887  0.37358021  0.65945731  1
  Li  Li61  1  0.58587668  0.95233942  0.59798667  1
  Li  Li62  1  0.58641694  0.61315511  0.69674967  1
  Li  Li63  1  0.52300659  0.92088335  0.68330284  1
  Li  Li64  1  0.02144532  0.66714727  0.62276772  1
  Li  Li65  1  0.98891634  0.18547174  0.63273872  1
  Li  Li66  1  0.50561334  0.15354845  0.61688742  1
  Li  Li67  1  0.58422968  0.66889662  0.62343029  1
  Li  Li68  1  0.09626602  0.10826940  0.80153858  1
  Li  Li69  1  0.03154391  0.79581658  0.81499146  1
  Li  Li70  1  0.02223769  0.14247492  0.72075413  1
  Li  Li71  1  0.08857502  0.56457581  0.77729318  1
  Li  Li72  1  0.52182339  0.57709922  0.77857760  1
  Li  Li73  1  0.59160619  0.15078835  0.71967087  1
  Li  Li74  1  0.59757496  0.80090074  0.82226147  1
  Li  Li75  1  0.52783090  0.11103248  0.80567045  1
  Li  Li76  1  0.00543764  0.85488993  0.74118947  1
  Li  Li77  1  0.11464273  0.33952791  0.74305230  1
  Li  Li78  1  0.61397686  0.37518169  0.75708978  1
  Li  Li79  1  0.50728592  0.86782970  0.75853417  1
  Li  Li80  1  0.10520320  0.29170607  0.92261281  1
  Li  Li81  1  0.03975293  0.98119263  0.93962779  1
  Li  Li82  1  0.01462565  0.33094460  0.84273114  1
  Li  Li83  1  0.07249298  0.74454883  0.89545000  1
  Li  Li84  1  0.51429875  0.76017501  0.90140476  1
  Li  Li85  1  0.58359857  0.33954683  0.84836788  1
  Li  Li86  1  0.60296807  0.98856766  0.94735159  1
  Li  Li87  1  0.53865023  0.29647693  0.93180749  1
  Li  Li88  1  0.00465534  0.04001677  0.86412921  1
  Li  Li89  1  0.10558407  0.52470518  0.86717342  1
  Li  Li90  1  0.55872036  0.55346388  0.87513859  1
  Li  Li91  1  0.51051751  0.05312708  0.88275533  1
  Li  Li92  1  0.81319604  0.53561056  0.92957078  1
  Li  Li93  1  0.51810942  0.68354920  0.97973357  1
  Li  Li94  1  0.03065564  0.22074953  0.98431110  1
  Li  Li95  1  0.08698753  0.70849336  0.98498295  1
  P  P96  1  0.15978436  0.82102442  0.04360774  1
  P  P97  1  0.64881883  0.46062639  0.05094664  1
  P  P98  1  0.16782261  0.25450631  0.07101845  1
  P  P99  1  0.16668632  0.61532685  0.15828950  1
  P  P100  1  0.66704361  0.89473257  0.09938574  1
  P  P101  1  0.67285691  0.26336871  0.17788857  1
  P  P102  1  0.15879186  0.05747569  0.19787995  1
  P  P103  1  0.16875632  0.42767850  0.28090702  1
  P  P104  1  0.67115989  0.70076314  0.21991802  1
  P  P105  1  0.66415319  0.07243621  0.30329766  1
  P  P106  1  0.16964579  0.86906043  0.32096922  1
  P  P107  1  0.16416942  0.24228063  0.40480804  1
  P  P108  1  0.66846468  0.51347710  0.34169087  1
  P  P109  1  0.67054643  0.89245983  0.42821713  1
  P  P110  1  0.16807814  0.68547378  0.44155802  1
  P  P111  1  0.67001751  0.32434651  0.46544993  1
  P  P112  1  0.81483649  0.60453675  0.54376882  1
  P  P113  1  0.32586996  0.96474156  0.55068038  1
  P  P114  1  0.80863790  0.17100781  0.57093364  1
  P  P115  1  0.80928977  0.81076772  0.65814756  1
  P  P116  1  0.30786866  0.53040927  0.59939593  1
  P  P117  1  0.29930358  0.16082852  0.67781183  1
  P  P118  1  0.81354543  0.36674838  0.69756035  1
  P  P119  1  0.80682846  0.99746943  0.78091224  1
  P  P120  1  0.30386447  0.72473853  0.71970682  1
  P  P121  1  0.31143551  0.35226724  0.80323205  1
  P  P122  1  0.80630377  0.55501823  0.82057180  1
  P  P123  1  0.81133757  0.18249273  0.90488897  1
  P  P124  1  0.30652226  0.91156881  0.84158140  1
  P  P125  1  0.30533068  0.53265816  0.92809611  1
  P  P126  1  0.80469216  0.73923948  0.94135958  1
  P  P127  1  0.30788872  0.10057723  0.96524737  1
  S  S128  1  0.35902472  0.79063327  0.01635637  1
  S  S129  1  0.43588241  0.53859335  0.05045207  1
  S  S130  1  0.86349140  0.53096132  0.04595536  1
  S  S131  1  0.94475068  0.79916199  0.02289280  1
  S  S132  1  0.18746712  0.95881420  0.05285747  1
  S  S133  1  0.62648822  0.36439479  0.01759062  1
  S  S134  1  0.17201729  0.73296855  0.07945721  1
  S  S135  1  0.65003327  0.97471709  0.06256105  1
  S  S136  1  0.12896539  0.31324907  0.03061797  1
  S  S137  1  0.38585363  0.58779623  0.13754854  1
  S  S138  1  0.46749380  0.92119080  0.12588549  1
  S  S139  1  0.46115116  0.33709621  0.17044759  1
  S  S140  1  0.38609652  0.18315538  0.07156460  1
  S  S141  1  0.96319738  0.17761448  0.08162939  1
  S  S142  1  0.88728340  0.33790654  0.17243928  1
  S  S143  1  0.89072028  0.92333469  0.11813737  1
  S  S144  1  0.95751974  0.58785053  0.13432877  1
  S  S145  1  0.66386231  0.75237915  0.09324327  1
  S  S146  1  0.16573958  0.75830310  0.16394907  1
  S  S147  1  0.17827309  0.35300960  0.10408808  1
  S  S148  1  0.67624012  0.16247083  0.14549620  1
  S  S149  1  0.16187882  0.54003090  0.19608235  1
  S  S150  1  0.66655610  0.77107417  0.18169100  1
  S  S151  1  0.66980574  0.39482733  0.09129621  1
  S  S152  1  0.16942368  0.10590900  0.15582348  1
  S  S153  1  0.38256388  0.39231510  0.25932410  1
  S  S154  1  0.45644265  0.72542500  0.24247295  1
  S  S155  1  0.44747633  0.14514938  0.29924997  1
  S  S156  1  0.36862864  0.98283963  0.20624178  1
  S  S157  1  0.94425147  0.98337191  0.20332269  1
  S  S158  1  0.87354350  0.14753173  0.29453101  1
  S  S159  1  0.88450007  0.73350666  0.24235598  1
  S  S160  1  0.95595033  0.40359182  0.25786665  1
  S  S161  1  0.67900306  0.55689197  0.21560109  1
  S  S162  1  0.17713038  0.57060880  0.28561097  1
  S  S163  1  0.15582835  0.16003944  0.22968214  1
  S  S164  1  0.65676184  0.97227140  0.27078756  1
  S  S165  1  0.16261627  0.35423810  0.31914471  1
  S  S166  1  0.65532038  0.58788106  0.30376676  1
  S  S167  1  0.66616349  0.21359967  0.21980098  1
  S  S168  1  0.17360364  0.91758397  0.27908151  1
  S  S169  1  0.38361033  0.20819468  0.38501273  1
  S  S170  1  0.46074665  0.53809914  0.36620131  1
  S  S171  1  0.45821243  0.96641999  0.41994505  1
  S  S172  1  0.38077375  0.79341699  0.32817803  1
  S  S173  1  0.95285003  0.79704583  0.32627709  1
  S  S174  1  0.87971945  0.96631161  0.41799495  1
  S  S175  1  0.88733396  0.54842812  0.36154968  1
  S  S176  1  0.95947256  0.21720758  0.37958383  1
  S  S177  1  0.67512783  0.37043194  0.33737391  1
  S  S178  1  0.17011065  0.38461788  0.41007989  1
  S  S179  1  0.16663764  0.97006890  0.35348970  1
  S  S180  1  0.66670794  0.78747548  0.39688737  1
  S  S181  1  0.15061501  0.16600286  0.44264451  1
  S  S182  1  0.64801506  0.39967425  0.42773328  1
  S  S183  1  0.67640131  0.02439291  0.34545923  1
  S  S184  1  0.18470448  0.74117845  0.39975550  1
  S  S185  1  0.46377951  0.34555028  0.49120289  1
  S  S186  1  0.37618909  0.60723130  0.44923525  1
  S  S187  1  0.94978309  0.61436246  0.44357481  1
  S  S188  1  0.88391977  0.36174070  0.48494604  1
  S  S189  1  0.67395584  0.18017768  0.45998789  1
  S  S190  1  0.16741752  0.79057548  0.47152434  1
  S  S191  1  0.67873553  0.85064208  0.47102418  1
  S  S192  1  0.61613960  0.63575478  0.51643691  1
  S  S193  1  0.53812385  0.88614152  0.55009546  1
  S  S194  1  0.11074835  0.89485732  0.54582892  1
  S  S195  1  0.03005706  0.62687663  0.52313407  1
  S  S196  1  0.78731881  0.46653729  0.55258734  1
  S  S197  1  0.34876345  0.06119252  0.51742490  1
  S  S198  1  0.80200112  0.69207971  0.57971369  1
  S  S199  1  0.32381236  0.45069028  0.56245371  1
  S  S200  1  0.84695810  0.11219135  0.53057836  1
  S  S201  1  0.59041880  0.83834118  0.63732074  1
  S  S202  1  0.50866656  0.50375386  0.62555035  1
  S  S203  1  0.51181587  0.08780952  0.67038316  1
  S  S204  1  0.58985529  0.24203550  0.57159980  1
  S  S205  1  0.01276932  0.24833044  0.58151816  1
  S  S206  1  0.08552636  0.08601882  0.67209235  1
  S  S207  1  0.08466992  0.50164043  0.61832529  1
  S  S208  1  0.01880391  0.83730321  0.63416353  1
  S  S209  1  0.31057921  0.67270676  0.59337567  1
  S  S210  1  0.80915304  0.66782777  0.66405110  1
  S  S211  1  0.79775944  0.07236258  0.60393387  1
  S  S212  1  0.29625369  0.26199494  0.64550490  1
  S  S213  1  0.81416411  0.88623167  0.69589589  1
  S  S214  1  0.30789258  0.65450590  0.68145160  1
  S  S215  1  0.30641032  0.03072649  0.59103884  1
  S  S216  1  0.80208811  0.31739526  0.65560643  1
  S  S217  1  0.59278393  0.03250873  0.75932999  1
  S  S218  1  0.51846326  0.69981145  0.74229736  1
  S  S219  1  0.52846778  0.27980826  0.79920899  1
  S  S220  1  0.60403368  0.44174141  0.70590167  1
  S  S221  1  0.02839765  0.44051148  0.70292530  1
  S  S222  1  0.10263544  0.27666698  0.79443920  1
  S  S223  1  0.09027973  0.69200730  0.74206219  1
  S  S224  1  0.01939205  0.02172386  0.75780990  1
  S  S225  1  0.29712181  0.86857786  0.71542280  1
  S  S226  1  0.79821146  0.85451909  0.78556560  1
  S  S227  1  0.81651603  0.26438114  0.72949789  1
  S  S228  1  0.31742597  0.45250814  0.77076666  1
  S  S229  1  0.81319175  0.07134220  0.81905554  1
  S  S230  1  0.31840538  0.83746520  0.80358342  1
  S  S231  1  0.30500419  0.20986479  0.71977716  1
  S  S232  1  0.80300044  0.50632653  0.77868406  1
  S  S233  1  0.59196354  0.21689311  0.88519317  1
  S  S234  1  0.51421129  0.88620054  0.86600045  1
  S  S235  1  0.51901680  0.45986666  0.91993581  1
  S  S236  1  0.59528129  0.63080426  0.82763152  1
  S  S237  1  0.02233412  0.62760447  0.82618097  1
  S  S238  1  0.09702644  0.45778600  0.91791608  1
  S  S239  1  0.08785052  0.87704426  0.86163291  1
  S  S240  1  0.01597919  0.20750988  0.87963918  1
  S  S241  1  0.30106003  0.05464537  0.83725540  1
  S  S242  1  0.80560935  0.04001624  0.90988924  1
  S  S243  1  0.80911149  0.45409968  0.85315234  1
  S  S244  1  0.30767698  0.63699416  0.89652565  1
  S  S245  1  0.82557802  0.25801084  0.94285364  1
  S  S246  1  0.32792162  0.02557605  0.92745311  1
  S  S247  1  0.29946339  0.39989263  0.84541286  1
  S  S248  1  0.78990770  0.68276798  0.89964063  1
  S  S249  1  0.51468734  0.07930853  0.99083138  1
  S  S250  1  0.59622812  0.81730021  0.94882517  1
  S  S251  1  0.02258334  0.81087707  0.94331567  1
  S  S252  1  0.09492682  0.06245915  0.98495147  1
  S  S253  1  0.30275667  0.24480331  0.95995164  1
  S  S254  1  0.80570501  0.63476801  0.97159016  1
  S  S255  1  0.29514555  0.57478306  0.97084709  1
