# generated using pymatgen
data_Li3PS4
_symmetry_space_group_name_H-M   'P 1'
_cell_length_a   8.10679100
_cell_length_b   18.09023400
_cell_length_c   43.99970915
_cell_angle_alpha   90.00000000
_cell_angle_beta   90.00000000
_cell_angle_gamma   90.00000000
_symmetry_Int_Tables_number   1
_chemical_formula_structural   Li3PS4
_chemical_formula_sum   'Li108 P36 S144'
_cell_volume   6452.72217773
_cell_formula_units_Z   36
loop_
 _symmetry_equiv_pos_site_id
 _symmetry_equiv_pos_as_xyz
  1  'x, y, z'
loop_
 _atom_site_type_symbol
 _atom_site_label
 _atom_site_symmetry_multiplicity
 _atom_site_fract_x
 _atom_site_fract_y
 _atom_site_fract_z
 _atom_site_occupancy
  Li  Li0  1  0.07367874  0.95070111  0.06980362  1
  Li  Li1  1  0.08418201  0.74728451  0.05109874  1
  Li  Li2  1  0.96904087  0.15422830  0.05301407  1
  Li  Li3  1  0.54200605  0.19440344  0.04239128  1
  Li  Li4  1  0.48004063  0.74605276  0.04962072  1
  Li  Li5  1  0.49993076  0.96265703  0.07026797  1
  Li  Li6  1  0.04013378  0.31253722  0.05624866  1
  Li  Li7  1  0.67868228  0.36697251  0.04571691  1
  Li  Li8  1  0.00379483  0.51192452  0.12206745  1
  Li  Li9  1  0.06638132  0.73345992  0.17806144  1
  Li  Li10  1  0.06077929  0.28711825  0.14583938  1
  Li  Li11  1  0.99318581  0.92937896  0.15851999  1
  Li  Li12  1  0.56017282  0.94107328  0.15749915  1
  Li  Li13  1  0.46835652  0.31012552  0.13881260  1
  Li  Li14  1  0.47809227  0.72966072  0.18020258  1
  Li  Li15  1  0.56070667  0.51878198  0.12210760  1
  Li  Li16  1  0.95247348  0.72718427  0.11300600  1
  Li  Li17  1  0.08331469  0.09282455  0.15397557  1
  Li  Li18  1  0.58528091  0.13882026  0.14156921  1
  Li  Li19  1  0.56458526  0.73406526  0.11590573  1
  Li  Li20  1  0.99645761  0.26113425  0.22612766  1
  Li  Li21  1  0.06259213  0.49108581  0.27447760  1
  Li  Li22  1  0.05168129  0.05565547  0.25178603  1
  Li  Li23  1  0.98961694  0.69449266  0.25985121  1
  Li  Li24  1  0.56240208  0.70389810  0.26137194  1
  Li  Li25  1  0.49010634  0.06935574  0.24519406  1
  Li  Li26  1  0.50267619  0.49663730  0.27394696  1
  Li  Li27  1  0.56302922  0.26300691  0.22502838  1
  Li  Li28  1  0.00004817  0.49068066  0.20537366  1
  Li  Li29  1  0.08037560  0.86280497  0.25980668  1
  Li  Li30  1  0.57348900  0.90149553  0.25085943  1
  Li  Li31  1  0.55028943  0.49075175  0.20390231  1
  Li  Li32  1  0.03431521  0.02291612  0.34969472  1
  Li  Li33  1  0.05905176  0.24934395  0.37465776  1
  Li  Li34  1  0.07348758  0.81961230  0.34576824  1
  Li  Li35  1  0.00146067  0.46981169  0.35332735  1
  Li  Li36  1  0.58474213  0.43823870  0.35898404  1
  Li  Li37  1  0.50141222  0.81237347  0.34788108  1
  Li  Li38  1  0.47070907  0.19408046  0.37739921  1
  Li  Li39  1  0.56539860  0.99940355  0.35359644  1
  Li  Li40  1  0.04906455  0.25610509  0.29740335  1
  Li  Li41  1  0.96299359  0.65532665  0.35191448  1
  Li  Li42  1  0.47432541  0.60990314  0.36185020  1
  Li  Li43  1  0.49099180  0.26611273  0.29461663  1
  Li  Li44  1  0.04045391  0.77904440  0.42606901  1
  Li  Li45  1  0.93393777  0.49180859  0.50796420  1
  Li  Li46  1  0.01607721  0.29995272  0.43919676  1
  Li  Li47  1  0.49943486  0.28602515  0.44600481  1
  Li  Li48  1  0.49837773  0.47877558  0.51996542  1
  Li  Li49  1  0.61049045  0.79128600  0.42912557  1
  Li  Li50  1  0.98790575  0.98210965  0.43090353  1
  Li  Li51  1  0.01220660  0.46652886  0.43814292  1
  Li  Li52  1  0.52770908  0.45931220  0.44228560  1
  Li  Li53  1  0.59708266  0.02171158  0.43372732  1
  Li  Li54  1  0.44065573  0.29395169  0.56618433  1
  Li  Li55  1  0.49714518  0.80557276  0.55798611  1
  Li  Li56  1  0.49348575  0.06838472  0.55827824  1
  Li  Li57  1  0.93478369  0.07859289  0.53805399  1
  Li  Li58  1  0.90991027  0.78138598  0.54651660  1
  Li  Li59  1  0.99583072  0.29163070  0.56866217  1
  Li  Li60  1  0.29069932  0.88994370  0.48202315  1
  Li  Li61  1  0.00970299  0.93828564  0.55917171  1
  Li  Li62  1  0.48503114  0.76116169  0.62678400  1
  Li  Li63  1  0.42354279  0.53225081  0.66625905  1
  Li  Li64  1  0.42673063  0.97229259  0.64413147  1
  Li  Li65  1  0.49923448  0.33049185  0.64737688  1
  Li  Li66  1  0.92780507  0.31927880  0.65008008  1
  Li  Li67  1  0.00097082  0.94845979  0.63998011  1
  Li  Li68  1  0.99026780  0.52196206  0.65887311  1
  Li  Li69  1  0.90874855  0.73593611  0.61898499  1
  Li  Li70  1  0.52075605  0.54451896  0.59613041  1
  Li  Li71  1  0.39925024  0.16297295  0.64878189  1
  Li  Li72  1  0.89698545  0.12038845  0.63842450  1
  Li  Li73  1  0.03083156  0.51359868  0.57813011  1
  Li  Li74  1  0.48943411  0.99406666  0.72711507  1
  Li  Li75  1  0.43278867  0.75901564  0.77215586  1
  Li  Li76  1  0.42874608  0.19088854  0.74184075  1
  Li  Li77  1  0.49490059  0.55117118  0.75343630  1
  Li  Li78  1  0.93078958  0.56058615  0.75098015  1
  Li  Li79  1  0.99199258  0.19929470  0.74082745  1
  Li  Li80  1  0.99585764  0.75903352  0.76810568  1
  Li  Li81  1  0.92711985  0.99043172  0.72021860  1
  Li  Li82  1  0.51396159  0.76839929  0.70488601  1
  Li  Li83  1  0.51503771  0.35905310  0.74057752  1
  Li  Li84  1  0.01344521  0.39355532  0.74906208  1
  Li  Li85  1  0.01058315  0.74582312  0.68774009  1
  Li  Li86  1  0.48927266  0.24399657  0.83687630  1
  Li  Li87  1  0.28701026  0.09129529  0.87997634  1
  Li  Li88  1  0.43538545  0.43306685  0.84040133  1
  Li  Li89  1  0.50563602  0.80080180  0.85321823  1
  Li  Li90  1  0.92715563  0.77873608  0.85065428  1
  Li  Li91  1  0.99676688  0.42353668  0.84231069  1
  Li  Li92  1  0.99368779  0.98165706  0.86500432  1
  Li  Li93  1  0.95523012  0.24156958  0.83840115  1
  Li  Li94  1  0.51890962  0.00445312  0.80942799  1
  Li  Li95  1  0.40626257  0.62613428  0.85627019  1
  Li  Li96  1  0.90629014  0.58864846  0.84500101  1
  Li  Li97  1  0.01033146  0.98523493  0.78966910  1
  Li  Li98  1  0.43820187  0.34071043  0.95822392  1
  Li  Li99  1  0.44831585  0.66047456  0.95494009  1
  Li  Li100  1  0.46200228  0.96424456  0.93985487  1
  Li  Li101  1  0.01963644  0.95997350  0.93697446  1
  Li  Li102  1  0.01092248  0.65170346  0.93682284  1
  Li  Li103  1  0.97892880  0.37029481  0.95348093  1
  Li  Li104  1  0.52518924  0.22458181  0.91200403  1
  Li  Li105  1  0.50215082  0.80499531  0.93818139  1
  Li  Li106  1  0.96751076  0.80380675  0.94915845  1
  Li  Li107  1  0.94973741  0.21922673  0.91349186  1
  P  P108  1  0.28666920  0.84427724  0.00200615  1
  P  P109  1  0.77963393  0.86465323  0.08457064  1
  P  P110  1  0.27707624  0.62382992  0.11383891  1
  P  P111  1  0.77720072  0.62687127  0.18592948  1
  P  P112  1  0.78290720  0.32454963  0.10681742  1
  P  P113  1  0.27560743  0.14405441  0.09266648  1
  P  P114  1  0.27603595  0.36874626  0.21731336  1
  P  P115  1  0.78244355  0.38416116  0.28196820  1
  P  P116  1  0.78181185  0.08040633  0.20263906  1
  P  P117  1  0.27855776  0.91537456  0.20160934  1
  P  P118  1  0.28926317  0.13696226  0.32165983  1
  P  P119  1  0.80030147  0.15619990  0.40296454  1
  P  P120  1  0.78737733  0.84718843  0.30746082  1
  P  P121  1  0.27355820  0.67251918  0.30257246  1
  P  P122  1  0.31305679  0.89386937  0.41646454  1
  P  P123  1  0.83616128  0.89122506  0.49317364  1
  P  P124  1  0.77378281  0.60396952  0.40995960  1
  P  P125  1  0.28075017  0.43686483  0.39684355  1
  P  P126  1  0.21716602  0.37930271  0.50756329  1
  P  P127  1  0.72411115  0.39735676  0.57603633  1
  P  P128  1  0.21674389  0.66139713  0.60371197  1
  P  P129  1  0.71297201  0.62977399  0.67785791  1
  P  P130  1  0.70414308  0.93594276  0.59985712  1
  P  P131  1  0.19218974  0.10597286  0.59018431  1
  P  P132  1  0.21402621  0.88407295  0.71371679  1
  P  P133  1  0.71566389  0.86582388  0.78002282  1
  P  P134  1  0.70314589  0.17529084  0.69635896  1
  P  P135  1  0.22009140  0.34515704  0.69137086  1
  P  P136  1  0.22329141  0.11716784  0.81323458  1
  P  P137  1  0.72447497  0.08140692  0.88631329  1
  P  P138  1  0.72317059  0.40761971  0.79804457  1
  P  P139  1  0.20631603  0.57687947  0.79639554  1
  P  P140  1  0.23242144  0.34093650  0.90690846  1
  P  P141  1  0.74487972  0.27516050  0.99290139  1
  P  P142  1  0.70132192  0.64048090  0.90356026  1
  P  P143  1  0.21293221  0.80740754  0.89501731  1
  S  S144  1  0.50089529  0.88191701  0.98247871  1
  S  S145  1  0.07476642  0.89259902  0.98494683  1
  S  S146  1  0.77815675  0.76121335  0.06387003  1
  S  S147  1  0.29277750  0.86480147  0.04842244  1
  S  S148  1  0.78163192  0.25272480  0.07080557  1
  S  S149  1  0.28245015  0.72792174  0.00427089  1
  S  S150  1  0.78480392  0.94895971  0.05444276  1
  S  S151  1  0.24690420  0.21194646  0.05574157  1
  S  S152  1  0.48607464  0.62654183  0.08719760  1
  S  S153  1  0.56743084  0.86890425  0.11029214  1
  S  S154  1  0.58473123  0.39404048  0.09914594  1
  S  S155  1  0.49926344  0.09242846  0.08805582  1
  S  S156  1  0.07583621  0.07435485  0.09498981  1
  S  S157  1  0.00561378  0.37995948  0.10522432  1
  S  S158  1  0.99221262  0.86241416  0.11032774  1
  S  S159  1  0.06896384  0.62332562  0.08705702  1
  S  S160  1  0.77688222  0.52695403  0.16281501  1
  S  S161  1  0.27641032  0.72268837  0.13839574  1
  S  S162  1  0.28485121  0.19785375  0.13492668  1
  S  S163  1  0.78955620  0.02933181  0.16013853  1
  S  S164  1  0.28071396  0.53288883  0.14097380  1
  S  S165  1  0.77199541  0.72043289  0.15870094  1
  S  S166  1  0.75817861  0.26750113  0.14660311  1
  S  S167  1  0.27400209  0.98180809  0.16395045  1
  S  S168  1  0.48433268  0.36204702  0.19083493  1
  S  S169  1  0.56872166  0.62840594  0.21232022  1
  S  S170  1  0.57131350  0.14338360  0.20045322  1
  S  S171  1  0.49403506  0.85511200  0.19963583  1
  S  S172  1  0.06671651  0.85304989  0.20272801  1
  S  S173  1  0.00200666  0.13696027  0.20582522  1
  S  S174  1  0.99275297  0.62942717  0.21024897  1
  S  S175  1  0.06254598  0.36190852  0.19241903  1
  S  S176  1  0.78021168  0.27804619  0.26389270  1
  S  S177  1  0.27853311  0.47439535  0.23606449  1
  S  S178  1  0.28576002  0.96833856  0.24349104  1
  S  S179  1  0.78808789  0.79652337  0.26476839  1
  S  S180  1  0.28088952  0.28141908  0.24739173  1
  S  S181  1  0.78297848  0.47084304  0.25127941  1
  S  S182  1  0.76995122  0.01306825  0.23987830  1
  S  S183  1  0.27219937  0.74442259  0.26644056  1
  S  S184  1  0.49029895  0.12970241  0.29427092  1
  S  S185  1  0.57019365  0.39393715  0.30688545  1
  S  S186  1  0.57478605  0.90830793  0.30882963  1
  S  S187  1  0.48953469  0.61372871  0.30120660  1
  S  S188  1  0.05955748  0.61025909  0.30093032  1
  S  S189  1  0.99512794  0.91234698  0.30883904  1
  S  S190  1  0.99290445  0.38975465  0.30769219  1
  S  S191  1  0.06327177  0.11586142  0.30242768  1
  S  S192  1  0.80524991  0.04440438  0.39064112  1
  S  S193  1  0.28234517  0.24631268  0.33691946  1
  S  S194  1  0.27276215  0.72154508  0.34506698  1
  S  S195  1  0.76337696  0.54606990  0.36825661  1
  S  S196  1  0.31620125  0.07281439  0.35999859  1
  S  S197  1  0.76644849  0.22365695  0.36678949  1
  S  S198  1  0.78887485  0.77424811  0.34306570  1
  S  S199  1  0.30222946  0.48699893  0.35528957  1
  S  S200  1  0.52768722  0.89446192  0.39222834  1
  S  S201  1  0.59435833  0.16280261  0.43124790  1
  S  S202  1  0.56821545  0.66742479  0.41050071  1
  S  S203  1  0.47990942  0.36434374  0.40117276  1
  S  S204  1  0.05631142  0.37931875  0.39544667  1
  S  S205  1  0.99391187  0.65723275  0.40760079  1
  S  S206  1  0.02113781  0.17579940  0.42400971  1
  S  S207  1  0.10504639  0.89367213  0.39013975  1
  S  S208  1  0.84585218  0.86395686  0.44829421  1
  S  S209  1  0.30053933  0.98577003  0.44437288  1
  S  S210  1  0.27639518  0.51351432  0.42994945  1
  S  S211  1  0.31787194  0.80034673  0.44335662  1
  S  S212  1  0.79942487  0.00399531  0.49060462  1
  S  S213  1  0.77071141  0.53367537  0.44780971  1
  S  S214  1  0.66755444  0.81997081  0.51367861  1
  S  S215  1  0.05909663  0.86615015  0.51527510  1
  S  S216  1  0.00488769  0.38001206  0.48141216  1
  S  S217  1  0.44502263  0.37786359  0.48593244  1
  S  S218  1  0.73331465  0.49944507  0.55259813  1
  S  S219  1  0.21249391  0.28525953  0.53261164  1
  S  S220  1  0.72471780  0.98904620  0.55883212  1
  S  S221  1  0.21045696  0.47980616  0.53062482  1
  S  S222  1  0.72203715  0.30856319  0.54833383  1
  S  S223  1  0.21012468  0.03422364  0.55378825  1
  S  S224  1  0.01236573  0.66172430  0.57577384  1
  S  S225  1  0.93348900  0.39644488  0.60273116  1
  S  S226  1  0.90362168  0.86284262  0.59972556  1
  S  S227  1  0.97447553  0.16197220  0.58555235  1
  S  S228  1  0.40625903  0.16721961  0.59107169  1
  S  S229  1  0.47956251  0.88280816  0.60171527  1
  S  S230  1  0.50698119  0.40228994  0.59998217  1
  S  S231  1  0.43735220  0.67692283  0.58089746  1
  S  S232  1  0.71729085  0.73716671  0.66079338  1
  S  S233  1  0.22746793  0.55429078  0.62109742  1
  S  S234  1  0.18727804  0.05513217  0.63263393  1
  S  S235  1  0.69917853  0.22685327  0.65382031  1
  S  S236  1  0.19463622  0.74083427  0.63655779  1
  S  S237  1  0.70272981  0.54971285  0.64497478  1
  S  S238  1  0.71951578  0.00065026  0.63789568  1
  S  S239  1  0.21801530  0.27738352  0.65396531  1
  S  S240  1  0.00307190  0.88468123  0.68789053  1
  S  S241  1  0.93473536  0.61684471  0.69998347  1
  S  S242  1  0.91778086  0.11516149  0.69683577  1
  S  S243  1  0.00794030  0.40678229  0.69097062  1
  S  S244  1  0.43166459  0.40842044  0.69040520  1
  S  S245  1  0.49069777  0.11222884  0.69777604  1
  S  S246  1  0.50675919  0.62512619  0.70474185  1
  S  S247  1  0.42947220  0.89441036  0.68939850  1
  S  S248  1  0.72429835  0.97148676  0.76163100  1
  S  S249  1  0.22310091  0.77753739  0.73185699  1
  S  S250  1  0.22193771  0.29174174  0.73323037  1
  S  S251  1  0.72624590  0.46100264  0.75592860  1
  S  S252  1  0.20482988  0.97045713  0.74357718  1
  S  S253  1  0.71267773  0.77893062  0.75002190  1
  S  S254  1  0.70689898  0.24459398  0.73295434  1
  S  S255  1  0.20937373  0.50859016  0.75926580  1
  S  S256  1  0.01237696  0.12505858  0.78840232  1
  S  S257  1  0.92959201  0.85663792  0.80522012  1
  S  S258  1  0.93289660  0.34342170  0.79889470  1
  S  S259  1  0.99314209  0.63936833  0.79492195  1
  S  S260  1  0.42158056  0.63660343  0.79636022  1
  S  S261  1  0.51000928  0.34702994  0.79781776  1
  S  S262  1  0.50239749  0.86337144  0.80496248  1
  S  S263  1  0.44209410  0.12888570  0.79051887  1
  S  S264  1  0.72478572  0.18835007  0.86978611  1
  S  S265  1  0.23152315  0.01261301  0.83344766  1
  S  S266  1  0.20318235  0.52444130  0.83852559  1
  S  S267  1  0.69529820  0.69609862  0.86191072  1
  S  S268  1  0.22234174  0.19366282  0.84785192  1
  S  S269  1  0.71035390  0.99905226  0.85550496  1
  S  S270  1  0.72043956  0.47614626  0.83501360  1
  S  S271  1  0.21963144  0.74700133  0.85617861  1
  S  S272  1  0.00971976  0.34001931  0.88442202  1
  S  S273  1  0.94847393  0.07272115  0.91006171  1
  S  S274  1  0.89971918  0.57207265  0.90208190  1
  S  S275  1  0.98889156  0.86343019  0.89675815  1
  S  S276  1  0.40934590  0.87964665  0.89517782  1
  S  S277  1  0.48527785  0.58662747  0.90917301  1
  S  S278  1  0.52589082  0.08174327  0.91637318  1
  S  S279  1  0.44290025  0.34355222  0.88112634  1
  S  S280  1  0.91843039  0.35291701  0.00726823  1
  S  S281  1  0.24166935  0.24511739  0.93273372  1
  S  S282  1  0.22443031  0.74583847  0.93486113  1
  S  S283  1  0.23490024  0.42784379  0.93669863  1
  S  S284  1  0.73749284  0.28863962  0.94607745  1
  S  S285  1  0.72821340  0.71155017  0.94188477  1
  S  S286  1  0.78730081  0.16848898  0.00579857  1
  S  S287  1  0.51558417  0.30790604  0.00860321  1
