# generated using pymatgen
data_Li3PS4
_symmetry_space_group_name_H-M   'P 1'
_cell_length_a   8.10679100
_cell_length_b   18.09023400
_cell_length_c   44.23857891
_cell_angle_alpha   90.00000000
_cell_angle_beta   90.00000000
_cell_angle_gamma   90.00000000
_symmetry_Int_Tables_number   1
_chemical_formula_structural   Li3PS4
_chemical_formula_sum   'Li108 P36 S144'
_cell_volume   6487.75332321
_cell_formula_units_Z   36
loop_
 _symmetry_equiv_pos_site_id
 _symmetry_equiv_pos_as_xyz
  1  'x, y, z'
loop_
 _atom_site_type_symbol
 _atom_site_label
 _atom_site_symmetry_multiplicity
 _atom_site_fract_x
 _atom_site_fract_y
 _atom_site_fract_z
 _atom_site_occupancy
  Li  Li0  1  0.01752115  0.94451425  0.06834343  1
  Li  Li1  1  0.99639203  0.43663468  0.05552880  1
  Li  Li2  1  0.02740271  0.28244303  0.96658091  1
  Li  Li3  1  0.42712416  0.30027471  0.97527311  1
  Li  Li4  1  0.51719099  0.43383161  0.06399045  1
  Li  Li5  1  0.46027931  0.94476354  0.06939292  1
  Li  Li6  1  0.99199845  0.25464931  0.05517128  1
  Li  Li7  1  0.48331451  0.25671224  0.05780408  1
  Li  Li8  1  0.94736805  0.47738425  0.12356850  1
  Li  Li9  1  0.01716859  0.70580711  0.16476186  1
  Li  Li10  1  0.04909371  0.28100198  0.14240703  1
  Li  Li11  1  0.95783814  0.91188222  0.15478746  1
  Li  Li12  1  0.52149841  0.89853425  0.15369451  1
  Li  Li13  1  0.46247185  0.25211838  0.14760923  1
  Li  Li14  1  0.44981791  0.69400226  0.17144303  1
  Li  Li15  1  0.51521732  0.46169905  0.13264428  1
  Li  Li16  1  0.04631674  0.71186884  0.08441358  1
  Li  Li17  1  0.93447039  0.11009062  0.14399613  1
  Li  Li18  1  0.42175667  0.06614427  0.15295253  1
  Li  Li19  1  0.54349387  0.68385647  0.10294034  1
  Li  Li20  1  0.95825573  0.23465288  0.22312299  1
  Li  Li21  1  0.02373665  0.46406421  0.27237177  1
  Li  Li22  1  0.01589326  0.02157515  0.24427838  1
  Li  Li23  1  0.94911966  0.66410803  0.25519335  1
  Li  Li24  1  0.51610061  0.67453029  0.25679297  1
  Li  Li25  1  0.45061307  0.03232390  0.24589423  1
  Li  Li26  1  0.45870190  0.46317757  0.27751508  1
  Li  Li27  1  0.52288254  0.23341199  0.22807575  1
  Li  Li28  1  0.04031498  0.48027772  0.19382290  1
  Li  Li29  1  0.03278834  0.83020728  0.25432091  1
  Li  Li30  1  0.53226651  0.86573535  0.24618549  1
  Li  Li31  1  0.54738260  0.45775531  0.20937069  1
  Li  Li32  1  0.94740255  0.00423246  0.32984064  1
  Li  Li33  1  0.00619304  0.24034453  0.36767415  1
  Li  Li34  1  0.02105587  0.80008162  0.34706351  1
  Li  Li35  1  0.95613019  0.44637214  0.35305210  1
  Li  Li36  1  0.54240453  0.41749946  0.35772479  1
  Li  Li37  1  0.45738349  0.78630264  0.34626464  1
  Li  Li38  1  0.43762144  0.21674793  0.37687542  1
  Li  Li39  1  0.51444661  0.99200676  0.33595927  1
  Li  Li40  1  0.04150904  0.24041868  0.29062223  1
  Li  Li41  1  0.91884458  0.63168761  0.34789460  1
  Li  Li42  1  0.42781017  0.58788519  0.35776050  1
  Li  Li43  1  0.53130541  0.21874331  0.30680116  1
  Li  Li44  1  0.94936492  0.75557334  0.42996506  1
  Li  Li45  1  0.94724239  0.40264205  0.52754101  1
  Li  Li46  1  0.01920088  0.26792331  0.43809270  1
  Li  Li47  1  0.49813783  0.26144903  0.44400046  1
  Li  Li48  1  0.53961459  0.45327309  0.51780214  1
  Li  Li49  1  0.50622385  0.75495577  0.43330781  1
  Li  Li50  1  0.04232240  0.01705012  0.39838983  1
  Li  Li51  1  0.98938241  0.44826929  0.44328554  1
  Li  Li52  1  0.50062334  0.43717943  0.44057317  1
  Li  Li53  1  0.55405478  0.98134278  0.41672303  1
  Li  Li54  1  0.49811151  0.25005944  0.56546657  1
  Li  Li55  1  0.50347527  0.76600919  0.56184153  1
  Li  Li56  1  0.44226425  0.93718332  0.48116917  1
  Li  Li57  1  0.03387629  0.90274666  0.46890419  1
  Li  Li58  1  0.98884551  0.76248493  0.55786982  1
  Li  Li59  1  0.05240579  0.26237486  0.57102869  1
  Li  Li60  1  0.49624299  0.93889147  0.56009241  1
  Li  Li61  1  0.00686288  0.94754101  0.55444600  1
  Li  Li62  1  0.54177508  0.72687275  0.62935767  1
  Li  Li63  1  0.47286254  0.50480024  0.66693705  1
  Li  Li64  1  0.47939149  0.94432419  0.64607261  1
  Li  Li65  1  0.54168461  0.30006620  0.65297695  1
  Li  Li66  1  0.97697463  0.28967918  0.65319061  1
  Li  Li67  1  0.06534213  0.92423046  0.64343646  1
  Li  Li68  1  0.04000233  0.49464793  0.66807989  1
  Li  Li69  1  0.97622105  0.73178966  0.62601504  1
  Li  Li70  1  0.42788502  0.47546797  0.58309755  1
  Li  Li71  1  0.44724400  0.13342508  0.65149599  1
  Li  Li72  1  0.95694137  0.09213260  0.64255646  1
  Li  Li73  1  0.94749565  0.51520479  0.60106165  1
  Li  Li74  1  0.54920130  0.96720607  0.72717778  1
  Li  Li75  1  0.48480045  0.73614759  0.77693149  1
  Li  Li76  1  0.47743995  0.16695885  0.74541498  1
  Li  Li77  1  0.53953236  0.52555648  0.75587395  1
  Li  Li78  1  0.97292786  0.53278282  0.75488820  1
  Li  Li79  1  0.04163431  0.17586704  0.74256164  1
  Li  Li80  1  0.04618362  0.73424534  0.77169646  1
  Li  Li81  1  0.98266151  0.96533861  0.72311883  1
  Li  Li82  1  0.56589069  0.74147439  0.70826010  1
  Li  Li83  1  0.55604198  0.33432820  0.74523874  1
  Li  Li84  1  0.05399085  0.36597733  0.75389300  1
  Li  Li85  1  0.06091354  0.72192587  0.69420318  1
  Li  Li86  1  0.53280692  0.20859278  0.83523564  1
  Li  Li87  1  0.46672031  0.97749332  0.87637710  1
  Li  Li88  1  0.47867905  0.41571758  0.84567150  1
  Li  Li89  1  0.57145551  0.78220870  0.85793731  1
  Li  Li90  1  0.98354956  0.75462391  0.85276878  1
  Li  Li91  1  0.04231180  0.39911927  0.84628380  1
  Li  Li92  1  0.03340825  0.96374541  0.86780269  1
  Li  Li93  1  0.96420416  0.19412279  0.82796698  1
  Li  Li94  1  0.55967449  0.98103686  0.80608938  1
  Li  Li95  1  0.45651091  0.61305481  0.85605327  1
  Li  Li96  1  0.94699242  0.56818326  0.84722255  1
  Li  Li97  1  0.06876454  0.95840440  0.79078326  1
  Li  Li98  1  0.53829047  0.44408312  0.93014711  1
  Li  Li99  1  0.52082847  0.78704800  0.03344571  1
  Li  Li100  1  0.50062498  0.93837713  0.94460164  1
  Li  Li101  1  0.02050165  0.93378403  0.93622504  1
  Li  Li102  1  0.92018067  0.79705473  0.02433671  1
  Li  Li103  1  0.97898612  0.44656430  0.93190116  1
  Li  Li104  1  0.56123254  0.21430972  0.91572375  1
  Li  Li105  1  0.50675718  0.75480250  0.94511089  1
  Li  Li106  1  0.99646037  0.75718244  0.94194543  1
  Li  Li107  1  0.05902952  0.18407976  0.89617477  1
  P  P108  1  0.23683475  0.85622851  0.00714512  1
  P  P109  1  0.24744453  0.56473770  0.11014522  1
  P  P110  1  0.74760951  0.82514799  0.08237439  1
  P  P111  1  0.74186389  0.28346330  0.10397443  1
  P  P112  1  0.23313214  0.11708298  0.09510546  1
  P  P113  1  0.24532243  0.34225602  0.21719246  1
  P  P114  1  0.74325727  0.59576598  0.18183669  1
  P  P115  1  0.72800573  0.04926761  0.20161469  1
  P  P116  1  0.24292926  0.87990063  0.19688748  1
  P  P117  1  0.23871208  0.10239967  0.31888932  1
  P  P118  1  0.74336533  0.35554340  0.28349599  1
  P  P119  1  0.74222171  0.81766798  0.30389755  1
  P  P120  1  0.22715099  0.64731480  0.29931809  1
  P  P121  1  0.24399123  0.87133974  0.41873730  1
  P  P122  1  0.74224128  0.13478223  0.39082737  1
  P  P123  1  0.72961952  0.58222423  0.40594975  1
  P  P124  1  0.23737876  0.41536938  0.39609148  1
  P  P125  1  0.72964567  0.84448756  0.49292461  1
  P  P126  1  0.26761277  0.34712900  0.50743029  1
  P  P127  1  0.25229597  0.63368251  0.60978236  1
  P  P128  1  0.74985154  0.37053132  0.58043500  1
  P  P129  1  0.76452012  0.91651793  0.60375623  1
  P  P130  1  0.25416823  0.08295139  0.59386473  1
  P  P131  1  0.26937391  0.85846928  0.71691144  1
  P  P132  1  0.76828812  0.60412679  0.68136729  1
  P  P133  1  0.75103551  0.14993129  0.70062240  1
  P  P134  1  0.26363332  0.31864646  0.69600076  1
  P  P135  1  0.26178139  0.09725379  0.81812574  1
  P  P136  1  0.76827797  0.84355230  0.78272530  1
  P  P137  1  0.76291118  0.38192128  0.80331438  1
  P  P138  1  0.25002147  0.55131886  0.79863376  1
  P  P139  1  0.25984614  0.32691703  0.91746487  1
  P  P140  1  0.76202854  0.06594748  0.88978837  1
  P  P141  1  0.75112368  0.61781041  0.90516611  1
  P  P142  1  0.26083545  0.78443081  0.89619040  1
  P  P143  1  0.74647931  0.35595053  0.99271988  1
  S  S144  1  0.46210509  0.84975663  0.98465767  1
  S  S145  1  0.02672477  0.85815491  0.97984138  1
  S  S146  1  0.75200561  0.72212624  0.06078037  1
  S  S147  1  0.24009113  0.95099252  0.03157709  1
  S  S148  1  0.73946609  0.20727966  0.07115831  1
  S  S149  1  0.22055086  0.76044307  0.03199041  1
  S  S150  1  0.74333331  0.90169263  0.04831697  1
  S  S151  1  0.23863130  0.18417526  0.05750705  1
  S  S152  1  0.47184448  0.55251119  0.08863079  1
  S  S153  1  0.52842638  0.82967231  0.10513272  1
  S  S154  1  0.51981448  0.34268980  0.10437186  1
  S  S155  1  0.44573197  0.05735299  0.09805063  1
  S  S156  1  0.01925972  0.05774074  0.09602816  1
  S  S157  1  0.94591861  0.35459990  0.09937011  1
  S  S158  1  0.96020945  0.83531156  0.10690364  1
  S  S159  1  0.04830687  0.55938635  0.08121457  1
  S  S160  1  0.75072599  0.48830976  0.16488558  1
  S  S161  1  0.24903564  0.67300559  0.12637473  1
  S  S162  1  0.22753801  0.17446348  0.13692028  1
  S  S163  1  0.72506875  0.99881212  0.15955979  1
  S  S164  1  0.22787821  0.48582592  0.14298525  1
  S  S165  1  0.73074723  0.67757221  0.14982444  1
  S  S166  1  0.76183655  0.23581430  0.14574066  1
  S  S167  1  0.24365057  0.94953235  0.16052974  1
  S  S168  1  0.45928279  0.33356978  0.19243432  1
  S  S169  1  0.53638667  0.59895344  0.20849941  1
  S  S170  1  0.51569952  0.11238646  0.20326742  1
  S  S171  1  0.45426061  0.81620287  0.19582073  1
  S  S172  1  0.02824303  0.82016063  0.19604085  1
  S  S173  1  0.94432585  0.10854057  0.20258309  1
  S  S174  1  0.96298276  0.60963301  0.20435076  1
  S  S175  1  0.03443504  0.34107980  0.19166823  1
  S  S176  1  0.75091087  0.25054846  0.26415402  1
  S  S177  1  0.25298366  0.44728131  0.23651278  1
  S  S178  1  0.24561821  0.93129557  0.23915190  1
  S  S179  1  0.74479240  0.76538690  0.26176642  1
  S  S180  1  0.23901890  0.25407932  0.24631016  1
  S  S181  1  0.73900281  0.44393335  0.25447611  1
  S  S182  1  0.72931370  0.97963189  0.23823671  1
  S  S183  1  0.22882326  0.71609870  0.26242649  1
  S  S184  1  0.45916902  0.08895823  0.29650724  1
  S  S185  1  0.53156733  0.35697352  0.30881056  1
  S  S186  1  0.52711399  0.87720527  0.30468717  1
  S  S187  1  0.44394778  0.58843453  0.29877507  1
  S  S188  1  0.01490272  0.58404115  0.29779770  1
  S  S189  1  0.95285811  0.88169591  0.30462684  1
  S  S190  1  0.95668700  0.36407409  0.30843313  1
  S  S191  1  0.03235129  0.09826103  0.29216742  1
  S  S192  1  0.74658262  0.02635268  0.37469411  1
  S  S193  1  0.24368707  0.21021228  0.33558001  1
  S  S194  1  0.22303276  0.69886110  0.34117518  1
  S  S195  1  0.72119068  0.52396432  0.36438905  1
  S  S196  1  0.22789843  0.02136521  0.35120127  1
  S  S197  1  0.71965148  0.21309469  0.35784304  1
  S  S198  1  0.74329436  0.74851819  0.34042257  1
  S  S199  1  0.25533443  0.46269123  0.35428518  1
  S  S200  1  0.45912484  0.86026571  0.39485609  1
  S  S201  1  0.54257021  0.13883117  0.41969645  1
  S  S202  1  0.51737721  0.64223407  0.40511885  1
  S  S203  1  0.43808179  0.34167840  0.39976605  1
  S  S204  1  0.01304917  0.35833159  0.39706165  1
  S  S205  1  0.94395947  0.64027433  0.40301805  1
  S  S206  1  0.96611971  0.14896635  0.41237061  1
  S  S207  1  0.02893878  0.87291192  0.39450240  1
  S  S208  1  0.73143834  0.74969705  0.46867410  1
  S  S209  1  0.25278957  0.97452523  0.44068005  1
  S  S210  1  0.24856446  0.49199427  0.42865566  1
  S  S211  1  0.22411433  0.79231418  0.45126730  1
  S  S212  1  0.73214048  0.94118291  0.46800566  1
  S  S213  1  0.73535605  0.51440260  0.44363448  1
  S  S214  1  0.51326032  0.84650442  0.51860256  1
  S  S215  1  0.94976089  0.84752097  0.51710126  1
  S  S216  1  0.05499111  0.34778657  0.48080292  1
  S  S217  1  0.49092813  0.35194134  0.48395135  1
  S  S218  1  0.73972451  0.47423254  0.55884674  1
  S  S219  1  0.26446256  0.25209674  0.53134195  1
  S  S220  1  0.75162369  0.99171648  0.57062105  1
  S  S221  1  0.25097693  0.44397306  0.53221774  1
  S  S222  1  0.78126268  0.29159985  0.54823479  1
  S  S223  1  0.25822642  0.01398180  0.55657751  1
  S  S224  1  0.03751724  0.64350079  0.58450961  1
  S  S225  1  0.95682605  0.37336209  0.60703596  1
  S  S226  1  0.97774252  0.85119127  0.59964680  1
  S  S227  1  0.04055596  0.14244462  0.59405946  1
  S  S228  1  0.46740605  0.14148897  0.59641619  1
  S  S229  1  0.54961994  0.85146436  0.60432343  1
  S  S230  1  0.53015737  0.35645325  0.60259240  1
  S  S231  1  0.46296850  0.64335292  0.58441022  1
  S  S232  1  0.77049283  0.71209530  0.66464460  1
  S  S233  1  0.24926912  0.52498676  0.62562302  1
  S  S234  1  0.24967721  0.02680168  0.63596041  1
  S  S235  1  0.74705424  0.20059840  0.65854820  1
  S  S236  1  0.25509190  0.71117262  0.64340904  1
  S  S237  1  0.75958510  0.52365237  0.64885390  1
  S  S238  1  0.77796899  0.96619852  0.64515837  1
  S  S239  1  0.26296578  0.24937864  0.65951497  1
  S  S240  1  0.05722086  0.85969026  0.69157637  1
  S  S241  1  0.98506280  0.59301119  0.70518820  1
  S  S242  1  0.96664822  0.09004336  0.70115936  1
  S  S243  1  0.04657132  0.37691657  0.69579389  1
  S  S244  1  0.47237015  0.38387518  0.69466067  1
  S  S245  1  0.53802275  0.08761832  0.70243380  1
  S  S246  1  0.55749187  0.59797372  0.70677136  1
  S  S247  1  0.48229534  0.86698087  0.69198577  1
  S  S248  1  0.77570610  0.94884976  0.76362819  1
  S  S249  1  0.27661770  0.75318800  0.73610297  1
  S  S250  1  0.27000382  0.26684791  0.73820618  1
  S  S251  1  0.76687030  0.43362329  0.76106324  1
  S  S252  1  0.26366279  0.94659279  0.74601810  1
  S  S253  1  0.76213018  0.75577430  0.75339359  1
  S  S254  1  0.75505451  0.21964476  0.73721967  1
  S  S255  1  0.25295433  0.48151970  0.76209487  1
  S  S256  1  0.05635740  0.09992301  0.79111284  1
  S  S257  1  0.98216272  0.83443609  0.80745989  1
  S  S258  1  0.97307540  0.31729817  0.80425865  1
  S  S259  1  0.03780443  0.61438789  0.79690521  1
  S  S260  1  0.46649287  0.61062116  0.79786118  1
  S  S261  1  0.54720450  0.32308282  0.80401629  1
  S  S262  1  0.55785297  0.84213896  0.80845039  1
  S  S263  1  0.48268058  0.11102159  0.79599497  1
  S  S264  1  0.76468543  0.17417059  0.87351742  1
  S  S265  1  0.26905749  0.99003050  0.83538017  1
  S  S266  1  0.24479306  0.50097322  0.84071206  1
  S  S267  1  0.74914237  0.67579018  0.86349800  1
  S  S268  1  0.24715351  0.17940379  0.84994312  1
  S  S269  1  0.74576646  0.98688604  0.85693914  1
  S  S270  1  0.76548090  0.45154172  0.83966515  1
  S  S271  1  0.28291280  0.73704500  0.85445291  1
  S  S272  1  0.04012974  0.33212933  0.89509372  1
  S  S273  1  0.98520060  0.05363008  0.91178305  1
  S  S274  1  0.96335808  0.55798622  0.90259117  1
  S  S275  1  0.03960333  0.84422482  0.89545997  1
  S  S276  1  0.46609626  0.85494118  0.90104847  1
  S  S277  1  0.53687824  0.55875796  0.90373657  1
  S  S278  1  0.56152351  0.06055974  0.91839413  1
  S  S279  1  0.47190883  0.33552248  0.89249300  1
  S  S280  1  0.75249619  0.45082661  0.96841451  1
  S  S281  1  0.26375896  0.22377241  0.93902600  1
  S  S282  1  0.25409370  0.70819524  0.92896405  1
  S  S283  1  0.26157148  0.40419230  0.95123082  1
  S  S284  1  0.72702871  0.25999603  0.96798579  1
  S  S285  1  0.75367833  0.68446766  0.94295354  1
  S  S286  1  0.97215625  0.34782794  0.01505030  1
  S  S287  1  0.53725271  0.35884543  0.02022369  1
