# generated using pymatgen
data_Li3PS4
_symmetry_space_group_name_H-M   'P 1'
_cell_length_a   8.10679100
_cell_length_b   18.09023400
_cell_length_c   52.41026710
_cell_angle_alpha   90.00000000
_cell_angle_beta   90.00000000
_cell_angle_gamma   90.00000000
_symmetry_Int_Tables_number   1
_chemical_formula_structural   Li3PS4
_chemical_formula_sum   'Li132 P44 S176'
_cell_volume   7686.16200909
_cell_formula_units_Z   44
loop_
 _symmetry_equiv_pos_site_id
 _symmetry_equiv_pos_as_xyz
  1  'x, y, z'
loop_
 _atom_site_type_symbol
 _atom_site_label
 _atom_site_symmetry_multiplicity
 _atom_site_fract_x
 _atom_site_fract_y
 _atom_site_fract_z
 _atom_site_occupancy
  Li  Li0  1  0.97291376  0.64650417  0.05871846  1
  Li  Li1  1  0.95840924  0.32216823  0.00863563  1
  Li  Li2  1  0.03645974  0.46264210  0.07112281  1
  Li  Li3  1  0.00661327  0.13989607  0.07898243  1
  Li  Li4  1  0.49399359  0.13919642  0.07873750  1
  Li  Li5  1  0.46434702  0.46250158  0.07129614  1
  Li  Li6  1  0.54747748  0.31942739  0.00896682  1
  Li  Li7  1  0.52905551  0.64627039  0.05875822  1
  Li  Li8  1  0.97859696  0.87166444  0.04312448  1
  Li  Li9  1  0.96092228  0.30378007  0.07866937  1
  Li  Li10  1  0.53983677  0.30344084  0.07872232  1
  Li  Li11  1  0.52577782  0.87011406  0.04459413  1
  Li  Li12  1  0.96596193  0.43438423  0.14549959  1
  Li  Li13  1  0.03592587  0.90275391  0.09948114  1
  Li  Li14  1  0.04169712  0.21966412  0.16047342  1
  Li  Li15  1  0.96977189  0.85797144  0.16874312  1
  Li  Li16  1  0.53654129  0.85536401  0.17071068  1
  Li  Li17  1  0.45896823  0.21967550  0.16046207  1
  Li  Li18  1  0.46431612  0.90235415  0.09984838  1
  Li  Li19  1  0.53604335  0.43445023  0.14581902  1
  Li  Li20  1  0.02398856  0.66615794  0.11728259  1
  Li  Li21  1  0.96623625  0.05190122  0.15847027  1
  Li  Li22  1  0.53103080  0.04982618  0.15916770  1
  Li  Li23  1  0.47748361  0.66658143  0.11738294  1
  Li  Li24  1  0.96840861  0.18418153  0.22959849  1
  Li  Li25  1  0.03412448  0.64843531  0.18368829  1
  Li  Li26  1  0.03683017  0.98459099  0.24299638  1
  Li  Li27  1  0.96830093  0.62585249  0.25648262  1
  Li  Li28  1  0.53530218  0.61676598  0.25714894  1
  Li  Li29  1  0.46863915  0.97592090  0.24354424  1
  Li  Li30  1  0.46431229  0.64829516  0.18401061  1
  Li  Li31  1  0.53154403  0.18168461  0.23014001  1
  Li  Li32  1  0.98398081  0.41772771  0.21055767  1
  Li  Li33  1  0.95745384  0.81555284  0.24653837  1
  Li  Li34  1  0.45763566  0.78604282  0.25346506  1
  Li  Li35  1  0.52815964  0.41478737  0.21168538  1
  Li  Li36  1  0.96451208  0.95322341  0.31608533  1
  Li  Li37  1  0.03154524  0.42010439  0.26988607  1
  Li  Li38  1  0.03723985  0.74695328  0.32927098  1
  Li  Li39  1  0.95908135  0.38224295  0.33956951  1
  Li  Li40  1  0.54144358  0.38197336  0.33951147  1
  Li  Li41  1  0.46976234  0.74373034  0.33127406  1
  Li  Li42  1  0.46872992  0.41767139  0.27018141  1
  Li  Li43  1  0.53417900  0.95321063  0.31631770  1
  Li  Li44  1  0.02771357  0.18685088  0.28828186  1
  Li  Li45  1  0.02517053  0.55445168  0.34050384  1
  Li  Li46  1  0.46262841  0.54824124  0.34186485  1
  Li  Li47  1  0.48390831  0.18408328  0.28943675  1
  Li  Li48  1  0.96558324  0.69920133  0.39970262  1
  Li  Li49  1  0.03576337  0.16695091  0.35418775  1
  Li  Li50  1  0.99510689  0.46203124  0.42122177  1
  Li  Li51  1  0.96453566  0.13850474  0.42884943  1
  Li  Li52  1  0.53745150  0.13795677  0.42880102  1
  Li  Li53  1  0.50864821  0.46014187  0.42122705  1
  Li  Li54  1  0.46623465  0.16692655  0.35439426  1
  Li  Li55  1  0.53602998  0.69871390  0.40037157  1
  Li  Li56  1  0.97765449  0.93515511  0.38265238  1
  Li  Li57  1  0.03977095  0.29782286  0.42122088  1
  Li  Li58  1  0.46320733  0.29686491  0.42121142  1
  Li  Li59  1  0.52372661  0.93546074  0.38279138  1
  Li  Li60  1  0.04383085  0.27845408  0.49126938  1
  Li  Li61  1  0.02771227  0.95379166  0.44141938  1
  Li  Li62  1  0.47256727  0.95366465  0.44149742  1
  Li  Li63  1  0.45759502  0.27883652  0.49130977  1
  Li  Li64  1  0.02692619  0.73111583  0.45527272  1
  Li  Li65  1  0.48390565  0.72650551  0.45635753  1
  Li  Li66  1  0.52742989  0.45358531  0.55850883  1
  Li  Li67  1  0.54288717  0.77914732  0.50877148  1
  Li  Li68  1  0.46323583  0.63761088  0.57134414  1
  Li  Li69  1  0.49273114  0.96021539  0.57911453  1
  Li  Li70  1  0.00832213  0.95993621  0.57880412  1
  Li  Li71  1  0.03597212  0.63818125  0.57110011  1
  Li  Li72  1  0.95717578  0.77849482  0.50860210  1
  Li  Li73  1  0.97232633  0.45374755  0.55858899  1
  Li  Li74  1  0.51594303  0.22597633  0.54365920  1
  Li  Li75  1  0.53747458  0.79672998  0.57882624  1
  Li  Li76  1  0.96204536  0.79673018  0.57879767  1
  Li  Li77  1  0.96867258  0.23190487  0.54422267  1
  Li  Li78  1  0.53557649  0.66630807  0.64581239  1
  Li  Li79  1  0.45836600  0.19896131  0.59980282  1
  Li  Li80  1  0.45842530  0.88145102  0.66042725  1
  Li  Li81  1  0.53380056  0.24527980  0.67064967  1
  Li  Li82  1  0.96852061  0.24364132  0.66881987  1
  Li  Li83  1  0.04116448  0.88154471  0.66034862  1
  Li  Li84  1  0.03197899  0.19749289  0.59946674  1
  Li  Li85  1  0.96573886  0.66651596  0.64569142  1
  Li  Li86  1  0.47743919  0.43461164  0.61732614  1
  Li  Li87  1  0.52981203  0.05104089  0.65918498  1
  Li  Li88  1  0.96617000  0.04979371  0.65848426  1
  Li  Li89  1  0.02241734  0.43491835  0.61729057  1
  Li  Li90  1  0.53148025  0.91929210  0.73005466  1
  Li  Li91  1  0.46533310  0.45111168  0.68371629  1
  Li  Li92  1  0.46767742  0.12487291  0.74382719  1
  Li  Li93  1  0.53693396  0.48321695  0.75689651  1
  Li  Li94  1  0.96887539  0.47495015  0.75625169  1
  Li  Li95  1  0.03537209  0.11566221  0.74283992  1
  Li  Li96  1  0.03596528  0.45225590  0.68348275  1
  Li  Li97  1  0.96859225  0.91564979  0.72982637  1
  Li  Li98  1  0.52638847  0.68514104  0.71147579  1
  Li  Li99  1  0.45695828  0.31510622  0.75351820  1
  Li  Li100  1  0.95232375  0.28323249  0.74616475  1
  Li  Li101  1  0.98218714  0.68337013  0.71088157  1
  Li  Li102  1  0.53327178  0.14735327  0.81631048  1
  Li  Li103  1  0.46826657  0.68169812  0.77027811  1
  Li  Li104  1  0.46918678  0.35673135  0.83132133  1
  Li  Li105  1  0.54159687  0.71872654  0.83944176  1
  Li  Li106  1  0.96136849  0.71694898  0.83934452  1
  Li  Li107  1  0.03645360  0.35297276  0.82949276  1
  Li  Li108  1  0.03136711  0.68063024  0.77003450  1
  Li  Li109  1  0.96448473  0.14759869  0.81600454  1
  Li  Li110  1  0.47879136  0.91472594  0.78872570  1
  Li  Li111  1  0.46465556  0.55093587  0.84213369  1
  Li  Li112  1  0.02598291  0.54591228  0.84052860  1
  Li  Li113  1  0.02235713  0.91450463  0.78885990  1
  Li  Li114  1  0.53843114  0.40075209  0.90053085  1
  Li  Li115  1  0.46781622  0.93145534  0.85429292  1
  Li  Li116  1  0.50869576  0.63826873  0.92160226  1
  Li  Li117  1  0.53705303  0.96134857  0.92857010  1
  Li  Li118  1  0.96364297  0.96139543  0.92873726  1
  Li  Li119  1  0.99484375  0.63810639  0.92127279  1
  Li  Li120  1  0.03737798  0.93225105  0.85444702  1
  Li  Li121  1  0.96286402  0.40040773  0.90005759  1
  Li  Li122  1  0.52924954  0.16366001  0.88288052  1
  Li  Li123  1  0.46271893  0.80204471  0.92110650  1
  Li  Li124  1  0.03821109  0.80213956  0.92096064  1
  Li  Li125  1  0.97545518  0.16462694  0.88262272  1
  Li  Li126  1  0.45844405  0.82209534  0.99136876  1
  Li  Li127  1  0.47208059  0.14491717  0.94116844  1
  Li  Li128  1  0.03058604  0.14534151  0.94117300  1
  Li  Li129  1  0.04759820  0.81935534  0.99098447  1
  Li  Li130  1  0.47679379  0.36887868  0.95614770  1
  Li  Li131  1  0.02757502  0.36788649  0.95523762  1
  P  P132  1  0.25071019  0.76152860  0.05292669  1
  P  P133  1  0.74983105  0.47486960  0.03455621  1
  P  P134  1  0.25053218  0.29574114  0.03901843  1
  P  P135  1  0.25118710  0.53323096  0.13435193  1
  P  P136  1  0.75128733  0.79007670  0.10477197  1
  P  P137  1  0.75068675  0.24812462  0.12605792  1
  P  P138  1  0.25088298  0.08872116  0.11851387  1
  P  P139  1  0.25192484  0.29090344  0.22275880  1
  P  P140  1  0.75071133  0.55005154  0.19483732  1
  P  P141  1  0.75280248  0.00314715  0.20711058  1
  P  P142  1  0.24695620  0.83230510  0.20448490  1
  P  P143  1  0.25059952  0.05158241  0.30522724  1
  P  P144  1  0.75182109  0.31088027  0.27723806  1
  P  P145  1  0.74695084  0.76932939  0.29552536  1
  P  P146  1  0.25204882  0.59865124  0.29303151  1
  P  P147  1  0.25176254  0.81123467  0.39525032  1
  P  P148  1  0.75046600  0.06785293  0.36572670  1
  P  P149  1  0.75072083  0.51244221  0.38155796  1
  P  P150  1  0.25113715  0.35323172  0.37398272  1
  P  P151  1  0.75046951  0.83863063  0.44694801  1
  P  P152  1  0.75080014  0.30496275  0.46098470  1
  P  P153  1  0.25148448  0.12520621  0.46547975  1
  P  P154  1  0.24929528  0.33834946  0.55293199  1
  P  P155  1  0.74911134  0.62521994  0.53448511  1
  P  P156  1  0.25002208  0.80496414  0.53907311  1
  P  P157  1  0.25027856  0.56717815  0.63425912  1
  P  P158  1  0.74893918  0.31022286  0.60474819  1
  P  P159  1  0.74985895  0.85226486  0.62603044  1
  P  P160  1  0.25005644  0.01183283  0.61861906  1
  P  P161  1  0.25219749  0.80951535  0.72272393  1
  P  P162  1  0.75048351  0.55028261  0.69469175  1
  P  P163  1  0.75129709  0.09743672  0.70708775  1
  P  P164  1  0.24582314  0.26831966  0.70456847  1
  P  P165  1  0.25031344  0.04845153  0.80520879  1
  P  P166  1  0.75033939  0.78921833  0.77721110  1
  P  P167  1  0.74695281  0.33119549  0.79561980  1
  P  P168  1  0.25307744  0.50154076  0.79298936  1
  P  P169  1  0.25235530  0.28818109  0.89518432  1
  P  P170  1  0.75139792  0.03081310  0.86547389  1
  P  P171  1  0.75095768  0.58704006  0.88166298  1
  P  P172  1  0.25106257  0.74571056  0.87405255  1
  P  P173  1  0.75080740  0.25984769  0.94722935  1
  P  P174  1  0.75082916  0.79541884  0.96098504  1
  P  P175  1  0.25009971  0.97401598  0.96530646  1
  S  S176  1  0.46041594  0.75017325  0.03164805  1
  S  S177  1  0.53583480  0.53410959  0.03457896  1
  S  S178  1  0.46090512  0.23241336  0.04013405  1
  S  S179  1  0.03889466  0.23339954  0.03994595  1
  S  S180  1  0.96368145  0.53428159  0.03448164  1
  S  S181  1  0.04115521  0.75011179  0.03162225  1
  S  S182  1  0.25077306  0.87127873  0.06706977  1
  S  S183  1  0.25048557  0.36207830  0.07179828  1
  S  S184  1  0.74988612  0.41202886  0.00144099  1
  S  S185  1  0.25071065  0.67868991  0.07954704  1
  S  S186  1  0.75080850  0.87843740  0.07831916  1
  S  S187  1  0.75034656  0.40939745  0.06787606  1
  S  S188  1  0.25205971  0.36092828  0.00703894  1
  S  S189  1  0.46532560  0.52822502  0.11323507  1
  S  S190  1  0.54084494  0.79999643  0.12616712  1
  S  S191  1  0.53903570  0.30933659  0.12781520  1
  S  S192  1  0.46652581  0.03146776  0.11139476  1
  S  S193  1  0.03480659  0.03171782  0.11132168  1
  S  S194  1  0.96302975  0.30891313  0.12780892  1
  S  S195  1  0.96415094  0.79965412  0.12558238  1
  S  S196  1  0.03752283  0.52820537  0.11306688  1
  S  S197  1  0.75057780  0.68420066  0.09013274  1
  S  S198  1  0.25039281  0.63960333  0.15042158  1
  S  S199  1  0.25079600  0.11581133  0.15715301  1
  S  S200  1  0.75027443  0.20192339  0.08969281  1
  S  S201  1  0.25069307  0.45140554  0.16079595  1
  S  S202  1  0.74937113  0.63262541  0.16860534  1
  S  S203  1  0.75049659  0.17171947  0.15533101  1
  S  S204  1  0.25094289  0.18175517  0.09735836  1
  S  S205  1  0.46519798  0.28395396  0.20173870  1
  S  S206  1  0.53622006  0.55309719  0.21586560  1
  S  S207  1  0.53686225  0.06202777  0.20804859  1
  S  S208  1  0.45890500  0.76992319  0.20518700  1
  S  S209  1  0.03118973  0.77203477  0.20321969  1
  S  S210  1  0.96447449  0.06527535  0.20714618  1
  S  S211  1  0.96404549  0.55491709  0.21611947  1
  S  S212  1  0.04010918  0.28570930  0.20133616  1
  S  S213  1  0.75269474  0.44413279  0.17873111  1
  S  S214  1  0.25189362  0.39713954  0.23812284  1
  S  S215  1  0.24239632  0.88454617  0.24008622  1
  S  S216  1  0.75125996  0.95269104  0.17095181  1
  S  S217  1  0.25019029  0.20426798  0.24821769  1
  S  S218  1  0.75045076  0.39750807  0.25176565  1
  S  S219  1  0.75495916  0.93170940  0.23724961  1
  S  S220  1  0.25351685  0.90236949  0.17410172  1
  S  S221  1  0.46379452  0.04676209  0.28390180  1
  S  S222  1  0.53972097  0.31616781  0.29858510  1
  S  S223  1  0.53123973  0.82963174  0.29680987  1
  S  S224  1  0.46324833  0.53625075  0.29299028  1
  S  S225  1  0.03584482  0.53989015  0.29200251  1
  S  S226  1  0.95888735  0.83170914  0.29473447  1
  S  S227  1  0.96476040  0.31777340  0.29833205  1
  S  S228  1  0.03600494  0.04830020  0.28424519  1
  S  S229  1  0.75201246  0.20464983  0.26186298  1
  S  S230  1  0.25250887  0.15757703  0.32126704  1
  S  S231  1  0.25075534  0.64909016  0.32918084  1
  S  S232  1  0.74184578  0.71696484  0.25995856  1
  S  S233  1  0.24960284  0.96915415  0.33152635  1
  S  S234  1  0.75055524  0.14954093  0.33922834  1
  S  S235  1  0.75392380  0.69945244  0.32597006  1
  S  S236  1  0.25441493  0.67008598  0.26288066  1
  S  S237  1  0.46462569  0.80202015  0.37442949  1
  S  S238  1  0.53649945  0.07303550  0.38691505  1
  S  S239  1  0.53480773  0.56920421  0.38903420  1
  S  S240  1  0.46345589  0.29241234  0.37213460  1
  S  S241  1  0.03934371  0.29212258  0.37214565  1
  S  S242  1  0.96623192  0.56986474  0.38855145  1
  S  S243  1  0.96446645  0.07303569  0.38687899  1
  S  S244  1  0.04162913  0.80193175  0.37373626  1
  S  S245  1  0.75017521  0.96152817  0.34967914  1
  S  S246  1  0.25055767  0.91665101  0.41020924  1
  S  S247  1  0.25105689  0.39882531  0.41045773  1
  S  S248  1  0.74916985  0.48576828  0.34288579  1
  S  S249  1  0.25110418  0.72242367  0.42149307  1
  S  S250  1  0.75042318  0.92189274  0.42049174  1
  S  S251  1  0.75241623  0.41907032  0.40256390  1
  S  S252  1  0.25051401  0.42989457  0.34480997  1
  S  S253  1  0.53976629  0.84862112  0.46803813  1
  S  S254  1  0.53942512  0.36746412  0.46006389  1
  S  S255  1  0.46560927  0.06607100  0.46550145  1
  S  S256  1  0.03733261  0.06611109  0.46548354  1
  S  S257  1  0.96212312  0.36747083  0.46010253  1
  S  S258  1  0.95914891  0.85040519  0.46845448  1
  S  S259  1  0.75299560  0.72914125  0.43254378  1
  S  S260  1  0.25125586  0.18785642  0.49865574  1
  S  S261  1  0.75101379  0.23871879  0.42814442  1
  S  S262  1  0.75057923  0.23930203  0.49287353  1
  S  S263  1  0.25136279  0.19109571  0.43227530  1
  S  S264  1  0.04143126  0.35090314  0.53129942  1
  S  S265  1  0.96323789  0.56608555  0.53444262  1
  S  S266  1  0.03840906  0.86726721  0.54001592  1
  S  S267  1  0.46115768  0.86760640  0.54011051  1
  S  S268  1  0.53500163  0.56606305  0.53448868  1
  S  S269  1  0.46066603  0.34824968  0.53199349  1
  S  S270  1  0.24557545  0.22858693  0.56707662  1
  S  S271  1  0.24989519  0.73828225  0.57182803  1
  S  S272  1  0.74918885  0.68807300  0.50133756  1
  S  S273  1  0.24980775  0.42133706  0.57949520  1
  S  S274  1  0.74700050  0.22182081  0.57836350  1
  S  S275  1  0.74940332  0.69089757  0.56773273  1
  S  S276  1  0.25024789  0.73980579  0.50710971  1
  S  S277  1  0.03635491  0.57255106  0.61306525  1
  S  S278  1  0.96234651  0.30086102  0.62545888  1
  S  S279  1  0.96201305  0.79137816  0.62783436  1
  S  S280  1  0.03390802  0.06848983  0.61121647  1
  S  S281  1  0.46510936  0.06926253  0.61131192  1
  S  S282  1  0.53788176  0.79127718  0.62788900  1
  S  S283  1  0.53865942  0.30065081  0.62621771  1
  S  S284  1  0.46452385  0.57239636  0.61315431  1
  S  S285  1  0.74899781  0.41579882  0.58990489  1
  S  S286  1  0.25020544  0.46061521  0.65018620  1
  S  S287  1  0.24984985  0.98550407  0.65731551  1
  S  S288  1  0.75010426  0.89819465  0.58962211  1
  S  S289  1  0.25023931  0.64876676  0.66078032  1
  S  S290  1  0.75012607  0.46784379  0.66839059  1
  S  S291  1  0.74995144  0.92883477  0.65524720  1
  S  S292  1  0.25043332  0.91794570  0.59787010  1
  S  S293  1  0.04071783  0.81498990  0.70121332  1
  S  S294  1  0.96384116  0.54586682  0.71597237  1
  S  S295  1  0.96224924  0.03485728  0.70712890  1
  S  S296  1  0.03093103  0.32923052  0.70330565  1
  S  S297  1  0.45848140  0.33024650  0.70532480  1
  S  S298  1  0.53490314  0.03901227  0.70805607  1
  S  S299  1  0.53581547  0.54654092  0.71565495  1
  S  S300  1  0.46532376  0.81637600  0.70170589  1
  S  S301  1  0.75158262  0.65633758  0.67871302  1
  S  S302  1  0.25145532  0.70341787  0.73816146  1
  S  S303  1  0.24080140  0.21598667  0.74012368  1
  S  S304  1  0.75026359  0.14837485  0.67103232  1
  S  S305  1  0.25016193  0.89610590  0.74821575  1
  S  S306  1  0.75013837  0.70292342  0.75166757  1
  S  S307  1  0.75385876  0.16847795  0.73738181  1
  S  S308  1  0.25135306  0.19835402  0.67413043  1
  S  S309  1  0.03576629  0.05210021  0.78418861  1
  S  S310  1  0.96300183  0.78281427  0.79838473  1
  S  S311  1  0.95863220  0.26876864  0.79478154  1
  S  S312  1  0.03704862  0.56055324  0.79193930  1
  S  S313  1  0.46497477  0.56338481  0.79305210  1
  S  S314  1  0.53101646  0.27100953  0.79680682  1
  S  S315  1  0.53770274  0.78346609  0.79842352  1
  S  S316  1  0.46370961  0.05290500  0.78394308  1
  S  S317  1  0.75090320  0.89551494  0.76187868  1
  S  S318  1  0.25152073  0.94243099  0.82128576  1
  S  S319  1  0.25062289  0.45092473  0.82911812  1
  S  S320  1  0.74233507  0.38367038  0.76003886  1
  S  S321  1  0.24939056  0.13110861  0.83143286  1
  S  S322  1  0.75217585  0.94876449  0.83914017  1
  S  S323  1  0.75348299  0.40079864  0.82614511  1
  S  S324  1  0.25503893  0.43054978  0.76272148  1
  S  S325  1  0.04135900  0.29797348  0.87389160  1
  S  S326  1  0.96497956  0.02638499  0.88674635  1
  S  S327  1  0.96656226  0.52970216  0.88860924  1
  S  S328  1  0.03897653  0.80662688  0.87204600  1
  S  S329  1  0.46318095  0.80681041  0.87232459  1
  S  S330  1  0.53544942  0.52988799  0.88910027  1
  S  S331  1  0.53725095  0.02588268  0.88662501  1
  S  S332  1  0.46514482  0.29763833  0.87437424  1
  S  S333  1  0.75059908  0.13738086  0.84943816  1
  S  S334  1  0.25133018  0.18248128  0.90986504  1
  S  S335  1  0.25121207  0.69997947  0.91045055  1
  S  S336  1  0.74961942  0.61409345  0.84303365  1
  S  S337  1  0.25170028  0.37672482  0.92154479  1
  S  S338  1  0.75139514  0.17659079  0.92070338  1
  S  S339  1  0.75130617  0.68008366  0.90282527  1
  S  S340  1  0.25145139  0.66940065  0.84477509  1
  S  S341  1  0.96020899  0.24873135  0.96856803  1
  S  S342  1  0.96121522  0.73216706  0.95985518  1
  S  S343  1  0.03627322  0.03336426  0.96531349  1
  S  S344  1  0.46453446  0.03298774  0.96529106  1
  S  S345  1  0.53933157  0.73296233  0.96016602  1
  S  S346  1  0.54104181  0.24857580  0.96846587  1
  S  S347  1  0.75123167  0.36950912  0.93298408  1
  S  S348  1  0.24992260  0.91187503  0.99860293  1
  S  S349  1  0.75046059  0.86140941  0.92810054  1
  S  S350  1  0.75231210  0.86092897  0.99286580  1
  S  S351  1  0.25021539  0.90806377  0.93213718  1
