# generated using pymatgen
data_Li3PS4
_symmetry_space_group_name_H-M   'P 1'
_cell_length_a   13.05789500
_cell_length_b   10.24241400
_cell_length_c   50.13046569
_cell_angle_alpha   90.00000000
_cell_angle_beta   90.00000000
_cell_angle_gamma   90.00000000
_symmetry_Int_Tables_number   1
_chemical_formula_structural   Li3PS4
_chemical_formula_sum   'Li120 P40 S160'
_cell_volume   6704.66737848
_cell_formula_units_Z   40
loop_
 _symmetry_equiv_pos_site_id
 _symmetry_equiv_pos_as_xyz
  1  'x, y, z'
loop_
 _atom_site_type_symbol
 _atom_site_label
 _atom_site_symmetry_multiplicity
 _atom_site_fract_x
 _atom_site_fract_y
 _atom_site_fract_z
 _atom_site_occupancy
  Li  Li0  1  0.18820395  0.62519321  0.04985415  1
  Li  Li1  1  0.84123315  0.51659200  0.05663868  1
  Li  Li2  1  0.67990849  0.77396883  0.01162439  1
  Li  Li3  1  0.68906886  0.01533573  0.05713753  1
  Li  Li4  1  0.34171211  0.12532564  0.04996983  1
  Li  Li5  1  0.84630285  0.27074454  0.01221668  1
  Li  Li6  1  0.50790669  0.57575079  0.06222751  1
  Li  Li7  1  0.51321040  0.15003668  0.99854526  1
  Li  Li8  1  0.02297804  0.07539525  0.06208026  1
  Li  Li9  1  0.17829302  0.26954940  0.13957752  1
  Li  Li10  1  0.84840153  0.14558653  0.15645699  1
  Li  Li11  1  0.35247476  0.39315839  0.08957687  1
  Li  Li12  1  0.68105201  0.35951333  0.11560553  1
  Li  Li13  1  0.68740171  0.64317601  0.15721556  1
  Li  Li14  1  0.35436537  0.76848290  0.14061995  1
  Li  Li15  1  0.85360585  0.85985755  0.11633765  1
  Li  Li16  1  0.17924907  0.89181165  0.08945245  1
  Li  Li17  1  0.00318134  0.44203724  0.10031826  1
  Li  Li18  1  0.51164718  0.21065416  0.16176593  1
  Li  Li19  1  0.52914292  0.94066505  0.10076369  1
  Li  Li20  1  0.02461374  0.70953436  0.16261482  1
  Li  Li21  1  0.18153053  0.89886898  0.24021749  1
  Li  Li22  1  0.85270502  0.77639219  0.25454648  1
  Li  Li23  1  0.34401476  0.03878887  0.18699219  1
  Li  Li24  1  0.69294351  0.99512214  0.21492946  1
  Li  Li25  1  0.68337322  0.27334372  0.25811203  1
  Li  Li26  1  0.35622795  0.39515899  0.24201021  1
  Li  Li27  1  0.85566603  0.49051778  0.21607491  1
  Li  Li28  1  0.19068428  0.52594716  0.18804386  1
  Li  Li29  1  0.01299558  0.07888046  0.19933306  1
  Li  Li30  1  0.52710496  0.83039038  0.24207519  1
  Li  Li31  1  0.52564055  0.55313331  0.19928681  1
  Li  Li32  1  0.02762333  0.34161970  0.26128803  1
  Li  Li33  1  0.18244859  0.52720383  0.34041257  1
  Li  Li34  1  0.85396987  0.40259226  0.35695248  1
  Li  Li35  1  0.35224018  0.68236268  0.28404110  1
  Li  Li36  1  0.69341805  0.64133071  0.31222945  1
  Li  Li37  1  0.67992379  0.89996930  0.35955325  1
  Li  Li38  1  0.35177572  0.02394647  0.34396793  1
  Li  Li39  1  0.85282076  0.11813071  0.31412632  1
  Li  Li40  1  0.19376873  0.15960659  0.28662173  1
  Li  Li41  1  0.01189823  0.69940141  0.29822007  1
  Li  Li42  1  0.52625900  0.45869145  0.33672388  1
  Li  Li43  1  0.51235547  0.09783400  0.30041239  1
  Li  Li44  1  0.02680144  0.97010609  0.35667119  1
  Li  Li45  1  0.19031141  0.14609079  0.44099738  1
  Li  Li46  1  0.83802421  0.03553589  0.44926426  1
  Li  Li47  1  0.35381669  0.30720170  0.38280419  1
  Li  Li48  1  0.67927459  0.27531534  0.41003048  1
  Li  Li49  1  0.68842560  0.53212668  0.45120296  1
  Li  Li50  1  0.34053141  0.64188011  0.44259202  1
  Li  Li51  1  0.84918763  0.76250660  0.41111329  1
  Li  Li52  1  0.18945379  0.79951113  0.38422109  1
  Li  Li53  1  0.02803268  0.24795932  0.39918745  1
  Li  Li54  1  0.52379808  0.08336397  0.43751257  1
  Li  Li55  1  0.50440748  0.72006009  0.39921690  1
  Li  Li56  1  0.00720551  0.58329368  0.43814873  1
  Li  Li57  1  0.34537682  0.87579221  0.48847379  1
  Li  Li58  1  0.17966312  0.37504790  0.48918765  1
  Li  Li59  1  0.51193184  0.50009465  0.49930083  1
  Li  Li60  1  0.33606936  0.52277684  0.54947326  1
  Li  Li61  1  0.68336281  0.63270359  0.55658665  1
  Li  Li62  1  0.84489228  0.37733229  0.51183383  1
  Li  Li63  1  0.83652861  0.13422279  0.55682304  1
  Li  Li64  1  0.18396486  0.02435846  0.54983888  1
  Li  Li65  1  0.67935929  0.87849318  0.51191265  1
  Li  Li66  1  0.01837968  0.57488096  0.56252633  1
  Li  Li67  1  0.01152358  0.00011253  0.49823724  1
  Li  Li68  1  0.50186447  0.07430788  0.56201242  1
  Li  Li69  1  0.34695847  0.87932104  0.63938169  1
  Li  Li70  1  0.67624004  0.00183990  0.65558054  1
  Li  Li71  1  0.17275950  0.75654215  0.58972264  1
  Li  Li72  1  0.84424685  0.78976547  0.61546875  1
  Li  Li73  1  0.83722025  0.50586099  0.65735019  1
  Li  Li74  1  0.17130435  0.38049284  0.64110716  1
  Li  Li75  1  0.67212201  0.28753222  0.61600861  1
  Li  Li76  1  0.34566242  0.25816167  0.58939496  1
  Li  Li77  1  0.52150131  0.70614881  0.60007228  1
  Li  Li78  1  0.01299758  0.93755875  0.66197283  1
  Li  Li79  1  0.99627078  0.20941457  0.60067914  1
  Li  Li80  1  0.50199003  0.43703092  0.66262512  1
  Li  Li81  1  0.34323975  0.25069434  0.74037683  1
  Li  Li82  1  0.67224983  0.37363999  0.75455688  1
  Li  Li83  1  0.18116118  0.11075742  0.68701656  1
  Li  Li84  1  0.83127472  0.15111520  0.71479040  1
  Li  Li85  1  0.84172187  0.87701542  0.75821102  1
  Li  Li86  1  0.16872538  0.75485302  0.74200987  1
  Li  Li87  1  0.66921935  0.65953637  0.71615491  1
  Li  Li88  1  0.33443912  0.62386602  0.68806717  1
  Li  Li89  1  0.51268492  0.06993760  0.69917444  1
  Li  Li90  1  0.99739524  0.31957259  0.74162215  1
  Li  Li91  1  0.99850658  0.59575745  0.69933133  1
  Li  Li92  1  0.49665145  0.80873921  0.76146457  1
  Li  Li93  1  0.34326641  0.62336630  0.84053209  1
  Li  Li94  1  0.67097645  0.74793710  0.85697019  1
  Li  Li95  1  0.17233736  0.46908286  0.78414611  1
  Li  Li96  1  0.83153527  0.50890490  0.81229302  1
  Li  Li97  1  0.84668927  0.25230315  0.85959028  1
  Li  Li98  1  0.17304776  0.12706586  0.84395539  1
  Li  Li99  1  0.67217622  0.03222454  0.81439640  1
  Li  Li100  1  0.33117989  0.99047020  0.78663850  1
  Li  Li101  1  0.51278117  0.45094145  0.79832544  1
  Li  Li102  1  0.99871612  0.69183811  0.83672514  1
  Li  Li103  1  0.01255828  0.05232589  0.80042827  1
  Li  Li104  1  0.49708799  0.18206834  0.85703122  1
  Li  Li105  1  0.33473856  0.00437160  0.94104768  1
  Li  Li106  1  0.68613922  0.11581180  0.94930705  1
  Li  Li107  1  0.17088468  0.84343704  0.88291159  1
  Li  Li108  1  0.84605781  0.87551660  0.91007631  1
  Li  Li109  1  0.83667438  0.61803436  0.95149851  1
  Li  Li110  1  0.18318324  0.50857307  0.94294228  1
  Li  Li111  1  0.67640607  0.38812727  0.91123547  1
  Li  Li112  1  0.33519346  0.35497768  0.88493495  1
  Li  Li113  1  0.49708263  0.90225982  0.89914861  1
  Li  Li114  1  0.00105293  0.06676249  0.93756568  1
  Li  Li115  1  0.02120982  0.43215344  0.89964145  1
  Li  Li116  1  0.51828238  0.56725099  0.93816488  1
  Li  Li117  1  0.17975302  0.27415389  0.98853668  1
  Li  Li118  1  0.34536001  0.77489987  0.98920739  1
  Li  Li119  1  0.01326371  0.65055479  0.99960418  1
  P  P120  1  0.10882591  0.34947322  0.04521498  1
  P  P121  1  0.92768021  0.78678001  0.06061214  1
  P  P122  1  0.42192086  0.84980814  0.04543430  1
  P  P123  1  0.60157119  0.28471287  0.06027686  1
  P  P124  1  0.10429865  0.98663301  0.14191242  1
  P  P125  1  0.92741169  0.41981910  0.16059119  1
  P  P126  1  0.42936779  0.48564731  0.14202834  1
  P  P127  1  0.60626671  0.92005992  0.16104262  1
  P  P128  1  0.10950761  0.61842109  0.24089431  1
  P  P129  1  0.93239242  0.05008644  0.25914701  1
  P  P130  1  0.43127503  0.11585027  0.24014261  1
  P  P131  1  0.61064159  0.55351200  0.25902635  1
  P  P132  1  0.11001615  0.24659808  0.33949626  1
  P  P133  1  0.93058112  0.68356997  0.35825629  1
  P  P134  1  0.42975620  0.74953967  0.33912157  1
  P  P135  1  0.60685217  0.18124396  0.35752745  1
  P  P136  1  0.10095556  0.87393273  0.43800709  1
  P  P137  1  0.92070008  0.30935053  0.45498928  1
  P  P138  1  0.42751139  0.37227391  0.43859774  1
  P  P139  1  0.60657161  0.80652325  0.45519906  1
  P  P140  1  0.41625163  0.79934860  0.54510106  1
  P  P141  1  0.59735712  0.36206358  0.56044774  1
  P  P142  1  0.10293459  0.29986473  0.54534409  1
  P  P143  1  0.92383838  0.86481880  0.56020164  1
  P  P144  1  0.42071475  0.16228727  0.64176858  1
  P  P145  1  0.59759975  0.72863408  0.66052101  1
  P  P146  1  0.09563358  0.66352776  0.64214312  1
  P  P147  1  0.91851862  0.22882318  0.66094810  1
  P  P148  1  0.41536785  0.53150966  0.74098240  1
  P  P149  1  0.59234766  0.09985908  0.75923973  1
  P  P150  1  0.09364189  0.03423192  0.74014974  1
  P  P151  1  0.91426024  0.59681501  0.75907042  1
  P  P152  1  0.41469651  0.90436216  0.83955561  1
  P  P153  1  0.59485239  0.46697247  0.85837740  1
  P  P154  1  0.09528631  0.40204686  0.83933550  1
  P  P155  1  0.91822510  0.97010395  0.85753187  1
  P  P156  1  0.42381071  0.27746486  0.93833045  1
  P  P157  1  0.60411361  0.84166939  0.95496000  1
  P  P158  1  0.09746213  0.77838321  0.93883724  1
  P  P159  1  0.91832902  0.34377696  0.95541359  1
  S  S160  1  0.16612628  0.17009505  0.03457568  1
  S  S161  1  0.86327351  0.96218835  0.07173303  1
  S  S162  1  0.66893788  0.20278888  0.02703894  1
  S  S163  1  0.66746663  0.45998705  0.07094714  1
  S  S164  1  0.36424053  0.67018910  0.03497857  1
  S  S165  1  0.85851832  0.70773468  0.02730706  1
  S  S166  1  0.07831476  0.82414301  0.05056509  1
  S  S167  1  0.95516634  0.31673727  0.05405652  1
  S  S168  1  0.45111942  0.32391754  0.05045896  1
  S  S169  1  0.57589427  0.81644420  0.05392726  1
  S  S170  1  0.13930246  0.47386107  0.01440480  1
  S  S171  1  0.39003864  0.97329423  0.01461312  1
  S  S172  1  0.16767908  0.80636839  0.13513811  1
  S  S173  1  0.86188636  0.59451815  0.17175141  1
  S  S174  1  0.36075109  0.93162995  0.07953461  1
  S  S175  1  0.66855917  0.83269152  0.12797002  1
  S  S176  1  0.67332273  0.09492671  0.17129185  1
  S  S177  1  0.36638898  0.30547388  0.13495556  1
  S  S178  1  0.86501532  0.33586369  0.12710052  1
  S  S179  1  0.17115898  0.43105972  0.07924101  1
  S  S180  1  0.07681886  0.46664534  0.15003238  1
  S  S181  1  0.95500901  0.94752576  0.15405528  1
  S  S182  1  0.45719291  0.96643137  0.15029561  1
  S  S183  1  0.57972283  0.44608590  0.15374780  1
  S  S184  1  0.11775347  0.10034119  0.10856140  1
  S  S185  1  0.90803766  0.66079438  0.09219323  1
  S  S186  1  0.41544720  0.60084988  0.10893646  1
  S  S187  1  0.62149619  0.16069618  0.09221253  1
  S  S188  1  0.17228320  0.43818533  0.23353725  1
  S  S189  1  0.86474146  0.22379519  0.26998515  1
  S  S190  1  0.36519331  0.58551661  0.17350403  1
  S  S191  1  0.67222452  0.45939323  0.22667073  1
  S  S192  1  0.67407240  0.73290866  0.26735411  1
  S  S193  1  0.36490276  0.93930485  0.23086159  1
  S  S194  1  0.87358525  0.96550475  0.22529903  1
  S  S195  1  0.16998840  0.08965377  0.17283997  1
  S  S196  1  0.08199998  0.09879445  0.24865562  1
  S  S197  1  0.95962893  0.57883288  0.25291329  1
  S  S198  1  0.46017337  0.59531185  0.24750656  1
  S  S199  1  0.58120654  0.07107668  0.25128776  1
  S  S200  1  0.12467042  0.73309766  0.20769656  1
  S  S201  1  0.91183968  0.29398497  0.19212261  1
  S  S202  1  0.41629518  0.23827129  0.20806073  1
  S  S203  1  0.62218819  0.79485222  0.19305149  1
  S  S204  1  0.17381979  0.06736425  0.33135453  1
  S  S205  1  0.86453259  0.86073087  0.36717747  1
  S  S206  1  0.37089026  0.20729488  0.27297237  1
  S  S207  1  0.67221007  0.08032362  0.32639250  1
  S  S208  1  0.66950896  0.36181162  0.36463545  1
  S  S209  1  0.36269603  0.57583978  0.32813369  1
  S  S210  1  0.86986229  0.59122896  0.32556953  1
  S  S211  1  0.17271868  0.71816229  0.27248918  1
  S  S212  1  0.08046137  0.72846641  0.34709492  1
  S  S213  1  0.95980713  0.20429540  0.35079610  1
  S  S214  1  0.45747075  0.22111930  0.34530050  1
  S  S215  1  0.57911713  0.70155240  0.34962562  1
  S  S216  1  0.12603481  0.36498140  0.30691103  1
  S  S217  1  0.91650652  0.92375984  0.29053769  1
  S  S218  1  0.41417941  0.87687271  0.30783288  1
  S  S219  1  0.62620685  0.43537171  0.29165058  1
  S  S220  1  0.16592328  0.69802565  0.42756286  1
  S  S221  1  0.86462810  0.48865502  0.46612959  1
  S  S222  1  0.36941700  0.83330115  0.37296438  1
  S  S223  1  0.66920861  0.72457363  0.42129924  1
  S  S224  1  0.66488284  0.98554830  0.46575529  1
  S  S225  1  0.36482048  0.19744870  0.42656130  1
  S  S226  1  0.85982325  0.23180992  0.42052129  1
  S  S227  1  0.17155957  0.34128038  0.37186194  1
  S  S228  1  0.07514411  0.34331350  0.44649601  1
  S  S229  1  0.95139099  0.83681542  0.44899373  1
  S  S230  1  0.45325581  0.84127225  0.44630159  1
  S  S231  1  0.57731955  0.33437780  0.44944622  1
  S  S232  1  0.11898742  0.99983995  0.40594246  1
  S  S233  1  0.91592995  0.56108938  0.39032302  1
  S  S234  1  0.41073017  0.50082471  0.40732034  1
  S  S235  1  0.61971567  0.06685473  0.39086454  1
  S  S236  1  0.35532119  0.44856956  0.47167093  1
  S  S237  1  0.17164223  0.95669789  0.47055901  1
  S  S238  1  0.88873965  0.18271563  0.48522493  1
  S  S239  1  0.63580411  0.68197729  0.48604828  1
  S  S240  1  0.35910287  0.97898925  0.53452080  1
  S  S241  1  0.66210125  0.18647387  0.57137166  1
  S  S242  1  0.85682583  0.94658821  0.52688543  1
  S  S243  1  0.85781787  0.68952885  0.57081136  1
  S  S244  1  0.16028123  0.47961276  0.53483095  1
  S  S245  1  0.66605139  0.44190383  0.52715038  1
  S  S246  1  0.44671306  0.32434452  0.55044520  1
  S  S247  1  0.56995664  0.83197451  0.55390994  1
  S  S248  1  0.07444543  0.82552370  0.55055911  1
  S  S249  1  0.94913018  0.33331356  0.55396160  1
  S  S250  1  0.38557339  0.67555015  0.51420524  1
  S  S251  1  0.13483124  0.17632175  0.51452056  1
  S  S252  1  0.35761186  0.34282531  0.63513698  1
  S  S253  1  0.66299854  0.55428327  0.67195644  1
  S  S254  1  0.16447625  0.21818967  0.57940469  1
  S  S255  1  0.85648216  0.31692293  0.62794012  1
  S  S256  1  0.85109013  0.05378980  0.67095409  1
  S  S257  1  0.15839693  0.84384280  0.63505570  1
  S  S258  1  0.66005363  0.81089869  0.62682337  1
  S  S259  1  0.35368209  0.71726430  0.57904380  1
  S  S260  1  0.44816930  0.68217823  0.65002963  1
  S  S261  1  0.57039398  0.20055670  0.65374984  1
  S  S262  1  0.06771234  0.18264560  0.65028666  1
  S  S263  1  0.94507989  0.70286496  0.65375607  1
  S  S264  1  0.40679529  0.04910035  0.60836099  1
  S  S265  1  0.61710483  0.48756619  0.59208713  1
  S  S266  1  0.11048386  0.54794223  0.60912917  1
  S  S267  1  0.90352672  0.98898280  0.59209365  1
  S  S268  1  0.35253456  0.71171445  0.73356676  1
  S  S269  1  0.66009932  0.92631936  0.77012287  1
  S  S270  1  0.15959252  0.56428161  0.67372930  1
  S  S271  1  0.85255986  0.69085739  0.72671253  1
  S  S272  1  0.85087633  0.41746005  0.76741909  1
  S  S273  1  0.16004069  0.21069254  0.73082573  1
  S  S274  1  0.65123478  0.18419655  0.72535099  1
  S  S275  1  0.35531311  0.05930993  0.67273992  1
  S  S276  1  0.44277948  0.05092361  0.74869375  1
  S  S277  1  0.56516386  0.57132807  0.75301188  1
  S  S278  1  0.06462733  0.55478584  0.74748624  1
  S  S279  1  0.94370086  0.07902021  0.75128416  1
  S  S280  1  0.40035278  0.41664027  0.70782718  1
  S  S281  1  0.61402406  0.85570455  0.69183124  1
  S  S282  1  0.10863553  0.91165530  0.70809531  1
  S  S283  1  0.90202929  0.35329311  0.69306104  1
  S  S284  1  0.35088651  0.08339396  0.83131839  1
  S  S285  1  0.66100816  0.28988577  0.86723351  1
  S  S286  1  0.15404815  0.94296231  0.77299178  1
  S  S287  1  0.85295776  0.07158905  0.82645852  1
  S  S288  1  0.85540970  0.78960398  0.86461781  1
  S  S289  1  0.16285610  0.57538559  0.82830134  1
  S  S290  1  0.65515721  0.55930175  0.82563021  1
  S  S291  1  0.35191587  0.43203957  0.77258538  1
  S  S292  1  0.44470998  0.42222267  0.84735791  1
  S  S293  1  0.56481772  0.94664536  0.85094484  1
  S  S294  1  0.06751789  0.92971748  0.84531770  1
  S  S295  1  0.94615046  0.45133261  0.84988150  1
  S  S296  1  0.39892265  0.78547113  0.80702206  1
  S  S297  1  0.60811794  0.22644065  0.79057947  1
  S  S298  1  0.10976405  0.27476877  0.80803674  1
  S  S299  1  0.89903572  0.71513840  0.79168042  1
  S  S300  1  0.35863045  0.45391064  0.92834374  1
  S  S301  1  0.66030959  0.66245554  0.96615202  1
  S  S302  1  0.15567572  0.31762107  0.87310206  1
  S  S303  1  0.85601095  0.42608965  0.92150559  1
  S  S304  1  0.85987999  0.16466055  0.96580901  1
  S  S305  1  0.16023776  0.95308631  0.92676296  1
  S  S306  1  0.66526742  0.91920767  0.92053584  1
  S  S307  1  0.35315057  0.80982069  0.87194844  1
  S  S308  1  0.44971301  0.80745323  0.94645593  1
  S  S309  1  0.57355225  0.31453265  0.94915177  1
  S  S310  1  0.07174283  0.30915275  0.94660348  1
  S  S311  1  0.94764137  0.81623941  0.94963051  1
  S  S312  1  0.40552429  0.15254666  0.90614633  1
  S  S313  1  0.60957457  0.58954744  0.89043851  1
  S  S314  1  0.11434051  0.64994920  0.90753456  1
  S  S315  1  0.90553464  0.08407307  0.89092691  1
  S  S316  1  0.16946506  0.70214747  0.97193776  1
  S  S317  1  0.35349772  0.19347207  0.97079360  1
  S  S318  1  0.63576055  0.96834783  0.98520725  1
  S  S319  1  0.88919206  0.46804794  0.98631468  1
