# generated using pymatgen
data_Li3PS4
_symmetry_space_group_name_H-M   'P 1'
_cell_length_a   13.05789500
_cell_length_b   10.24241400
_cell_length_c   51.02998960
_cell_angle_alpha   90.00000000
_cell_angle_beta   90.00000000
_cell_angle_gamma   90.00000000
_symmetry_Int_Tables_number   1
_chemical_formula_structural   Li3PS4
_chemical_formula_sum   'Li120 P40 S160'
_cell_volume   6824.97363459
_cell_formula_units_Z   40
loop_
 _symmetry_equiv_pos_site_id
 _symmetry_equiv_pos_as_xyz
  1  'x, y, z'
loop_
 _atom_site_type_symbol
 _atom_site_label
 _atom_site_symmetry_multiplicity
 _atom_site_fract_x
 _atom_site_fract_y
 _atom_site_fract_z
 _atom_site_occupancy
  Li  Li0  1  0.18145615  0.65889433  0.05038168  1
  Li  Li1  1  0.67544397  0.73244062  0.02654873  1
  Li  Li2  1  0.33160533  0.15771604  0.05039003  1
  Li  Li3  1  0.84785881  0.22525400  0.02711240  1
  Li  Li4  1  0.49396021  0.60744236  0.06713479  1
  Li  Li5  1  0.53383382  0.13340704  0.99649669  1
  Li  Li6  1  0.02166813  0.09889943  0.06903706  1
  Li  Li7  1  0.16857936  0.31123516  0.14131798  1
  Li  Li8  1  0.84103991  0.54793994  0.05906374  1
  Li  Li9  1  0.34387355  0.42223385  0.09241723  1
  Li  Li10  1  0.67081051  0.41409145  0.11461220  1
  Li  Li11  1  0.67663174  0.04656617  0.06033971  1
  Li  Li12  1  0.34661545  0.80983052  0.14214939  1
  Li  Li13  1  0.84589677  0.90830427  0.11529899  1
  Li  Li14  1  0.17423168  0.91964874  0.09351319  1
  Li  Li15  1  0.99579381  0.49057071  0.10341844  1
  Li  Li16  1  0.50388474  0.25770119  0.16403654  1
  Li  Li17  1  0.51863572  0.98814566  0.10334830  1
  Li  Li18  1  0.00978538  0.75483012  0.16422124  1
  Li  Li19  1  0.16676860  0.94703872  0.24001218  1
  Li  Li20  1  0.83470738  0.19126483  0.15697526  1
  Li  Li21  1  0.33424204  0.08010480  0.18780480  1
  Li  Li22  1  0.67577302  0.03714169  0.21568226  1
  Li  Li23  1  0.67742773  0.69143363  0.15740806  1
  Li  Li24  1  0.34375870  0.44380442  0.24187586  1
  Li  Li25  1  0.83964856  0.53343343  0.21669112  1
  Li  Li26  1  0.17858180  0.57402268  0.18877496  1
  Li  Li27  1  0.99689525  0.12385387  0.19929437  1
  Li  Li28  1  0.50257802  0.88304766  0.25221479  1
  Li  Li29  1  0.51564262  0.61537612  0.19955033  1
  Li  Li30  1  0.01483036  0.38950364  0.26096236  1
  Li  Li31  1  0.17138366  0.57367435  0.34031853  1
  Li  Li32  1  0.83991849  0.82396795  0.25446133  1
  Li  Li33  1  0.33652136  0.72058042  0.28494715  1
  Li  Li34  1  0.67930413  0.68284941  0.31110023  1
  Li  Li35  1  0.67055845  0.32038518  0.25783925  1
  Li  Li36  1  0.34205511  0.07006760  0.34146746  1
  Li  Li37  1  0.84161459  0.16852226  0.31254112  1
  Li  Li38  1  0.17985975  0.20814758  0.28579744  1
  Li  Li39  1  0.99928800  0.74827959  0.29726362  1
  Li  Li40  1  0.51439272  0.50550505  0.33623116  1
  Li  Li41  1  0.50014442  0.15430831  0.29910223  1
  Li  Li42  1  0.01127895  0.01404760  0.35342227  1
  Li  Li43  1  0.18226227  0.20830277  0.42954474  1
  Li  Li44  1  0.84893251  0.45182275  0.35292158  1
  Li  Li45  1  0.34648109  0.34695581  0.37999025  1
  Li  Li46  1  0.68701394  0.34469370  0.40579937  1
  Li  Li47  1  0.67332269  0.94726543  0.35548008  1
  Li  Li48  1  0.32331507  0.67556774  0.43511636  1
  Li  Li49  1  0.83969569  0.80788732  0.41080953  1
  Li  Li50  1  0.18113236  0.85741184  0.37955289  1
  Li  Li51  1  0.00690725  0.30044918  0.39781098  1
  Li  Li52  1  0.54794543  0.15873115  0.42933945  1
  Li  Li53  1  0.50225464  0.76192945  0.39905285  1
  Li  Li54  1  0.00662483  0.61874621  0.43473111  1
  Li  Li55  1  0.83325279  0.08264435  0.45444808  1
  Li  Li56  1  0.35898362  0.05758850  0.45566036  1
  Li  Li57  1  0.68222381  0.57527909  0.45571642  1
  Li  Li58  1  0.10070699  0.21089427  0.49306470  1
  Li  Li59  1  0.44164115  0.65775554  0.49234433  1
  Li  Li60  1  0.35818443  0.34252784  0.54937762  1
  Li  Li61  1  0.85814296  0.30772377  0.53057290  1
  Li  Li62  1  0.19965736  0.85040982  0.55042229  1
  Li  Li63  1  0.67864028  0.80863603  0.53205853  1
  Li  Li64  1  0.03506130  0.41345566  0.56765677  1
  Li  Li65  1  0.99203733  0.88325608  0.49770352  1
  Li  Li66  1  0.49749734  0.90437758  0.56764554  1
  Li  Li67  1  0.35966937  0.70410292  0.64256799  1
  Li  Li68  1  0.64386584  0.45869546  0.55034923  1
  Li  Li69  1  0.18739442  0.59352262  0.59211521  1
  Li  Li70  1  0.85641225  0.59502380  0.61351027  1
  Li  Li71  1  0.85222806  0.96891900  0.56106150  1
  Li  Li72  1  0.18219994  0.20912152  0.64329983  1
  Li  Li73  1  0.68141212  0.10923290  0.61621660  1
  Li  Li74  1  0.35900395  0.09811512  0.59374474  1
  Li  Li75  1  0.53282348  0.52417444  0.60478831  1
  Li  Li76  1  0.02367666  0.76247943  0.66370120  1
  Li  Li77  1  0.01188543  0.03095479  0.60443859  1
  Li  Li78  1  0.51655008  0.25977014  0.66578607  1
  Li  Li79  1  0.35647840  0.07581621  0.74128909  1
  Li  Li80  1  0.69135670  0.82469270  0.65709032  1
  Li  Li81  1  0.19380821  0.93480669  0.68817744  1
  Li  Li82  1  0.84582060  0.97592065  0.71590102  1
  Li  Li83  1  0.84931583  0.32947440  0.65939807  1
  Li  Li84  1  0.18427578  0.57993052  0.74291921  1
  Li  Li85  1  0.68597674  0.48725275  0.71797658  1
  Li  Li86  1  0.34880827  0.44779053  0.68956612  1
  Li  Li87  1  0.52872379  0.89314221  0.70047446  1
  Li  Li88  1  0.01284791  0.14495592  0.74219710  1
  Li  Li89  1  0.01241316  0.42334383  0.70037829  1
  Li  Li90  1  0.51118305  0.63332896  0.76201956  1
  Li  Li91  1  0.35366123  0.45132972  0.83990735  1
  Li  Li92  1  0.68688934  0.19859879  0.75511906  1
  Li  Li93  1  0.18520225  0.29660198  0.78460391  1
  Li  Li94  1  0.84553018  0.33784840  0.81073992  1
  Li  Li95  1  0.85625980  0.70501254  0.75891624  1
  Li  Li96  1  0.18395728  0.95571231  0.84345783  1
  Li  Li97  1  0.68305097  0.85682756  0.81335632  1
  Li  Li98  1  0.34559404  0.81600778  0.78630439  1
  Li  Li99  1  0.52663637  0.27817913  0.79792869  1
  Li  Li100  1  0.00915485  0.51956148  0.83787277  1
  Li  Li101  1  0.02684446  0.87625709  0.79967289  1
  Li  Li102  1  0.51169507  0.01135080  0.85417480  1
  Li  Li103  1  0.32830303  0.83471748  0.93041098  1
  Li  Li104  1  0.67777872  0.57509564  0.85434493  1
  Li  Li105  1  0.17912390  0.66755669  0.87771035  1
  Li  Li106  1  0.84046009  0.71395518  0.90634566  1
  Li  Li107  1  0.85058902  0.07857531  0.85495214  1
  Li  Li108  1  0.18804933  0.33581669  0.93254560  1
  Li  Li109  1  0.68135067  0.21856077  0.91054982  1
  Li  Li110  1  0.34374875  0.17576454  0.88016523  1
  Li  Li111  1  0.50866732  0.74187668  0.89842985  1
  Li  Li112  1  0.00205376  0.90564294  0.93697032  1
  Li  Li113  1  0.01313316  0.25863862  0.89592963  1
  Li  Li114  1  0.51593705  0.41266313  0.93531667  1
  Li  Li115  1  0.68386862  0.95756998  0.95219128  1
  Li  Li116  1  0.10087348  0.27559536  0.99307244  1
  Li  Li117  1  0.83125971  0.45805871  0.94968708  1
  Li  Li118  1  0.41939032  0.82402370  0.98716909  1
  Li  Li119  1  0.00646532  0.54237027  0.98430827  1
  P  P120  1  0.09659916  0.37805255  0.05033841  1
  P  P121  1  0.42158646  0.88237124  0.04983989  1
  P  P122  1  0.09548761  0.02751697  0.14419118  1
  P  P123  1  0.92324532  0.81493834  0.06084711  1
  P  P124  1  0.41894478  0.52673423  0.14366026  1
  P  P125  1  0.59079393  0.31693786  0.06055476  1
  P  P126  1  0.09588220  0.66521696  0.24098252  1
  P  P127  1  0.91444602  0.46396878  0.16191443  1
  P  P128  1  0.41648435  0.16326762  0.24042947  1
  P  P129  1  0.59770952  0.96433354  0.16191382  1
  P  P130  1  0.09963810  0.29189386  0.33851210  1
  P  P131  1  0.91901986  0.09813669  0.25876578  1
  P  P132  1  0.42221542  0.79676176  0.33822458  1
  P  P133  1  0.59589630  0.60018510  0.25882008  1
  P  P134  1  0.09504702  0.93158269  0.43221617  1
  P  P135  1  0.91886945  0.72934367  0.35671066  1
  P  P136  1  0.42675840  0.42304351  0.43462000  1
  P  P137  1  0.60400259  0.22923945  0.35437221  1
  P  P138  1  0.92243932  0.35947042  0.45443927  1
  P  P139  1  0.59731390  0.85310257  0.45464821  1
  P  P140  1  0.44288179  0.62010954  0.55109125  1
  P  P141  1  0.10985797  0.12976895  0.55090509  1
  P  P142  1  0.43110278  0.98799717  0.64451218  1
  P  P143  1  0.61077461  0.18107496  0.56056769  1
  P  P144  1  0.10890775  0.49291685  0.64378947  1
  P  P145  1  0.93628522  0.69412561  0.55994706  1
  P  P146  1  0.42975850  0.35607903  0.74180545  1
  P  P147  1  0.61349959  0.55136955  0.66314005  1
  P  P148  1  0.10811687  0.85924310  0.74045819  1
  P  P149  1  0.93020753  0.05467695  0.66286675  1
  P  P150  1  0.42616872  0.73278341  0.83867976  1
  P  P151  1  0.60624536  0.92464742  0.75943326  1
  P  P152  1  0.10435720  0.22882401  0.83852082  1
  P  P153  1  0.93017543  0.42322260  0.75903701  1
  P  P154  1  0.42411754  0.10398305  0.93290242  1
  P  P155  1  0.60615705  0.29655878  0.85710224  1
  P  P156  1  0.09465374  0.60623481  0.93055839  1
  P  P157  1  0.92380301  0.80180877  0.85500374  1
  P  P158  1  0.59958100  0.68021046  0.95398891  1
  P  P159  1  0.92431892  0.18225443  0.95506931  1
  S  S160  1  0.14937415  0.19626523  0.03977147  1
  S  S161  1  0.65731401  0.22494374  0.02848416  1
  S  S162  1  0.36386376  0.70593097  0.03857349  1
  S  S163  1  0.86349773  0.72615413  0.02833797  1
  S  S164  1  0.07545783  0.85694401  0.05477515  1
  S  S165  1  0.94437027  0.34894818  0.06089179  1
  S  S166  1  0.44006222  0.35764727  0.05281612  1
  S  S167  1  0.57261354  0.84807979  0.06102731  1
  S  S168  1  0.12401585  0.49627701  0.01916823  1
  S  S169  1  0.40215347  0.00561010  0.01866111  1
  S  S170  1  0.15860112  0.84585378  0.13894372  1
  S  S171  1  0.85566888  0.99550789  0.06894982  1
  S  S172  1  0.35222518  0.97103079  0.08162575  1
  S  S173  1  0.66134672  0.88224358  0.12902761  1
  S  S174  1  0.65931484  0.49609783  0.06809854  1
  S  S175  1  0.35723211  0.34483923  0.13776310  1
  S  S176  1  0.85218292  0.38269076  0.12873807  1
  S  S177  1  0.16442498  0.46621211  0.08229493  1
  S  S178  1  0.06478932  0.50873077  0.15186045  1
  S  S179  1  0.94334093  0.99220927  0.15406519  1
  S  S180  1  0.44793511  0.00914732  0.15150402  1
  S  S181  1  0.57102645  0.49196223  0.15389639  1
  S  S182  1  0.11602862  0.13651472  0.11107987  1
  S  S183  1  0.89529104  0.70168184  0.09360874  1
  S  S184  1  0.39996858  0.63771326  0.11073885  1
  S  S185  1  0.61684421  0.20450695  0.09330312  1
  S  S186  1  0.15938249  0.48543783  0.23378286  1
  S  S187  1  0.84924927  0.63823029  0.17317217  1
  S  S188  1  0.35516187  0.62780224  0.17451743  1
  S  S189  1  0.65586143  0.50670363  0.22680354  1
  S  S190  1  0.66309697  0.13907316  0.17280025  1
  S  S191  1  0.35117626  0.98557260  0.23197184  1
  S  S192  1  0.85910316  0.01296678  0.22574282  1
  S  S193  1  0.15764982  0.13212128  0.17479422  1
  S  S194  1  0.06841170  0.14714901  0.24849071  1
  S  S195  1  0.94598044  0.62531243  0.25273613  1
  S  S196  1  0.44562122  0.64512334  0.24802664  1
  S  S197  1  0.56672632  0.11917683  0.25158931  1
  S  S198  1  0.11065042  0.77976566  0.20836695  1
  S  S199  1  0.89725185  0.33698785  0.19267425  1
  S  S200  1  0.40171831  0.28326398  0.20866007  1
  S  S201  1  0.61328374  0.83821092  0.19299135  1
  S  S202  1  0.16272317  0.11310160  0.32975323  1
  S  S203  1  0.85185020  0.27254312  0.26933469  1
  S  S204  1  0.35629607  0.25685209  0.27254119  1
  S  S205  1  0.66307052  0.12715684  0.32318037  1
  S  S206  1  0.66205160  0.77790439  0.26744224  1
  S  S207  1  0.35224787  0.62293289  0.32844236  1
  S  S208  1  0.85758478  0.64201571  0.32402613  1
  S  S209  1  0.15941491  0.76560648  0.27195442  1
  S  S210  1  0.06818987  0.77437022  0.34497688  1
  S  S211  1  0.94868066  0.25077890  0.34937596  1
  S  S212  1  0.45181952  0.26523721  0.34376271  1
  S  S213  1  0.57131322  0.74818567  0.34836061  1
  S  S214  1  0.11487204  0.41254925  0.30683479  1
  S  S215  1  0.90349488  0.97224788  0.28974761  1
  S  S216  1  0.40566761  0.91999868  0.30662386  1
  S  S217  1  0.61067592  0.48075844  0.29070444  1
  S  S218  1  0.15495854  0.75386064  0.42153432  1
  S  S219  1  0.85284031  0.90448247  0.36673498  1
  S  S220  1  0.36438699  0.88484109  0.37120195  1
  S  S221  1  0.66478032  0.75738128  0.42336451  1
  S  S222  1  0.66541981  0.41149620  0.36011230  1
  S  S223  1  0.36979952  0.23818463  0.42315873  1
  S  S224  1  0.84931957  0.26459890  0.42373342  1
  S  S225  1  0.16210416  0.38323462  0.37065865  1
  S  S226  1  0.07301386  0.39089321  0.44319928  1
  S  S227  1  0.95142780  0.88756335  0.44783198  1
  S  S228  1  0.44206259  0.86087022  0.44496647  1
  S  S229  1  0.57702352  0.38419120  0.44431049  1
  S  S230  1  0.09682777  0.05172550  0.39978737  1
  S  S231  1  0.90529362  0.60479342  0.38793021  1
  S  S232  1  0.40961992  0.53981605  0.40190013  1
  S  S233  1  0.62877021  0.11853665  0.38704604  1
  S  S234  1  0.86555560  0.53806178  0.46314106  1
  S  S235  1  0.34223798  0.49438296  0.46439438  1
  S  S236  1  0.64626883  0.03752912  0.46134903  1
  S  S237  1  0.17802404  0.02241030  0.46085208  1
  S  S238  1  0.91706833  0.23228474  0.48607639  1
  S  S239  1  0.61780046  0.73523620  0.48698298  1
  S  S240  1  0.37425637  0.78200090  0.53514858  1
  S  S241  1  0.86942178  0.79159955  0.52849944  1
  S  S242  1  0.16757660  0.30647631  0.53915487  1
  S  S243  1  0.67732363  0.24932442  0.52736321  1
  S  S244  1  0.45725462  0.13840252  0.55383228  1
  S  S245  1  0.58373788  0.67772191  0.56604953  1
  S  S246  1  0.08750165  0.65279337  0.55209247  1
  S  S247  1  0.95985691  0.16578824  0.56213440  1
  S  S248  1  0.47146610  0.48042737  0.52387247  1
  S  S249  1  0.12686036  0.00831536  0.51928738  1
  S  S250  1  0.36943098  0.17056325  0.63925944  1
  S  S251  1  0.67232102  0.00167685  0.57196009  1
  S  S252  1  0.18090383  0.03976667  0.58211109  1
  S  S253  1  0.86669921  0.14045620  0.63040567  1
  S  S254  1  0.86334000  0.51682669  0.56622780  1
  S  S255  1  0.17107680  0.67401894  0.63734138  1
  S  S256  1  0.67764374  0.62870756  0.62994446  1
  S  S257  1  0.36349192  0.53289639  0.58142623  1
  S  S258  1  0.46337552  0.50688980  0.65262952  1
  S  S259  1  0.58325669  0.02337540  0.65447648  1
  S  S260  1  0.07966362  0.00950163  0.65214964  1
  S  S261  1  0.95660922  0.52826386  0.65385776  1
  S  S262  1  0.40880811  0.87729477  0.61170308  1
  S  S263  1  0.63352721  0.30857709  0.59124708  1
  S  S264  1  0.12779892  0.37948544  0.61118216  1
  S  S265  1  0.91342726  0.80419605  0.59316354  1
  S  S266  1  0.36754278  0.53633697  0.73427895  1
  S  S267  1  0.67694279  0.37713437  0.67503984  1
  S  S268  1  0.17197311  0.39385478  0.67499584  1
  S  S269  1  0.86880106  0.51880545  0.72738699  1
  S  S270  1  0.86386955  0.87953858  0.67297718  1
  S  S271  1  0.17461100  0.03541176  0.73114817  1
  S  S272  1  0.66587355  0.00932804  0.72628500  1
  S  S273  1  0.36960145  0.88449905  0.67535823  1
  S  S274  1  0.45688098  0.87566474  0.74909934  1
  S  S275  1  0.57944201  0.39596961  0.75374048  1
  S  S276  1  0.08023062  0.37972427  0.74771007  1
  S  S277  1  0.95863650  0.90546343  0.75159374  1
  S  S278  1  0.41461792  0.24072647  0.70931346  1
  S  S279  1  0.62950626  0.68109511  0.69345883  1
  S  S280  1  0.12214108  0.73564876  0.70911795  1
  S  S281  1  0.91554222  0.17954915  0.69437891  1
  S  S282  1  0.36171765  0.91107087  0.83011258  1
  S  S283  1  0.67407260  0.75085667  0.77005896  1
  S  S284  1  0.16889081  0.76872309  0.77277739  1
  S  S285  1  0.86204966  0.89962027  0.82349415  1
  S  S286  1  0.86575725  0.24411989  0.76702819  1
  S  S287  1  0.17234595  0.40246570  0.82795632  1
  S  S288  1  0.66889860  0.38483172  0.82471830  1
  S  S289  1  0.36525380  0.25782426  0.77286154  1
  S  S290  1  0.45717182  0.25156306  0.84515761  1
  S  S291  1  0.57637288  0.77541407  0.84978460  1
  S  S292  1  0.07356288  0.76088381  0.84298167  1
  S  S293  1  0.95358098  0.27668237  0.84803666  1
  S  S294  1  0.41112318  0.61266664  0.80686160  1
  S  S295  1  0.62105623  0.05137885  0.79024254  1
  S  S296  1  0.12228877  0.10232094  0.80782563  1
  S  S297  1  0.91575027  0.54112496  0.79110971  1
  S  S298  1  0.36677362  0.28309894  0.92162871  1
  S  S299  1  0.67171947  0.12079742  0.86696514  1
  S  S300  1  0.16074390  0.14529905  0.87220458  1
  S  S301  1  0.85834960  0.26806338  0.92247880  1
  S  S302  1  0.86017941  0.62210353  0.86231510  1
  S  S303  1  0.15180072  0.78438599  0.91886049  1
  S  S304  1  0.66997934  0.77108147  0.92256602  1
  S  S305  1  0.36469594  0.63974177  0.87067250  1
  S  S306  1  0.44727460  0.65037547  0.94438909  1
  S  S307  1  0.56995074  0.15004064  0.94779692  1
  S  S308  1  0.07755753  0.14825896  0.94811752  1
  S  S309  1  0.94608533  0.64995697  0.94371621  1
  S  S310  1  0.42452832  0.98244973  0.90037898  1
  S  S311  1  0.61886099  0.42079253  0.88837738  1
  S  S312  1  0.10325735  0.47981166  0.89930832  1
  S  S313  1  0.90746365  0.91812449  0.88731530  1
  S  S314  1  0.65664048  0.50207797  0.96346870  1
  S  S315  1  0.17273280  0.52810803  0.96103783  1
  S  S316  1  0.86192511  0.00873017  0.96529282  1
  S  S317  1  0.33552584  0.01993921  0.96046750  1
  S  S318  1  0.60687964  0.81034654  0.98511834  1
  S  S319  1  0.91218953  0.31736908  0.98576253  1
