# generated using pymatgen
data_Li3PS4
_symmetry_space_group_name_H-M   'P 1'
_cell_length_a   13.05789500
_cell_length_b   10.24241400
_cell_length_c   50.96061507
_cell_angle_alpha   90.00000000
_cell_angle_beta   90.00000000
_cell_angle_gamma   90.00000000
_symmetry_Int_Tables_number   1
_chemical_formula_structural   Li3PS4
_chemical_formula_sum   'Li120 P40 S160'
_cell_volume   6815.69518244
_cell_formula_units_Z   40
loop_
 _symmetry_equiv_pos_site_id
 _symmetry_equiv_pos_as_xyz
  1  'x, y, z'
loop_
 _atom_site_type_symbol
 _atom_site_label
 _atom_site_symmetry_multiplicity
 _atom_site_fract_x
 _atom_site_fract_y
 _atom_site_fract_z
 _atom_site_occupancy
  Li  Li0  1  0.16859502  0.80828433  0.04572968  1
  Li  Li1  1  0.81655235  0.68273067  0.07023139  1
  Li  Li2  1  0.63973693  0.83350232  0.04368752  1
  Li  Li3  1  0.67577165  0.21557075  0.06516535  1
  Li  Li4  1  0.31728552  0.31535645  0.04423611  1
  Li  Li5  1  0.89961575  0.66854150  0.00784760  1
  Li  Li6  1  0.45106489  0.73004709  0.07002663  1
  Li  Li7  1  0.55882043  0.22543558  0.00818669  1
  Li  Li8  1  0.99369529  0.27211734  0.06456035  1
  Li  Li9  1  0.15111250  0.43864294  0.14644713  1
  Li  Li10  1  0.82665177  0.31713949  0.15944905  1
  Li  Li11  1  0.31362792  0.54669323  0.09381316  1
  Li  Li12  1  0.65294366  0.54281208  0.12020234  1
  Li  Li13  1  0.65607750  0.82231743  0.15737876  1
  Li  Li14  1  0.32692014  0.94338582  0.14362491  1
  Li  Li15  1  0.81766574  0.03300087  0.12028262  1
  Li  Li16  1  0.16096657  0.08435225  0.08859323  1
  Li  Li17  1  0.99317451  0.59167077  0.10190166  1
  Li  Li18  1  0.48428483  0.38405973  0.16346768  1
  Li  Li19  1  0.49706042  0.12987247  0.10082018  1
  Li  Li20  1  0.98812654  0.87711240  0.14647947  1
  Li  Li21  1  0.15788032  0.06653749  0.24443907  1
  Li  Li22  1  0.82808417  0.94264719  0.25904679  1
  Li  Li23  1  0.31905513  0.20485842  0.18875500  1
  Li  Li24  1  0.65734171  0.16372881  0.21548430  1
  Li  Li25  1  0.65320177  0.44484188  0.25710907  1
  Li  Li26  1  0.32720292  0.56912647  0.24155172  1
  Li  Li27  1  0.81571174  0.68249849  0.21354581  1
  Li  Li28  1  0.15587577  0.72184085  0.18673283  1
  Li  Li29  1  0.99805579  0.14467436  0.20204987  1
  Li  Li30  1  0.48151966  0.00975176  0.25867824  1
  Li  Li31  1  0.49700667  0.74323890  0.20062906  1
  Li  Li32  1  0.98205561  0.50024272  0.23873521  1
  Li  Li33  1  0.16072687  0.68975928  0.34298994  1
  Li  Li34  1  0.82907182  0.56867058  0.35761997  1
  Li  Li35  1  0.31416107  0.84269607  0.28463717  1
  Li  Li36  1  0.66504804  0.80139561  0.31215339  1
  Li  Li37  1  0.65241277  0.07243924  0.35761812  1
  Li  Li38  1  0.31885378  0.19327145  0.34121635  1
  Li  Li39  1  0.81863964  0.31000939  0.31072462  1
  Li  Li40  1  0.15753337  0.35323510  0.28237285  1
  Li  Li41  1  0.99976709  0.76470682  0.30014434  1
  Li  Li42  1  0.49392615  0.62580123  0.33575192  1
  Li  Li43  1  0.48314515  0.28651657  0.30032897  1
  Li  Li44  1  0.98710475  0.12665071  0.33504711  1
  Li  Li45  1  0.11480384  0.32499087  0.45020931  1
  Li  Li46  1  0.82886481  0.20873043  0.45059734  1
  Li  Li47  1  0.32751935  0.46177152  0.38640920  1
  Li  Li48  1  0.65653824  0.45898741  0.40792410  1
  Li  Li49  1  0.67197020  0.71585338  0.44983681  1
  Li  Li50  1  0.32388791  0.83429414  0.43917900  1
  Li  Li51  1  0.83079747  0.96139583  0.40701949  1
  Li  Li52  1  0.15225311  0.97488229  0.38429246  1
  Li  Li53  1  0.00252753  0.38900199  0.39575735  1
  Li  Li54  1  0.50615632  0.27650769  0.43243264  1
  Li  Li55  1  0.48224783  0.89219788  0.39608220  1
  Li  Li56  1  0.96910952  0.77158296  0.43287180  1
  Li  Li57  1  0.33093244  0.17317239  0.46959627  1
  Li  Li58  1  0.14994060  0.67495935  0.46790262  1
  Li  Li59  1  0.46527378  0.74295550  0.50226686  1
  Li  Li60  1  0.30776162  0.94346952  0.54491953  1
  Li  Li61  1  0.66068205  0.06992268  0.57043094  1
  Li  Li62  1  0.83707113  0.91799135  0.54393179  1
  Li  Li63  1  0.80004825  0.53555618  0.56563857  1
  Li  Li64  1  0.15840245  0.43734949  0.54424337  1
  Li  Li65  1  0.57539793  0.07652330  0.50766728  1
  Li  Li66  1  0.02615104  0.02165796  0.57030840  1
  Li  Li67  1  0.91601623  0.52407867  0.50817618  1
  Li  Li68  1  0.48320254  0.47951083  0.56513287  1
  Li  Li69  1  0.32558555  0.31286056  0.64626044  1
  Li  Li70  1  0.64996704  0.43430745  0.65957361  1
  Li  Li71  1  0.16321435  0.20764214  0.59382145  1
  Li  Li72  1  0.82320699  0.20852489  0.62029473  1
  Li  Li73  1  0.82062211  0.92979552  0.65737057  1
  Li  Li74  1  0.14848781  0.80861637  0.64461301  1
  Li  Li75  1  0.65666181  0.72161138  0.62009986  1
  Li  Li76  1  0.31609455  0.66969109  0.58873451  1
  Li  Li77  1  0.48358904  0.15841291  0.60158127  1
  Li  Li78  1  0.99091692  0.36706896  0.66348830  1
  Li  Li79  1  0.97910016  0.62330458  0.60104888  1
  Li  Li80  1  0.48718360  0.87407024  0.64669191  1
  Li  Li81  1  0.31783673  0.68421264  0.74467716  1
  Li  Li82  1  0.64685208  0.80776922  0.75932455  1
  Li  Li83  1  0.15656690  0.54476338  0.68889851  1
  Li  Li84  1  0.82005650  0.59010556  0.71597694  1
  Li  Li85  1  0.82228106  0.30457968  0.75729337  1
  Li  Li86  1  0.14782175  0.18073001  0.74161943  1
  Li  Li87  1  0.65985902  0.06936758  0.71353873  1
  Li  Li88  1  0.32150917  0.03235655  0.68739805  1
  Li  Li89  1  0.47890225  0.60791832  0.70219202  1
  Li  Li90  1  0.99365230  0.74011835  0.75874427  1
  Li  Li91  1  0.97895683  0.00799385  0.70064747  1
  Li  Li92  1  0.49357389  0.25106737  0.73882115  1
  Li  Li93  1  0.31268049  0.05853575  0.84364242  1
  Li  Li94  1  0.64255959  0.17804978  0.85802088  1
  Li  Li95  1  0.16092708  0.90708224  0.78479492  1
  Li  Li96  1  0.80946347  0.94850205  0.81234601  1
  Li  Li97  1  0.82143587  0.67504883  0.85811173  1
  Li  Li98  1  0.15458973  0.55456996  0.84150221  1
  Li  Li99  1  0.65622746  0.43846548  0.81099187  1
  Li  Li100  1  0.31768871  0.39703050  0.78248677  1
  Li  Li101  1  0.47495701  0.98932739  0.80033138  1
  Li  Li102  1  0.97879842  0.12190138  0.83649142  1
  Li  Li103  1  0.99190999  0.46281608  0.80046499  1
  Li  Li104  1  0.48742909  0.62243087  0.83504592  1
  Li  Li105  1  0.35890831  0.42440321  0.95051579  1
  Li  Li106  1  0.64519994  0.53978708  0.95061427  1
  Li  Li107  1  0.14691555  0.28659305  0.88685446  1
  Li  Li108  1  0.81591830  0.28712824  0.90788034  1
  Li  Li109  1  0.80105371  0.03175266  0.95001809  1
  Li  Li110  1  0.14985737  0.91450928  0.93929829  1
  Li  Li111  1  0.64279573  0.78470849  0.90693568  1
  Li  Li112  1  0.32110712  0.77453824  0.88456715  1
  Li  Li113  1  0.47137129  0.36017816  0.89599939  1
  Li  Li114  1  0.96699109  0.46686701  0.93276243  1
  Li  Li115  1  0.99086797  0.85526280  0.89605244  1
  Li  Li116  1  0.50430858  0.97676056  0.93315373  1
  Li  Li117  1  0.14374753  0.57683370  0.96967741  1
  Li  Li118  1  0.32240009  0.07472916  0.96811644  1
  Li  Li119  1  0.00857915  0.99322415  0.00259337  1
  P  P120  1  0.07794797  0.53210573  0.04502383  1
  P  P121  1  0.90475956  0.95916319  0.06764174  1
  P  P122  1  0.40230699  0.03782428  0.04464202  1
  P  P123  1  0.57235335  0.46774400  0.06510447  1
  P  P124  1  0.08073024  0.16134769  0.14264063  1
  P  P125  1  0.89907969  0.59855464  0.16103921  1
  P  P126  1  0.39500200  0.66118471  0.14523961  1
  P  P127  1  0.57694741  0.09361061  0.16114887  1
  P  P128  1  0.07706783  0.79180339  0.24055753  1
  P  P129  1  0.90031466  0.22264865  0.25831871  1
  P  P130  1  0.40168794  0.28837415  0.24112724  1
  P  P131  1  0.57861228  0.72511373  0.25962251  1
  P  P132  1  0.08329765  0.41696440  0.33697192  1
  P  P133  1  0.90171964  0.85343170  0.35586097  1
  P  P134  1  0.40041564  0.91833957  0.33745874  1
  P  P135  1  0.57958607  0.35580224  0.35628872  1
  P  P136  1  0.08227386  0.04717300  0.43983279  1
  P  P137  1  0.91394600  0.48614132  0.44904782  1
  P  P138  1  0.40800122  0.55941776  0.44008378  1
  P  P139  1  0.58076900  0.99450620  0.44923957  1
  P  P140  1  0.39809113  0.22078662  0.54520043  1
  P  P141  1  0.57110061  0.79474040  0.56731482  1
  P  P142  1  0.07290596  0.71389653  0.54467305  1
  P  P143  1  0.90387698  0.28369166  0.56526733  1
  P  P144  1  0.39524378  0.59019885  0.64282907  1
  P  P145  1  0.57697994  0.15290021  0.66098135  1
  P  P146  1  0.08180798  0.09155187  0.64541459  1
  P  P147  1  0.89875982  0.65801422  0.66137400  1
  P  P148  1  0.39897881  0.95883183  0.74091876  1
  P  P149  1  0.57524976  0.52702506  0.75854391  1
  P  P150  1  0.07401526  0.46149845  0.74129337  1
  P  P151  1  0.89656449  0.02430382  0.75983426  1
  P  P152  1  0.39051842  0.33223670  0.83733365  1
  P  P153  1  0.57225160  0.89500107  0.85603175  1
  P  P154  1  0.07352824  0.82987176  0.83763535  1
  P  P155  1  0.89433501  0.39126368  0.85649912  1
  P  P156  1  0.39159829  0.70161595  0.93999904  1
  P  P157  1  0.55966758  0.26250913  0.94919357  1
  P  P158  1  0.06565486  0.18752104  0.94029738  1
  P  P159  1  0.89197053  0.75160177  0.94923221  1
  S  S160  1  0.13449985  0.35344500  0.03615198  1
  S  S161  1  0.84551583  0.13733113  0.07823418  1
  S  S162  1  0.33587444  0.13207048  0.07626360  1
  S  S163  1  0.65767426  0.39579137  0.03554714  1
  S  S164  1  0.62880463  0.65286637  0.07654045  1
  S  S165  1  0.35430021  0.85292612  0.03788344  1
  S  S166  1  0.82193256  0.86870966  0.03890752  1
  S  S167  1  0.15008193  0.62542836  0.07609100  1
  S  S168  1  0.04879296  0.00182850  0.05203743  1
  S  S169  1  0.92621589  0.50135041  0.05546923  1
  S  S170  1  0.42213480  0.50604488  0.05509834  1
  S  S171  1  0.55825999  0.03222126  0.05349767  1
  S  S172  1  0.08488417  0.65981724  0.01350077  1
  S  S173  1  0.37976768  0.15618688  0.01250391  1
  S  S174  1  0.14652318  0.98621567  0.13259622  1
  S  S175  1  0.83544786  0.77729712  0.16964804  1
  S  S176  1  0.33454105  0.76419034  0.17618130  1
  S  S177  1  0.63430899  0.00826416  0.12768733  1
  S  S178  1  0.64632914  0.26676349  0.17160525  1
  S  S179  1  0.33394040  0.47883101  0.13943700  1
  S  S180  1  0.83733771  0.50668233  0.12879436  1
  S  S181  1  0.14203367  0.24871601  0.17536367  1
  S  S182  1  0.05006229  0.63938227  0.15014717  1
  S  S183  1  0.93133119  0.11692729  0.15444267  1
  S  S184  1  0.42764847  0.14272293  0.15111172  1
  S  S185  1  0.54672056  0.62609748  0.15610876  1
  S  S186  1  0.09454860  0.28631742  0.11143138  1
  S  S187  1  0.90266685  0.83861654  0.10002788  1
  S  S188  1  0.37099507  0.77119800  0.11232987  1
  S  S189  1  0.58814354  0.35138483  0.09797155  1
  S  S190  1  0.14528351  0.61774691  0.23027797  1
  S  S191  1  0.83692956  0.40207780  0.26594893  1
  S  S192  1  0.34056542  0.38385816  0.27285733  1
  S  S193  1  0.63904274  0.63511306  0.22708953  1
  S  S194  1  0.64501554  0.90122842  0.26890482  1
  S  S195  1  0.33691141  0.10998229  0.23282271  1
  S  S196  1  0.83657470  0.12356274  0.22718640  1
  S  S197  1  0.13550315  0.87878041  0.27365605  1
  S  S198  1  0.04993840  0.26374909  0.24638042  1
  S  S199  1  0.92771942  0.74264040  0.25079504  1
  S  S200  1  0.42861137  0.77032999  0.24877687  1
  S  S201  1  0.55140409  0.24424046  0.25249680  1
  S  S202  1  0.09277154  0.91746307  0.20951571  1
  S  S203  1  0.88338934  0.47809617  0.19274933  1
  S  S204  1  0.38760976  0.40673732  0.20902753  1
  S  S205  1  0.59334350  0.96847331  0.19225254  1
  S  S206  1  0.14712474  0.24279993  0.32507903  1
  S  S207  1  0.83993865  0.03566876  0.36134470  1
  S  S208  1  0.33727843  0.00370473  0.37000638  1
  S  S209  1  0.64266499  0.25513556  0.32527988  1
  S  S210  1  0.64139556  0.53741923  0.36237275  1
  S  S211  1  0.33376606  0.74347197  0.32721956  1
  S  S212  1  0.84047901  0.75039661  0.32488578  1
  S  S213  1  0.14755312  0.49434799  0.37015872  1
  S  S214  1  0.05378750  0.88938594  0.34574833  1
  S  S215  1  0.93337462  0.37181411  0.34759820  1
  S  S216  1  0.42737354  0.39135871  0.34610625  1
  S  S217  1  0.54985702  0.87313128  0.34802609  1
  S  S218  1  0.09813760  0.54671556  0.30654501  1
  S  S219  1  0.88578893  0.10662146  0.29081616  1
  S  S220  1  0.38540275  0.04419216  0.30598407  1
  S  S221  1  0.59387506  0.60141103  0.29093469  1
  S  S222  1  0.14366562  0.86738767  0.42846211  1
  S  S223  1  0.84652399  0.64838300  0.46513781  1
  S  S224  1  0.34080420  0.65648141  0.47149558  1
  S  S225  1  0.65210646  0.90424366  0.41801553  1
  S  S226  1  0.63897592  0.17111958  0.46092167  1
  S  S227  1  0.33544888  0.38216153  0.43367016  1
  S  S228  1  0.83335059  0.40001674  0.41870363  1
  S  S229  1  0.14967318  0.11605487  0.47289184  1
  S  S230  1  0.05485882  0.54285299  0.43395906  1
  S  S231  1  0.92888067  0.00451692  0.44679627  1
  S  S232  1  0.43101654  0.03117582  0.43777717  1
  S  S233  1  0.55923293  0.51905498  0.44799925  1
  S  S234  1  0.10436848  0.17417101  0.40897735  1
  S  S235  1  0.88062144  0.74183866  0.38860091  1
  S  S236  1  0.38470957  0.66963963  0.40679916  1
  S  S237  1  0.59836667  0.24407069  0.38913228  1
  S  S238  1  0.94192374  0.34599323  0.47620197  1
  S  S239  1  0.59719336  0.87325779  0.48086751  1
  S  S240  1  0.34178811  0.40007553  0.53672472  1
  S  S241  1  0.63061393  0.61683923  0.57802463  1
  S  S242  1  0.14062506  0.62068544  0.57623768  1
  S  S243  1  0.81777870  0.35535535  0.53581349  1
  S  S244  1  0.84812280  0.09836995  0.57675232  1
  S  S245  1  0.12044007  0.89871566  0.53768011  1
  S  S246  1  0.65509066  0.88560305  0.53888130  1
  S  S247  1  0.32540771  0.12567259  0.57595205  1
  S  S248  1  0.42723582  0.75089452  0.55171417  1
  S  S249  1  0.54959982  0.25090292  0.55589141  1
  S  S250  1  0.05404731  0.24594060  0.55514808  1
  S  S251  1  0.91721803  0.71884043  0.55379937  1
  S  S252  1  0.39107986  0.09442256  0.51345111  1
  S  S253  1  0.09459996  0.59516600  0.51251578  1
  S  S254  1  0.32871263  0.76528874  0.63303810  1
  S  S255  1  0.64100644  0.97433624  0.66953960  1
  S  S256  1  0.14231389  0.99003809  0.67657610  1
  S  S257  1  0.84094213  0.74258442  0.62786944  1
  S  S258  1  0.82963179  0.48506458  0.67206720  1
  S  S259  1  0.14224863  0.27416387  0.63954150  1
  S  S260  1  0.63887319  0.24511263  0.62879649  1
  S  S261  1  0.33465049  0.50212613  0.67555331  1
  S  S262  1  0.42600975  0.11179691  0.65018353  1
  S  S263  1  0.54486750  0.63461624  0.65442842  1
  S  S264  1  0.04809500  0.60918034  0.65135198  1
  S  S265  1  0.92977500  0.12593548  0.65617376  1
  S  S266  1  0.38142675  0.46629498  0.61143115  1
  S  S267  1  0.57186873  0.91442861  0.59984494  1
  S  S268  1  0.10631419  0.98078440  0.61269349  1
  S  S269  1  0.88825990  0.39994644  0.59816495  1
  S  S270  1  0.33058113  0.13326935  0.73087368  1
  S  S271  1  0.63828374  0.34732183  0.76611685  1
  S  S272  1  0.13509596  0.36576210  0.77300235  1
  S  S273  1  0.83660743  0.11470634  0.72728035  1
  S  S274  1  0.83003049  0.84829653  0.76907053  1
  S  S275  1  0.13874965  0.63986718  0.73296979  1
  S  S276  1  0.63970740  0.62625694  0.72752243  1
  S  S277  1  0.34043675  0.87167921  0.77397330  1
  S  S278  1  0.42565547  0.48679131  0.74650193  1
  S  S279  1  0.54837816  0.00806333  0.75094093  1
  S  S280  1  0.04656840  0.97899022  0.74896298  1
  S  S281  1  0.92429715  0.50551240  0.75273646  1
  S  S282  1  0.38274353  0.83381813  0.70976164  1
  S  S283  1  0.59227977  0.27309879  0.69276167  1
  S  S284  1  0.08770510  0.34333897  0.70915780  1
  S  S285  1  0.88260587  0.78392150  0.69237065  1
  S  S286  1  0.32707663  0.50655025  0.82543216  1
  S  S287  1  0.63400656  0.71253660  0.86130289  1
  S  S288  1  0.13613915  0.74421834  0.87022545  1
  S  S289  1  0.83200319  0.49277478  0.82550531  1
  S  S290  1  0.83159457  0.20991783  0.86238070  1
  S  S291  1  0.13995776  0.00499921  0.82756658  1
  S  S292  1  0.63382628  0.99825609  0.82511809  1
  S  S293  1  0.32651206  0.25501480  0.87057577  1
  S  S294  1  0.42011117  0.85951114  0.84605912  1
  S  S295  1  0.54075279  0.37635257  0.84778022  1
  S  S296  1  0.04672233  0.35583931  0.84645283  1
  S  S297  1  0.92375027  0.87430468  0.84811739  1
  S  S298  1  0.37433005  0.20245848  0.80695099  1
  S  S299  1  0.58955209  0.64267466  0.79108194  1
  S  S300  1  0.08932461  0.70446472  0.80612090  1
  S  S301  1  0.88128755  0.14792299  0.79114021  1
  S  S302  1  0.33016514  0.88142689  0.92865192  1
  S  S303  1  0.62689997  0.09999416  0.96526438  1
  S  S304  1  0.13141091  0.09013176  0.97186739  1
  S  S305  1  0.82115058  0.84235429  0.91799523  1
  S  S306  1  0.83475892  0.57418726  0.96072985  1
  S  S307  1  0.13871495  0.36479146  0.93407916  1
  S  S308  1  0.64018324  0.34816930  0.91880147  1
  S  S309  1  0.32461413  0.63332098  0.97316008  1
  S  S310  1  0.41852880  0.20617790  0.93424580  1
  S  S311  1  0.54509106  0.74396520  0.94685207  1
  S  S312  1  0.04241137  0.71752149  0.93807866  1
  S  S313  1  0.91423478  0.22807133  0.94792426  1
  S  S314  1  0.36906986  0.57455751  0.90918899  1
  S  S315  1  0.59364427  0.00580690  0.88888316  1
  S  S316  1  0.08950015  0.07786033  0.90696573  1
  S  S317  1  0.87519189  0.50226889  0.88942297  1
  S  S318  1  0.53234297  0.40309094  0.97629843  1
  S  S319  1  0.87290725  0.87156673  0.98101549  1
