# generated using pymatgen
data_Li3PS4
_symmetry_space_group_name_H-M   'P 1'
_cell_length_a   13.05789500
_cell_length_b   10.24241400
_cell_length_c   50.13095771
_cell_angle_alpha   90.00000000
_cell_angle_beta   90.00000000
_cell_angle_gamma   90.00000000
_symmetry_Int_Tables_number   1
_chemical_formula_structural   Li3PS4
_chemical_formula_sum   'Li120 P40 S160'
_cell_volume   6704.73318338
_cell_formula_units_Z   40
loop_
 _symmetry_equiv_pos_site_id
 _symmetry_equiv_pos_as_xyz
  1  'x, y, z'
loop_
 _atom_site_type_symbol
 _atom_site_label
 _atom_site_symmetry_multiplicity
 _atom_site_fract_x
 _atom_site_fract_y
 _atom_site_fract_z
 _atom_site_occupancy
  Li  Li0  1  0.16170253  0.95362941  0.05055517  1
  Li  Li1  1  0.80980908  0.84247400  0.05931355  1
  Li  Li2  1  0.32139667  0.71610951  0.08984491  1
  Li  Li3  1  0.65482372  0.10928252  0.01154365  1
  Li  Li4  1  0.65963476  0.34608408  0.05708197  1
  Li  Li5  1  0.31171309  0.45490212  0.04938212  1
  Li  Li6  1  0.82131334  0.61405951  0.01091748  1
  Li  Li7  1  0.15174682  0.22393801  0.08898432  1
  Li  Li8  1  0.47715383  0.90339990  0.06249802  1
  Li  Li9  1  0.48907071  0.48761219  0.00062746  1
  Li  Li10  1  0.99365398  0.40617053  0.06207182  1
  Li  Li11  1  0.14613173  0.58541196  0.14270579  1
  Li  Li12  1  0.82054797  0.45996187  0.15975146  1
  Li  Li13  1  0.30616059  0.35533602  0.18740473  1
  Li  Li14  1  0.64704068  0.68234580  0.11736059  1
  Li  Li15  1  0.65002762  0.96456190  0.15752871  1
  Li  Li16  1  0.32147912  0.09030358  0.14079002  1
  Li  Li17  1  0.80969695  0.19067496  0.11520011  1
  Li  Li18  1  0.14947049  0.86730928  0.18573930  1
  Li  Li19  1  0.97212920  0.74022315  0.10086860  1
  Li  Li20  1  0.47510462  0.53200856  0.16279920  1
  Li  Li21  1  0.49706821  0.26697030  0.10053896  1
  Li  Li22  1  0.97410622  0.01873131  0.14328919  1
  Li  Li23  1  0.14911023  0.21077617  0.24560908  1
  Li  Li24  1  0.82036392  0.08813129  0.25968989  1
  Li  Li25  1  0.31383906  0.99846963  0.28441291  1
  Li  Li26  1  0.65415366  0.31639863  0.21492513  1
  Li  Li27  1  0.64396511  0.59012536  0.25830064  1
  Li  Li28  1  0.31705452  0.71344674  0.24207933  1
  Li  Li29  1  0.80915902  0.82634440  0.21368909  1
  Li  Li30  1  0.14874142  0.49879204  0.28407319  1
  Li  Li31  1  0.99010215  0.28644170  0.20180395  1
  Li  Li32  1  0.48831084  0.14904939  0.24337567  1
  Li  Li33  1  0.48809735  0.87492381  0.19987072  1
  Li  Li34  1  0.97508786  0.64599893  0.23953367  1
  Li  Li35  1  0.15379723  0.84137237  0.34372062  1
  Li  Li36  1  0.81915394  0.71789081  0.35977642  1
  Li  Li37  1  0.31874106  0.62570432  0.38453861  1
  Li  Li38  1  0.65409827  0.95449476  0.31273378  1
  Li  Li39  1  0.64620680  0.21924569  0.35940754  1
  Li  Li40  1  0.31050339  0.34163472  0.34400196  1
  Li  Li41  1  0.80916168  0.45886061  0.31196082  1
  Li  Li42  1  0.14437954  0.12529215  0.38418151  1
  Li  Li43  1  0.98946269  0.91002602  0.30103514  1
  Li  Li44  1  0.48688044  0.77747827  0.33827771  1
  Li  Li45  1  0.47292747  0.41696474  0.30139971  1
  Li  Li46  1  0.97705550  0.27639824  0.33799885  1
  Li  Li47  1  0.15656200  0.47198323  0.44351273  1
  Li  Li48  1  0.81056785  0.36092867  0.45053828  1
  Li  Li49  1  0.31845605  0.21578936  0.48820912  1
  Li  Li50  1  0.64627243  0.59281864  0.41060091  1
  Li  Li51  1  0.65731894  0.85987998  0.45060283  1
  Li  Li52  1  0.31065748  0.97039248  0.44304802  1
  Li  Li53  1  0.82063799  0.09251946  0.41066206  1
  Li  Li54  1  0.15177707  0.71636898  0.48771635  1
  Li  Li55  1  0.99459635  0.54309583  0.39934338  1
  Li  Li56  1  0.49098073  0.40959881  0.43780694  1
  Li  Li57  1  0.47128034  0.04867918  0.39963870  1
  Li  Li58  1  0.97681256  0.90908827  0.43793832  1
  Li  Li59  1  0.48589851  0.83462157  0.50161918  1
  Li  Li60  1  0.31231702  0.87199515  0.55050033  1
  Li  Li61  1  0.66301202  0.98437083  0.55887927  1
  Li  Li62  1  0.15251795  0.11064247  0.58974361  1
  Li  Li63  1  0.81879965  0.71223841  0.51160950  1
  Li  Li64  1  0.81513857  0.47933120  0.55714571  1
  Li  Li65  1  0.16233215  0.37087035  0.54941483  1
  Li  Li66  1  0.65333654  0.21113469  0.51100062  1
  Li  Li67  1  0.32206574  0.60021410  0.58877127  1
  Li  Li68  1  0.99741946  0.92330165  0.56187540  1
  Li  Li69  1  0.98587510  0.33765651  0.50066320  1
  Li  Li70  1  0.48107232  0.42150554  0.56171990  1
  Li  Li71  1  0.32788759  0.24109661  0.64278209  1
  Li  Li72  1  0.65617590  0.36604456  0.65961787  1
  Li  Li73  1  0.16830244  0.47574310  0.68762878  1
  Li  Li74  1  0.82680802  0.14432829  0.61728290  1
  Li  Li75  1  0.82465476  0.86114321  0.65656188  1
  Li  Li76  1  0.15253461  0.73623206  0.64054638  1
  Li  Li77  1  0.66466872  0.63792285  0.61512748  1
  Li  Li78  1  0.32585899  0.95720362  0.68576989  1
  Li  Li79  1  0.50149921  0.08789687  0.60064801  1
  Li  Li80  1  0.99904172  0.29761389  0.66267939  1
  Li  Li81  1  0.97760844  0.55823510  0.60050050  1
  Li  Li82  1  0.50032225  0.80803781  0.64278930  1
  Li  Li83  1  0.32647880  0.61388987  0.74516105  1
  Li  Li84  1  0.65591437  0.73714822  0.75965264  1
  Li  Li85  1  0.16733565  0.83442223  0.78520763  1
  Li  Li86  1  0.82640854  0.51758552  0.71599821  1
  Li  Li87  1  0.82922398  0.23254292  0.75767357  1
  Li  Li88  1  0.15646409  0.10835900  0.74141878  1
  Li  Li89  1  0.66673633  0.99617535  0.71326576  1
  Li  Li90  1  0.32866018  0.32672226  0.78393101  1
  Li  Li91  1  0.48641483  0.53491275  0.70162466  1
  Li  Li92  1  0.00150499  0.66730887  0.75781155  1
  Li  Li93  1  0.98581473  0.93692585  0.69946390  1
  Li  Li94  1  0.50137192  0.17846145  0.73870404  1
  Li  Li95  1  0.32368114  0.98426334  0.84447844  1
  Li  Li96  1  0.65446522  0.10764666  0.86067468  1
  Li  Li97  1  0.15616678  0.19930638  0.88459221  1
  Li  Li98  1  0.81875933  0.87435418  0.81303771  1
  Li  Li99  1  0.83072824  0.60635262  0.85894242  1
  Li  Li100  1  0.16362522  0.48145615  0.84265658  1
  Li  Li101  1  0.66480763  0.36504694  0.81217323  1
  Li  Li102  1  0.32724562  0.69807189  0.88404939  1
  Li  Li103  1  0.48669136  0.91540883  0.80115434  1
  Li  Li104  1  0.98701810  0.04860240  0.83754544  1
  Li  Li105  1  0.00177171  0.39120619  0.80084246  1
  Li  Li106  1  0.49919225  0.54879486  0.83737003  1
  Li  Li107  1  0.31761596  0.35518808  0.94362150  1
  Li  Li108  1  0.66427647  0.46269650  0.95065324  1
  Li  Li109  1  0.15610798  0.60983899  0.98816239  1
  Li  Li110  1  0.82800048  0.23180131  0.91041335  1
  Li  Li111  1  0.81620241  0.96390253  0.95014244  1
  Li  Li112  1  0.16418426  0.85405461  0.94330833  1
  Li  Li113  1  0.65406840  0.72689564  0.91054935  1
  Li  Li114  1  0.32172358  0.10899158  0.98821403  1
  Li  Li115  1  0.47893511  0.28237509  0.89972566  1
  Li  Li116  1  0.98498348  0.41492815  0.93748111  1
  Li  Li117  1  0.00392517  0.77613482  0.89936213  1
  Li  Li118  1  0.49862690  0.91543241  0.93735832  1
  Li  Li119  1  0.98930529  0.98988911  0.00115909  1
  P  P120  1  0.07993329  0.67966894  0.04505075  1
  P  P121  1  0.89922374  0.11450351  0.06177594  1
  P  P122  1  0.39408491  0.18035251  0.04490445  1
  P  P123  1  0.57320504  0.61552961  0.06153362  1
  P  P124  1  0.06961446  0.30485572  0.14154107  1
  P  P125  1  0.89158229  0.74108501  0.16066908  1
  P  P126  1  0.39389113  0.80836992  0.14260410  1
  P  P127  1  0.57011560  0.24154252  0.16117434  1
  P  P128  1  0.07058333  0.93746762  0.24084124  1
  P  P129  1  0.89336289  0.36931666  0.25916164  1
  P  P130  1  0.39224675  0.43387628  0.24054939  1
  P  P131  1  0.57182865  0.87069295  0.25946442  1
  P  P132  1  0.07203474  0.56805237  0.33947944  1
  P  P133  1  0.89538821  0.99996239  0.35802997  1
  P  P134  1  0.39228043  0.06886984  0.33949906  1
  P  P135  1  0.56930254  0.50088338  0.35804466  1
  P  P136  1  0.07106218  0.20037249  0.43966747  1
  P  P137  1  0.89020640  0.63694062  0.45496620  1
  P  P138  1  0.39740765  0.70072999  0.43988013  1
  P  P139  1  0.57752762  0.13614300  0.45489243  1
  P  P140  1  0.39415702  0.14650435  0.54496848  1
  P  P141  1  0.57504968  0.71122394  0.56176246  1
  P  P142  1  0.08031455  0.64525061  0.54471133  1
  P  P143  1  0.90048243  0.21002907  0.56148067  1
  P  P144  1  0.40501964  0.52137468  0.64142574  1
  P  P145  1  0.58321551  0.08447490  0.66041559  1
  P  P146  1  0.08003500  0.01815540  0.64235909  1
  P  P147  1  0.90378284  0.58683729  0.66092515  1
  P  P148  1  0.40613500  0.88698162  0.74082106  1
  P  P149  1  0.58279079  0.45536810  0.75913372  1
  P  P150  1  0.08448380  0.38877862  0.74085621  1
  P  P151  1  0.90490324  0.95211865  0.75986966  1
  P  P152  1  0.40293388  0.25753719  0.83952632  1
  P  P153  1  0.57973048  0.82432535  0.85822578  1
  P  P154  1  0.08180716  0.75760877  0.83904527  1
  P  P155  1  0.90507234  0.32342611  0.85789467  1
  P  P156  1  0.40351118  0.62462307  0.93960452  1
  P  P157  1  0.58384931  0.18757099  0.95503315  1
  P  P158  1  0.07747822  0.12325066  0.93974529  1
  P  P159  1  0.89756787  0.68786242  0.95469177  1
  S  S160  1  0.13595105  0.50007695  0.03404153  1
  S  S161  1  0.83417828  0.29090431  0.07189974  1
  S  S162  1  0.33162047  0.26137087  0.07894974  1
  S  S163  1  0.64497842  0.54018884  0.02829733  1
  S  S164  1  0.63558978  0.79058536  0.07356544  1
  S  S165  1  0.33598743  0.00140145  0.03432355  1
  S  S166  1  0.82895409  0.03060587  0.02929918  1
  S  S167  1  0.14079854  0.75776558  0.07947048  1
  S  S168  1  0.04896998  0.15148928  0.05096592  1
  S  S169  1  0.92547949  0.64600581  0.05363296  1
  S  S170  1  0.42315006  0.65297233  0.05084468  1
  S  S171  1  0.54762137  0.14623755  0.05374427  1
  S  S172  1  0.11160771  0.80555211  0.01469833  1
  S  S173  1  0.36478332  0.30563593  0.01419581  1
  S  S174  1  0.13675253  0.12794987  0.13298602  1
  S  S175  1  0.82856876  0.92058475  0.16904110  1
  S  S176  1  0.32933305  0.90907373  0.17381462  1
  S  S177  1  0.63072030  0.15288674  0.12796415  1
  S  S178  1  0.63857359  0.41581371  0.17115679  1
  S  S179  1  0.33122927  0.62796287  0.13526047  1
  S  S180  1  0.82891316  0.64695134  0.12836404  1
  S  S181  1  0.12892971  0.39872283  0.17420601  1
  S  S182  1  0.04130318  0.78381671  0.14895666  1
  S  S183  1  0.91987704  0.25878272  0.15257397  1
  S  S184  1  0.42129466  0.28944008  0.15048344  1
  S  S185  1  0.54342340  0.76770437  0.15488702  1
  S  S186  1  0.08477983  0.42666205  0.10937107  1
  S  S187  1  0.88089463  0.98969070  0.09397425  1
  S  S188  1  0.38168025  0.92332866  0.10937066  1
  S  S189  1  0.59100914  0.48696163  0.09275849  1
  S  S190  1  0.13739908  0.76320299  0.22989518  1
  S  S191  1  0.82921039  0.54875053  0.26649079  1
  S  S192  1  0.33180897  0.52597232  0.27321619  1
  S  S193  1  0.63303150  0.77674704  0.22694484  1
  S  S194  1  0.63605574  0.04904960  0.26790846  1
  S  S195  1  0.32579128  0.25689860  0.23135408  1
  S  S196  1  0.83026633  0.26936791  0.22747255  1
  S  S197  1  0.13045105  0.02132575  0.27457280  1
  S  S198  1  0.04320004  0.40927919  0.24725193  1
  S  S199  1  0.92098256  0.88920590  0.25138696  1
  S  S200  1  0.42170171  0.91399365  0.24777912  1
  S  S201  1  0.54211727  0.38876815  0.25167400  1
  S  S202  1  0.08657344  0.06357550  0.20937529  1
  S  S203  1  0.87705354  0.62232052  0.19319266  1
  S  S204  1  0.37744930  0.55535395  0.20828928  1
  S  S205  1  0.58562999  0.11595640  0.19307269  1
  S  S206  1  0.13817309  0.39381250  0.32827027  1
  S  S207  1  0.83277667  0.18038445  0.36515472  1
  S  S208  1  0.32954323  0.15116699  0.37308542  1
  S  S209  1  0.63446169  0.40126479  0.32660320  1
  S  S210  1  0.63199619  0.68117734  0.36521923  1
  S  S211  1  0.32672824  0.89421008  0.32830827  1
  S  S212  1  0.82933241  0.89967336  0.32678107  1
  S  S213  1  0.13406793  0.65106147  0.37309194  1
  S  S214  1  0.04508417  0.03875442  0.34604462  1
  S  S215  1  0.92231797  0.52096799  0.34986792  1
  S  S216  1  0.41910938  0.53969340  0.34628542  1
  S  S217  1  0.54186041  0.02219782  0.35007398  1
  S  S218  1  0.08850539  0.69421498  0.30798992  1
  S  S219  1  0.87810820  0.25368736  0.29218690  1
  S  S220  1  0.37604169  0.19507025  0.30799771  1
  S  S221  1  0.58582595  0.75097937  0.29185544  1
  S  S222  1  0.13583507  0.02470434  0.42881911  1
  S  S223  1  0.83318842  0.81646293  0.46563492  1
  S  S224  1  0.33019318  0.78255696  0.47316366  1
  S  S225  1  0.63930639  0.05410847  0.42091861  1
  S  S226  1  0.63448164  0.31604537  0.46540346  1
  S  S227  1  0.33124997  0.52553883  0.42925057  1
  S  S228  1  0.82775326  0.55490988  0.42103214  1
  S  S229  1  0.13988412  0.28068494  0.47290004  1
  S  S230  1  0.04379322  0.67029683  0.44600545  1
  S  S231  1  0.92051751  0.16234008  0.44956746  1
  S  S232  1  0.42366092  0.16920701  0.44620104  1
  S  S233  1  0.54786139  0.66114323  0.44973812  1
  S  S234  1  0.09113297  0.32569686  0.40797987  1
  S  S235  1  0.88156404  0.88483562  0.39118615  1
  S  S236  1  0.37823323  0.82508607  0.40801343  1
  S  S237  1  0.58386960  0.38518187  0.39110365  1
  S  S238  1  0.85997807  0.51300238  0.48585559  1
  S  S239  1  0.60899146  0.01273569  0.48576578  1
  S  S240  1  0.33754512  0.32571667  0.53392109  1
  S  S241  1  0.64035938  0.53543069  0.57209533  1
  S  S242  1  0.14247010  0.56409699  0.57880573  1
  S  S243  1  0.82871822  0.28616931  0.52834098  1
  S  S244  1  0.83774346  0.03518858  0.57342531  1
  S  S245  1  0.13889945  0.82380498  0.53404286  1
  S  S246  1  0.64586629  0.79434188  0.52930857  1
  S  S247  1  0.33333123  0.06845985  0.57939968  1
  S  S248  1  0.42554173  0.67338837  0.55076283  1
  S  S249  1  0.54854482  0.18157750  0.55356569  1
  S  S250  1  0.05048509  0.17241914  0.55066072  1
  S  S251  1  0.92690125  0.68000418  0.55354292  1
  S  S252  1  0.36330857  0.01987073  0.51469333  1
  S  S253  1  0.10988638  0.51963757  0.51408488  1
  S  S254  1  0.33785449  0.69814412  0.63271152  1
  S  S255  1  0.64634259  0.90483339  0.66852729  1
  S  S256  1  0.14550369  0.91718044  0.67349571  1
  S  S257  1  0.84384417  0.67187362  0.62719888  1
  S  S258  1  0.83604203  0.41327193  0.67176641  1
  S  S259  1  0.14293607  0.19858466  0.63516731  1
  S  S260  1  0.64494542  0.17948866  0.62811692  1
  S  S261  1  0.34506506  0.42830688  0.67417675  1
  S  S262  1  0.43303555  0.04255897  0.64909283  1
  S  S263  1  0.55482441  0.56686780  0.65240608  1
  S  S264  1  0.05290747  0.53766202  0.65038266  1
  S  S265  1  0.93076644  0.05850827  0.65465586  1
  S  S266  1  0.39012745  0.39889444  0.60935604  1
  S  S267  1  0.59239602  0.83739972  0.59378583  1
  S  S268  1  0.09241544  0.90322009  0.60910947  1
  S  S269  1  0.88347512  0.33875838  0.59271142  1
  S  S270  1  0.33839706  0.06102421  0.73015801  1
  S  S271  1  0.64576200  0.27541877  0.76670376  1
  S  S272  1  0.14621638  0.29409677  0.77313860  1
  S  S273  1  0.84389076  0.04297621  0.72705232  1
  S  S274  1  0.83916372  0.77533137  0.76924114  1
  S  S275  1  0.14834963  0.56786244  0.73248379  1
  S  S276  1  0.64644530  0.55468362  0.72752090  1
  S  S277  1  0.34758723  0.80199052  0.77466083  1
  S  S278  1  0.43301733  0.41559741  0.74714803  1
  S  S279  1  0.55576143  0.93585819  0.75131265  1
  S  S280  1  0.05483495  0.90730331  0.74868528  1
  S  S281  1  0.93445718  0.43165890  0.75256765  1
  S  S282  1  0.39033984  0.76125471  0.70934340  1
  S  S283  1  0.59974429  0.20228416  0.69307321  1
  S  S284  1  0.09875237  0.27087126  0.70816004  1
  S  S285  1  0.88862155  0.71336367  0.69234829  1
  S  S286  1  0.33771869  0.43223844  0.82820359  1
  S  S287  1  0.64318630  0.64380221  0.86472722  1
  S  S288  1  0.14359492  0.66971697  0.87211833  1
  S  S289  1  0.84066044  0.42256784  0.82637505  1
  S  S290  1  0.84264402  0.14302569  0.86511806  1
  S  S291  1  0.14920605  0.93247671  0.82893828  1
  S  S292  1  0.64482775  0.92740517  0.82726113  1
  S  S293  1  0.34051304  0.17556969  0.87323953  1
  S  S294  1  0.42976599  0.78608321  0.84643303  1
  S  S295  1  0.55253233  0.30399481  0.85002902  1
  S  S296  1  0.05557032  0.28431050  0.84620763  1
  S  S297  1  0.93277731  0.80421389  0.84974587  1
  S  S298  1  0.38617592  0.13076703  0.80821927  1
  S  S299  1  0.59826532  0.57092137  0.79221415  1
  S  S300  1  0.09807623  0.63276460  0.80698801  1
  S  S301  1  0.89009760  0.07509783  0.79184603  1
  S  S302  1  0.33872360  0.80002955  0.92860518  1
  S  S303  1  0.64075950  0.00765747  0.96544881  1
  S  S304  1  0.14472609  0.04233773  0.97313167  1
  S  S305  1  0.83558773  0.76902768  0.92064422  1
  S  S306  1  0.84083963  0.50803051  0.96529236  1
  S  S307  1  0.14367336  0.29855604  0.92915875  1
  S  S308  1  0.64656942  0.26963402  0.92109969  1
  S  S309  1  0.33476774  0.54550323  0.97299160  1
  S  S310  1  0.43017267  0.15551438  0.94618018  1
  S  S311  1  0.55419422  0.66147824  0.94952588  1
  S  S312  1  0.05157808  0.65486498  0.94600726  1
  S  S313  1  0.92693456  0.16236713  0.94950109  1
  S  S314  1  0.38308205  0.49894130  0.90802326  1
  S  S315  1  0.59448407  0.93737646  0.89167400  1
  S  S316  1  0.09772995  0.99885012  0.90794226  1
  S  S317  1  0.89055308  0.43915952  0.89093116  1
  S  S318  1  0.61477952  0.31087881  0.98599395  1
  S  S319  1  0.86604643  0.81195938  0.98545199  1
