# generated using pymatgen
data_Li3PS4
_symmetry_space_group_name_H-M   'P 1'
_cell_length_a   13.05789500
_cell_length_b   10.24241400
_cell_length_c   49.91552183
_cell_angle_alpha   90.00000000
_cell_angle_beta   90.00000000
_cell_angle_gamma   90.00000000
_symmetry_Int_Tables_number   1
_chemical_formula_structural   Li3PS4
_chemical_formula_sum   'Li120 P40 S160'
_cell_volume   6675.91984831
_cell_formula_units_Z   40
loop_
 _symmetry_equiv_pos_site_id
 _symmetry_equiv_pos_as_xyz
  1  'x, y, z'
loop_
 _atom_site_type_symbol
 _atom_site_label
 _atom_site_symmetry_multiplicity
 _atom_site_fract_x
 _atom_site_fract_y
 _atom_site_fract_z
 _atom_site_occupancy
  Li  Li0  1  0.19333524  0.80710303  0.04479036  1
  Li  Li1  1  0.86046920  0.68296658  0.05916128  1
  Li  Li2  1  0.69826053  0.95823929  0.01476691  1
  Li  Li3  1  0.69630699  0.19992945  0.05372087  1
  Li  Li4  1  0.36010991  0.31029102  0.04656390  1
  Li  Li5  1  0.86371090  0.41786580  0.00592224  1
  Li  Li6  1  0.52166952  0.76269072  0.06587048  1
  Li  Li7  1  0.52073324  0.46717662  0.00653122  1
  Li  Li8  1  0.03627384  0.25100240  0.05653042  1
  Li  Li9  1  0.19319324  0.43337808  0.14402282  1
  Li  Li10  1  0.86086172  0.30957839  0.16069781  1
  Li  Li11  1  0.35171506  0.57435285  0.09010743  1
  Li  Li12  1  0.69072646  0.53440171  0.11816759  1
  Li  Li13  1  0.69376903  0.82146443  0.15620757  1
  Li  Li14  1  0.36226910  0.94747143  0.14093047  1
  Li  Li15  1  0.85214298  0.05012315  0.11222823  1
  Li  Li16  1  0.19686801  0.07955297  0.08572220  1
  Li  Li17  1  0.02866407  0.51501704  0.10108599  1
  Li  Li18  1  0.51843659  0.38472731  0.16344054  1
  Li  Li19  1  0.54167274  0.12644707  0.10102300  1
  Li  Li20  1  0.01605674  0.86675581  0.13868300  1
  Li  Li21  1  0.19336768  0.06450847  0.24561415  1
  Li  Li22  1  0.85856913  0.94175804  0.25990883  1
  Li  Li23  1  0.35135570  0.20118260  0.18862202  1
  Li  Li24  1  0.68924623  0.16129097  0.21716347  1
  Li  Li25  1  0.69334159  0.45123111  0.25445620  1
  Li  Li26  1  0.35874964  0.57356713  0.24024508  1
  Li  Li27  1  0.85200699  0.68375635  0.21226623  1
  Li  Li28  1  0.18782968  0.72044672  0.18477924  1
  Li  Li29  1  0.03147033  0.13410096  0.20107835  1
  Li  Li30  1  0.51595839  0.01468171  0.26166982  1
  Li  Li31  1  0.52905829  0.75044598  0.19975197  1
  Li  Li32  1  0.01599906  0.50002823  0.23873588  1
  Li  Li33  1  0.19047419  0.69628080  0.34333581  1
  Li  Li34  1  0.86305447  0.56937981  0.35919599  1
  Li  Li35  1  0.35149060  0.83304032  0.28748882  1
  Li  Li36  1  0.68928523  0.79191775  0.31535904  1
  Li  Li37  1  0.68711567  0.08157549  0.35745964  1
  Li  Li38  1  0.36140742  0.20525617  0.34027764  1
  Li  Li39  1  0.85101388  0.31271989  0.31152270  1
  Li  Li40  1  0.18869355  0.35161119  0.28354833  1
  Li  Li41  1  0.02874594  0.76658454  0.30015765  1
  Li  Li42  1  0.51581502  0.64659963  0.35901192  1
  Li  Li43  1  0.53135556  0.37646943  0.29894665  1
  Li  Li44  1  0.01790960  0.13206735  0.33673564  1
  Li  Li45  1  0.19854326  0.32039558  0.44586514  1
  Li  Li46  1  0.85725627  0.20956821  0.45278141  1
  Li  Li47  1  0.35370285  0.47520526  0.38700125  1
  Li  Li48  1  0.69580677  0.44307867  0.41342490  1
  Li  Li49  1  0.69482847  0.71472666  0.45626531  1
  Li  Li50  1  0.35226914  0.83789012  0.44214560  1
  Li  Li51  1  0.85108291  0.94667596  0.40981085  1
  Li  Li52  1  0.18972124  0.98313679  0.38186742  1
  Li  Li53  1  0.04140718  0.39138852  0.39915218  1
  Li  Li54  1  0.53425867  0.26508367  0.44022524  1
  Li  Li55  1  0.51398562  0.93309252  0.40092011  1
  Li  Li56  1  0.01891941  0.75748036  0.43447187  1
  Li  Li57  1  0.36611790  0.09695403  0.49456138  1
  Li  Li58  1  0.19748690  0.56537545  0.48513811  1
  Li  Li59  1  0.01843408  0.06897876  0.49361676  1
  Li  Li60  1  0.18482725  0.21898612  0.54489183  1
  Li  Li61  1  0.51608743  0.34520414  0.55921195  1
  Li  Li62  1  0.67549688  0.06848243  0.51472166  1
  Li  Li63  1  0.67950071  0.82530199  0.55292616  1
  Li  Li64  1  0.01522372  0.71517619  0.54623401  1
  Li  Li65  1  0.50951831  0.60751217  0.50599594  1
  Li  Li66  1  0.85445827  0.26213123  0.56543501  1
  Li  Li67  1  0.85497418  0.55743765  0.50634810  1
  Li  Li68  1  0.34116354  0.77507036  0.55632517  1
  Li  Li69  1  0.18141546  0.59229842  0.64462661  1
  Li  Li70  1  0.51458342  0.71475509  0.66034759  1
  Li  Li71  1  0.02410277  0.45325689  0.58992001  1
  Li  Li72  1  0.68467060  0.49160849  0.61800562  1
  Li  Li73  1  0.68111547  0.20652503  0.65598333  1
  Li  Li74  1  0.01326100  0.08177035  0.64103786  1
  Li  Li75  1  0.52198842  0.97584005  0.61187623  1
  Li  Li76  1  0.17897405  0.94280641  0.58515522  1
  Li  Li77  1  0.34569731  0.50974036  0.60107094  1
  Li  Li78  1  0.85646724  0.64177337  0.66283414  1
  Li  Li79  1  0.83422572  0.89969219  0.60106773  1
  Li  Li80  1  0.35824367  0.15827806  0.63811716  1
  Li  Li81  1  0.18119879  0.96029129  0.74552559  1
  Li  Li82  1  0.51526346  0.08124320  0.75970446  1
  Li  Li83  1  0.02307660  0.82519182  0.68852617  1
  Li  Li84  1  0.68660439  0.86470686  0.71651055  1
  Li  Li85  1  0.68122648  0.57405895  0.75466451  1
  Li  Li86  1  0.01474462  0.45257014  0.74010912  1
  Li  Li87  1  0.52157115  0.34028164  0.71201420  1
  Li  Li88  1  0.18723164  0.30448538  0.68504721  1
  Li  Li89  1  0.34380659  0.89079719  0.70118295  1
  Li  Li90  1  0.85656324  0.00883222  0.76198724  1
  Li  Li91  1  0.84547084  0.27528040  0.69982627  1
  Li  Li92  1  0.35798447  0.52461240  0.73837213  1
  Li  Li93  1  0.18322840  0.32658574  0.84364250  1
  Li  Li94  1  0.51242759  0.45180431  0.85915794  1
  Li  Li95  1  0.02132313  0.19307107  0.78736114  1
  Li  Li96  1  0.68687689  0.23361942  0.81559383  1
  Li  Li97  1  0.68771934  0.94176007  0.85719327  1
  Li  Li98  1  0.01315194  0.81840538  0.84090664  1
  Li  Li99  1  0.52386462  0.70996141  0.81149661  1
  Li  Li100  1  0.18550900  0.67329445  0.78335974  1
  Li  Li101  1  0.34555426  0.25818903  0.80061261  1
  Li  Li102  1  0.85965135  0.37680554  0.85988354  1
  Li  Li103  1  0.84384914  0.64823801  0.79916535  1
  Li  Li104  1  0.35660433  0.89156725  0.83717733  1
  Li  Li105  1  0.17735097  0.70479279  0.94627193  1
  Li  Li106  1  0.51830345  0.81484795  0.95278979  1
  Li  Li107  1  0.02329860  0.54980775  0.88731170  1
  Li  Li108  1  0.67889311  0.58213050  0.91378951  1
  Li  Li109  1  0.68116666  0.30987911  0.95595892  1
  Li  Li110  1  0.02293143  0.18833217  0.94228604  1
  Li  Li111  1  0.52327880  0.07793570  0.90999098  1
  Li  Li112  1  0.18487412  0.04122629  0.88199801  1
  Li  Li113  1  0.33441417  0.63353197  0.89886250  1
  Li  Li114  1  0.84111155  0.75894207  0.94045920  1
  Li  Li115  1  0.86031546  0.09087130  0.90104442  1
  Li  Li116  1  0.35549722  0.26788106  0.93481598  1
  Li  Li117  1  0.00849534  0.92576622  0.99488220  1
  Li  Li118  1  0.17744128  0.45920040  0.98510292  1
  Li  Li119  1  0.35658421  0.95677608  0.99369195  1
  P  P120  1  0.11452569  0.53139682  0.04092906  1
  P  P121  1  0.93798803  0.96469324  0.05877177  1
  P  P122  1  0.44056072  0.03969633  0.04625115  1
  P  P123  1  0.62015497  0.47233477  0.06260292  1
  P  P124  1  0.11105594  0.15731489  0.14018628  1
  P  P125  1  0.93597994  0.59002073  0.15943850  1
  P  P126  1  0.43495376  0.66354477  0.14279317  1
  P  P127  1  0.61484531  0.09534295  0.16157581  1
  P  P128  1  0.11243883  0.79068235  0.24035831  1
  P  P129  1  0.93510908  0.22143722  0.25859004  1
  P  P130  1  0.43502209  0.29328926  0.24154283  1
  P  P131  1  0.61242499  0.72433780  0.25971042  1
  P  P132  1  0.11444846  0.42109345  0.33868841  1
  P  P133  1  0.93343776  0.85449088  0.35730857  1
  P  P134  1  0.43404880  0.92317280  0.34051484  1
  P  P135  1  0.61223487  0.36129852  0.35984305  1
  P  P136  1  0.11888336  0.04817920  0.43754948  1
  P  P137  1  0.94054348  0.47886984  0.45383168  1
  P  P138  1  0.44037529  0.56107301  0.44114248  1
  P  P139  1  0.61279492  0.98877779  0.45906408  1
  P  P140  1  0.26120162  0.49578189  0.54083278  1
  P  P141  1  0.43737645  0.06261223  0.55842063  1
  P  P142  1  0.93563768  0.98563302  0.54605541  1
  P  P143  1  0.75535380  0.55251892  0.56243408  1
  P  P144  1  0.26371771  0.86812057  0.64005141  1
  P  P145  1  0.43842016  0.43407113  0.65919077  1
  P  P146  1  0.94032417  0.36385109  0.64260380  1
  P  P147  1  0.76013385  0.93187796  0.66115390  1
  P  P148  1  0.26196136  0.23358389  0.74070752  1
  P  P149  1  0.43967395  0.80186056  0.75853257  1
  P  P150  1  0.93951890  0.73265169  0.74145541  1
  P  P151  1  0.76161026  0.30076020  0.75950980  1
  P  P152  1  0.26024110  0.60170539  0.83870586  1
  P  P153  1  0.44127843  0.16904846  0.85752877  1
  P  P154  1  0.94037444  0.10091812  0.84063168  1
  P  P155  1  0.76294561  0.66210895  0.86008323  1
  P  P156  1  0.25620158  0.97689131  0.93761102  1
  P  P157  1  0.43501873  0.54491807  0.95391954  1
  P  P158  1  0.93513869  0.46473232  0.94129824  1
  P  P159  1  0.76249371  0.03528065  0.95907541  1
  S  S160  1  0.18316891  0.35685658  0.03066493  1
  S  S161  1  0.68219107  0.40300737  0.02741287  1
  S  S162  1  0.37705621  0.85956984  0.03873897  1
  S  S163  1  0.87095206  0.86782865  0.02715663  1
  S  S164  1  0.08697417  0.00903863  0.04667093  1
  S  S165  1  0.96314590  0.48159975  0.05014897  1
  S  S166  1  0.46722191  0.50936116  0.05358678  1
  S  S167  1  0.59206422  0.99757301  0.05645674  1
  S  S168  1  0.12878266  0.65941702  0.00995287  1
  S  S169  1  0.42921471  0.15654501  0.01374482  1
  S  S170  1  0.17878642  0.98295437  0.13011269  1
  S  S171  1  0.87264336  0.14271460  0.06751188  1
  S  S172  1  0.37611024  0.13265985  0.07891201  1
  S  S173  1  0.67592286  0.01286352  0.12758210  1
  S  S174  1  0.68239917  0.64680885  0.07463761  1
  S  S175  1  0.37396823  0.48224891  0.13526673  1
  S  S176  1  0.87113708  0.49031401  0.12796288  1
  S  S177  1  0.17326476  0.61523318  0.07517876  1
  S  S178  1  0.08560173  0.62967038  0.14734150  1
  S  S179  1  0.96159052  0.11126890  0.15081274  1
  S  S180  1  0.46553605  0.14327359  0.15090994  1
  S  S181  1  0.58461223  0.62501084  0.15485220  1
  S  S182  1  0.12709265  0.28294951  0.10806374  1
  S  S183  1  0.92434679  0.84688204  0.09181914  1
  S  S184  1  0.41902337  0.77838384  0.10947655  1
  S  S185  1  0.64336317  0.33888660  0.09253675  1
  S  S186  1  0.17764944  0.61605826  0.22922434  1
  S  S187  1  0.87372483  0.77093529  0.16676839  1
  S  S188  1  0.36878149  0.76367264  0.17405933  1
  S  S189  1  0.67330885  0.64287094  0.22562129  1
  S  S190  1  0.68108733  0.26881584  0.17300304  1
  S  S191  1  0.37245376  0.11279631  0.23395683  1
  S  S192  1  0.87052555  0.12158975  0.22706224  1
  S  S193  1  0.17247425  0.24454948  0.17356428  1
  S  S194  1  0.08474593  0.26094313  0.24656110  1
  S  S195  1  0.96200129  0.74487940  0.25063307  1
  S  S196  1  0.46215721  0.77065265  0.24931494  1
  S  S197  1  0.58467136  0.25418584  0.25366901  1
  S  S198  1  0.13050031  0.91767102  0.20900298  1
  S  S199  1  0.91985087  0.47631601  0.19291232  1
  S  S200  1  0.41888570  0.40771276  0.20814600  1
  S  S201  1  0.63042920  0.96666765  0.19272051  1
  S  S202  1  0.18145429  0.24700722  0.32780719  1
  S  S203  1  0.87206072  0.40170335  0.26609416  1
  S  S204  1  0.37008237  0.39246295  0.27307007  1
  S  S205  1  0.67265122  0.27002679  0.32675937  1
  S  S206  1  0.67755558  0.89873976  0.27108083  1
  S  S207  1  0.37061108  0.74343937  0.33269541  1
  S  S208  1  0.86935461  0.75238652  0.32601113  1
  S  S209  1  0.17285266  0.87286338  0.27443172  1
  S  S210  1  0.08333499  0.89303132  0.34536321  1
  S  S211  1  0.96524943  0.37283999  0.34928591  1
  S  S212  1  0.46209961  0.40592067  0.34897770  1
  S  S213  1  0.58384334  0.88159234  0.35234580  1
  S  S214  1  0.12917865  0.54793790  0.30720459  1
  S  S215  1  0.91898453  0.10722372  0.29198674  1
  S  S216  1  0.41884796  0.03944748  0.30740704  1
  S  S217  1  0.62954954  0.59676649  0.29097830  1
  S  S218  1  0.17923041  0.87246337  0.42552832  1
  S  S219  1  0.87148943  0.03557433  0.36437861  1
  S  S220  1  0.37149163  0.02069384  0.37250829  1
  S  S221  1  0.67443226  0.90112711  0.42545634  1
  S  S222  1  0.67898209  0.53784069  0.36883320  1
  S  S223  1  0.37357976  0.38460375  0.43171269  1
  S  S224  1  0.87519050  0.38914558  0.42093939  1
  S  S225  1  0.17509295  0.50584709  0.37247519  1
  S  S226  1  0.09193383  0.52083804  0.44361789  1
  S  S227  1  0.96585541  0.01262431  0.44647915  1
  S  S228  1  0.46097967  0.03442445  0.44963787  1
  S  S229  1  0.58871878  0.51527978  0.45265888  1
  S  S230  1  0.14344634  0.18034627  0.40742915  1
  S  S231  1  0.91682447  0.74079269  0.39076581  1
  S  S232  1  0.42510830  0.68086472  0.40802121  1
  S  S233  1  0.62728834  0.23878940  0.39210447  1
  S  S234  1  0.87827047  0.65897691  0.46219699  1
  S  S235  1  0.37203192  0.65458867  0.47297576  1
  S  S236  1  0.67985057  0.16495697  0.46843657  1
  S  S237  1  0.18274113  0.11766753  0.47252767  1
  S  S238  1  0.92852965  0.35968772  0.48606986  1
  S  S239  1  0.62774409  0.86426818  0.49069217  1
  S  S240  1  0.19245173  0.66984838  0.53044358  1
  S  S241  1  0.69268576  0.61952699  0.52713489  1
  S  S242  1  0.00007059  0.16556554  0.53880378  1
  S  S243  1  0.50358934  0.16012206  0.52683349  1
  S  S244  1  0.28867137  0.01665593  0.54635523  1
  S  S245  1  0.41251693  0.54616745  0.55014167  1
  S  S246  1  0.90835431  0.51597224  0.55337111  1
  S  S247  1  0.78402081  0.02785931  0.55614304  1
  S  S248  1  0.24799535  0.36694549  0.50999068  1
  S  S249  1  0.94700201  0.86902197  0.51349991  1
  S  S250  1  0.19622532  0.04203746  0.62957163  1
  S  S251  1  0.50362021  0.88489899  0.56704830  1
  S  S252  1  0.99926880  0.89195957  0.57872293  1
  S  S253  1  0.69883159  0.01449672  0.62724026  1
  S  S254  1  0.69389522  0.37793729  0.57471581  1
  S  S255  1  0.00113117  0.54532451  0.63504028  1
  S  S256  1  0.50347906  0.53356682  0.62770500  1
  S  S257  1  0.20241534  0.41190378  0.57506951  1
  S  S258  1  0.28854134  0.39518653  0.64726294  1
  S  S259  1  0.41338057  0.91382864  0.65057145  1
  S  S260  1  0.90985518  0.88475508  0.65066158  1
  S  S261  1  0.79062086  0.40213999  0.65471903  1
  S  S262  1  0.24725920  0.74134150  0.60814085  1
  S  S263  1  0.45051921  0.18002861  0.59152181  1
  S  S264  1  0.95701108  0.24923348  0.60928815  1
  S  S265  1  0.73156123  0.68703267  0.59213797  1
  S  S266  1  0.19623272  0.40813641  0.72957974  1
  S  S267  1  0.50058218  0.25311789  0.66645153  1
  S  S268  1  0.00614752  0.26421171  0.67400876  1
  S  S269  1  0.70047704  0.38272963  0.72550607  1
  S  S270  1  0.69428288  0.75764285  0.67235076  1
  S  S271  1  0.00176125  0.91339944  0.73403888  1
  S  S272  1  0.50478692  0.90092886  0.72693407  1
  S  S273  1  0.20235696  0.78241413  0.67363476  1
  S  S274  1  0.28976002  0.76386414  0.74647934  1
  S  S275  1  0.41240982  0.27949148  0.75081078  1
  S  S276  1  0.91174891  0.25401675  0.74909277  1
  S  S277  1  0.78961533  0.77107461  0.75346570  1
  S  S278  1  0.24439369  0.10703706  0.70923124  1
  S  S279  1  0.45461152  0.54779986  0.69266528  1
  S  S280  1  0.95577454  0.61869259  0.70801101  1
  S  S281  1  0.74414810  0.05987496  0.69239641  1
  S  S282  1  0.19323667  0.77607899  0.82801702  1
  S  S283  1  0.50190609  0.62123993  0.76604802  1
  S  S284  1  0.00435585  0.63306863  0.77298158  1
  S  S285  1  0.70226081  0.75251110  0.82690780  1
  S  S286  1  0.69585612  0.12689928  0.77100725  1
  S  S287  1  0.00327775  0.28093905  0.83281146  1
  S  S288  1  0.50567515  0.27041625  0.82616135  1
  S  S289  1  0.20117882  0.15101076  0.77468896  1
  S  S290  1  0.29150878  0.13030737  0.84546016  1
  S  S291  1  0.40990903  0.64930240  0.84915145  1
  S  S292  1  0.91307033  0.61744538  0.84923208  1
  S  S293  1  0.79063129  0.14217107  0.85255231  1
  S  S294  1  0.24392142  0.47512823  0.80725411  1
  S  S295  1  0.45594475  0.91606934  0.79191835  1
  S  S296  1  0.95568149  0.98470810  0.80756774  1
  S  S297  1  0.74551339  0.42847605  0.79082074  1
  S  S298  1  0.19582371  0.15250993  0.92551731  1
  S  S299  1  0.50351026  0.98820435  0.86467985  1
  S  S300  1  0.00314729  0.00401670  0.87269115  1
  S  S301  1  0.70034239  0.12215541  0.92545537  1
  S  S302  1  0.69633732  0.48563456  0.86925575  1
  S  S303  1  0.00236503  0.64075510  0.93183772  1
  S  S304  1  0.49994363  0.63473737  0.92099740  1
  S  S305  1  0.20065523  0.51704498  0.87265059  1
  S  S306  1  0.28346415  0.50360822  0.94376886  1
  S  S307  1  0.40916447  0.01238638  0.94664783  1
  S  S308  1  0.91433967  0.99000110  0.94965383  1
  S  S309  1  0.78681067  0.51052726  0.95287124  1
  S  S310  1  0.23164812  0.84423252  0.90756634  1
  S  S311  1  0.45718528  0.28313614  0.89094591  1
  S  S312  1  0.95033455  0.34454494  0.90822743  1
  S  S313  1  0.74791327  0.78537187  0.89220846  1
  S  S314  1  0.49743756  0.36493292  0.96224588  1
  S  S315  1  0.00288535  0.37109684  0.97318664  1
  S  S316  1  0.69547605  0.85929869  0.96862633  1
  S  S317  1  0.19229621  0.90787440  0.97259959  1
  S  S318  1  0.44770171  0.66446087  0.98608081  1
  S  S319  1  0.74738478  0.16060559  0.99058046  1
