# generated using pymatgen
data_Li3PS4
_symmetry_space_group_name_H-M   'P 1'
_cell_length_a   13.05789500
_cell_length_b   10.24241400
_cell_length_c   50.99093352
_cell_angle_alpha   90.00000000
_cell_angle_beta   90.00000000
_cell_angle_gamma   90.00000000
_symmetry_Int_Tables_number   1
_chemical_formula_structural   Li3PS4
_chemical_formula_sum   'Li120 P40 S160'
_cell_volume   6819.75010348
_cell_formula_units_Z   40
loop_
 _symmetry_equiv_pos_site_id
 _symmetry_equiv_pos_as_xyz
  1  'x, y, z'
loop_
 _atom_site_type_symbol
 _atom_site_label
 _atom_site_symmetry_multiplicity
 _atom_site_fract_x
 _atom_site_fract_y
 _atom_site_fract_z
 _atom_site_occupancy
  Li  Li0  1  0.17100059  0.86515222  0.04522358  1
  Li  Li1  1  0.81664296  0.74019763  0.07053288  1
  Li  Li2  1  0.31361898  0.60449684  0.09397748  1
  Li  Li3  1  0.63955746  0.89173735  0.04403284  1
  Li  Li4  1  0.67700963  0.27500097  0.06485507  1
  Li  Li5  1  0.31845090  0.37381846  0.04418601  1
  Li  Li6  1  0.90256974  0.74107778  0.00757040  1
  Li  Li7  1  0.15943329  0.14058282  0.08889776  1
  Li  Li8  1  0.45169562  0.79076910  0.07058342  1
  Li  Li9  1  0.56032458  0.29157013  0.00798037  1
  Li  Li10  1  0.99335237  0.33169229  0.06528432  1
  Li  Li11  1  0.15131194  0.49621625  0.14605421  1
  Li  Li12  1  0.82540073  0.37507754  0.15962365  1
  Li  Li13  1  0.31879191  0.26142509  0.18897471  1
  Li  Li14  1  0.65198245  0.60042037  0.12017850  1
  Li  Li15  1  0.65733020  0.87923976  0.15743692  1
  Li  Li16  1  0.32573368  0.00122678  0.14452371  1
  Li  Li17  1  0.81878335  0.09216796  0.11976792  1
  Li  Li18  1  0.15499073  0.77685219  0.18709669  1
  Li  Li19  1  0.99288704  0.65057411  0.10179595  1
  Li  Li20  1  0.48374569  0.44205808  0.16398575  1
  Li  Li21  1  0.49721610  0.18736205  0.10079337  1
  Li  Li22  1  0.98784754  0.93482701  0.14690606  1
  Li  Li23  1  0.15638916  0.12531874  0.24479434  1
  Li  Li24  1  0.82719163  0.00268692  0.25901225  1
  Li  Li25  1  0.31531852  0.90356977  0.28475974  1
  Li  Li26  1  0.65605242  0.22450176  0.21572281  1
  Li  Li27  1  0.65386521  0.50820613  0.25763911  1
  Li  Li28  1  0.32733069  0.63118986  0.24125866  1
  Li  Li29  1  0.81699143  0.74068102  0.21377818  1
  Li  Li30  1  0.15627647  0.41190526  0.28252385  1
  Li  Li31  1  0.99710122  0.20606501  0.20212956  1
  Li  Li32  1  0.48143168  0.07354700  0.25873677  1
  Li  Li33  1  0.49811440  0.80542724  0.20070962  1
  Li  Li34  1  0.98151318  0.55915884  0.23850154  1
  Li  Li35  1  0.16061056  0.75139250  0.34317059  1
  Li  Li36  1  0.82902178  0.63198117  0.35755507  1
  Li  Li37  1  0.32660948  0.52255814  0.38611099  1
  Li  Li38  1  0.66325675  0.86456542  0.31220613  1
  Li  Li39  1  0.65191994  0.13522212  0.35745347  1
  Li  Li40  1  0.31878598  0.25678742  0.34120495  1
  Li  Li41  1  0.81860676  0.37433036  0.31072512  1
  Li  Li42  1  0.15087307  0.03496865  0.38417307  1
  Li  Li43  1  0.99941837  0.82354355  0.30030540  1
  Li  Li44  1  0.49457421  0.69117921  0.33704639  1
  Li  Li45  1  0.48307824  0.35291368  0.30025285  1
  Li  Li46  1  0.98502037  0.18789379  0.33495863  1
  Li  Li47  1  0.11380029  0.38516287  0.44990214  1
  Li  Li48  1  0.82725118  0.26921383  0.45082728  1
  Li  Li49  1  0.32819049  0.23046840  0.46922285  1
  Li  Li50  1  0.65790906  0.52028634  0.40795604  1
  Li  Li51  1  0.66894005  0.77563338  0.44973696  1
  Li  Li52  1  0.32203029  0.89311888  0.43868988  1
  Li  Li53  1  0.82908945  0.02437842  0.40696239  1
  Li  Li54  1  0.14765052  0.73563691  0.46805433  1
  Li  Li55  1  0.00275008  0.44957100  0.39577061  1
  Li  Li56  1  0.50616550  0.34030819  0.43293929  1
  Li  Li57  1  0.48167051  0.95786560  0.39614081  1
  Li  Li58  1  0.96749695  0.83175393  0.43303858  1
  Li  Li59  1  0.46241225  0.80124742  0.50203612  1
  Li  Li60  1  0.30787791  0.00857405  0.54523416  1
  Li  Li61  1  0.65994812  0.13571687  0.57098434  1
  Li  Li62  1  0.16214409  0.26912604  0.59404911  1
  Li  Li63  1  0.83610890  0.98392019  0.54465980  1
  Li  Li64  1  0.80096553  0.60170004  0.56560940  1
  Li  Li65  1  0.15818720  0.50082629  0.54447018  1
  Li  Li66  1  0.57435035  0.13444425  0.50809569  1
  Li  Li67  1  0.31551330  0.73251986  0.58865665  1
  Li  Li68  1  0.02467603  0.08432721  0.57068380  1
  Li  Li69  1  0.91438154  0.58334517  0.50793112  1
  Li  Li70  1  0.48321440  0.54255080  0.56530563  1
  Li  Li71  1  0.32361795  0.37746018  0.64653707  1
  Li  Li72  1  0.64836864  0.49737378  0.65944608  1
  Li  Li73  1  0.15612820  0.61002327  0.68907354  1
  Li  Li74  1  0.82298791  0.27482597  0.62041687  1
  Li  Li75  1  0.81865311  0.99239747  0.65736860  1
  Li  Li76  1  0.14806731  0.87019828  0.64418345  1
  Li  Li77  1  0.65547459  0.78246534  0.61987289  1
  Li  Li78  1  0.31964463  0.09286421  0.68683503  1
  Li  Li79  1  0.48168567  0.22459450  0.60187320  1
  Li  Li80  1  0.98979870  0.42996361  0.66368626  1
  Li  Li81  1  0.97937542  0.68917026  0.60133137  1
  Li  Li82  1  0.48680340  0.93868185  0.64651611  1
  Li  Li83  1  0.31680280  0.74862811  0.74482399  1
  Li  Li84  1  0.64670783  0.87128101  0.75899173  1
  Li  Li85  1  0.16014531  0.97185622  0.78459287  1
  Li  Li86  1  0.81744691  0.65001666  0.71548748  1
  Li  Li87  1  0.82154448  0.36770517  0.75701807  1
  Li  Li88  1  0.14733805  0.24541872  0.74139470  1
  Li  Li89  1  0.65923543  0.13245811  0.71354275  1
  Li  Li90  1  0.31899824  0.46008852  0.78230668  1
  Li  Li91  1  0.47736599  0.66979877  0.70218042  1
  Li  Li92  1  0.99175333  0.80308761  0.75873041  1
  Li  Li93  1  0.97705321  0.07001487  0.70076813  1
  Li  Li94  1  0.49280875  0.31501299  0.73863050  1
  Li  Li95  1  0.31482058  0.12341160  0.84310611  1
  Li  Li96  1  0.64648642  0.24390562  0.85744195  1
  Li  Li97  1  0.14853453  0.35233922  0.88640246  1
  Li  Li98  1  0.81114781  0.01301319  0.81223999  1
  Li  Li99  1  0.82236112  0.74153425  0.85734223  1
  Li  Li100  1  0.15634479  0.62146168  0.84115624  1
  Li  Li101  1  0.65807588  0.50169493  0.81057570  1
  Li  Li102  1  0.32287635  0.84133712  0.88433918  1
  Li  Li103  1  0.47582067  0.05116152  0.80020657  1
  Li  Li104  1  0.98136047  0.18939931  0.83584814  1
  Li  Li105  1  0.99369879  0.52564881  0.80034057  1
  Li  Li106  1  0.48882110  0.68502294  0.83503329  1
  Li  Li107  1  0.35972350  0.49066785  0.95009858  1
  Li  Li108  1  0.64661990  0.60726786  0.95076657  1
  Li  Li109  1  0.14580566  0.64222139  0.96940718  1
  Li  Li110  1  0.81847625  0.35744878  0.90792142  1
  Li  Li111  1  0.80425729  0.10098466  0.94988098  1
  Li  Li112  1  0.15117574  0.98204700  0.93914321  1
  Li  Li113  1  0.64483429  0.85136079  0.90691456  1
  Li  Li114  1  0.32594038  0.13923321  0.96788991  1
  Li  Li115  1  0.47256228  0.42561425  0.89569211  1
  Li  Li116  1  0.96900037  0.53889141  0.93264103  1
  Li  Li117  1  0.99123944  0.92145194  0.89579008  1
  Li  Li118  1  0.50640933  0.04440343  0.93286455  1
  Li  Li119  1  0.01329590  0.06794614  0.00219458  1
  P  P120  1  0.07873789  0.58975742  0.04538045  1
  P  P121  1  0.90560331  0.01535479  0.06721715  1
  P  P122  1  0.40394972  0.09677732  0.04465999  1
  P  P123  1  0.57301010  0.52712098  0.06531682  1
  P  P124  1  0.07995953  0.21934265  0.14280933  1
  P  P125  1  0.89916645  0.65592738  0.16107314  1
  P  P126  1  0.39535779  0.71921190  0.14546813  1
  P  P127  1  0.57760059  0.15157507  0.16127130  1
  P  P128  1  0.07671975  0.85087839  0.24075078  1
  P  P129  1  0.89979877  0.28364227  0.25846973  1
  P  P130  1  0.40058042  0.35017992  0.24124219  1
  P  P131  1  0.57844043  0.78758223  0.25975765  1
  P  P132  1  0.08260905  0.47824811  0.33703745  1
  P  P133  1  0.90058257  0.91579541  0.35589305  1
  P  P134  1  0.39938753  0.98097626  0.33757288  1
  P  P135  1  0.57911274  0.41845625  0.35633124  1
  P  P136  1  0.08060843  0.10751724  0.43985495  1
  P  P137  1  0.91282620  0.54627708  0.44905702  1
  P  P138  1  0.40610230  0.61930740  0.43967745  1
  P  P139  1  0.57926292  0.05411702  0.44943701  1
  P  P140  1  0.39744819  0.28553535  0.54533384  1
  P  P141  1  0.57041198  0.85936287  0.56726944  1
  P  P142  1  0.07209493  0.77817652  0.54500626  1
  P  P143  1  0.90388429  0.34861591  0.56551380  1
  P  P144  1  0.39482807  0.65432258  0.64283022  1
  P  P145  1  0.57612947  0.21641405  0.66103155  1
  P  P146  1  0.07984992  0.15318307  0.64554358  1
  P  P147  1  0.89711534  0.72088137  0.66130582  1
  P  P148  1  0.39819885  0.02307863  0.74066936  1
  P  P149  1  0.57501950  0.59117071  0.75840924  1
  P  P150  1  0.07399859  0.52537939  0.74122386  1
  P  P151  1  0.89631939  0.08863892  0.75970605  1
  P  P152  1  0.39216207  0.39622378  0.83700542  1
  P  P153  1  0.57408981  0.95997562  0.85582416  1
  P  P154  1  0.07501545  0.89596460  0.83744339  1
  P  P155  1  0.89644885  0.45833555  0.85629750  1
  P  P156  1  0.39330084  0.76859480  0.93982284  1
  P  P157  1  0.56170225  0.32983954  0.94905465  1
  P  P158  1  0.06776611  0.25658298  0.94000314  1
  P  P159  1  0.89484835  0.82154589  0.94924831  1
  S  S160  1  0.13495301  0.41059407  0.03684179  1
  S  S161  1  0.84586135  0.19378143  0.07752577  1
  S  S162  1  0.33522343  0.18956330  0.07610677  1
  S  S163  1  0.65878036  0.45670989  0.03566019  1
  S  S164  1  0.62922357  0.71190379  0.07693849  1
  S  S165  1  0.35696855  0.91169683  0.03758549  1
  S  S166  1  0.82135017  0.92375589  0.03892126  1
  S  S167  1  0.15129774  0.68456917  0.07619056  1
  S  S168  1  0.04961095  0.05814895  0.05171384  1
  S  S169  1  0.92756641  0.55949163  0.05622972  1
  S  S170  1  0.42288478  0.56549935  0.05537400  1
  S  S171  1  0.55925014  0.09095191  0.05414216  1
  S  S172  1  0.08621267  0.71652987  0.01368697  1
  S  S173  1  0.90403109  0.89694284  0.09989222  1
  S  S174  1  0.38300089  0.21604690  0.01252591  1
  S  S175  1  0.58915324  0.40937113  0.09793263  1
  S  S176  1  0.14609321  0.04407438  0.13296624  1
  S  S177  1  0.83611017  0.83480618  0.16985214  1
  S  S178  1  0.33436193  0.82018899  0.17663061  1
  S  S179  1  0.63542136  0.06667050  0.12787026  1
  S  S180  1  0.64611830  0.32534007  0.17174207  1
  S  S181  1  0.33483838  0.53663580  0.13943453  1
  S  S182  1  0.83684467  0.56499011  0.12885893  1
  S  S183  1  0.14148074  0.30754962  0.17538903  1
  S  S184  1  0.05016624  0.69662907  0.15020002  1
  S  S185  1  0.93045972  0.17520174  0.15445807  1
  S  S186  1  0.42793465  0.19988393  0.15139636  1
  S  S187  1  0.54722674  0.68427915  0.15624881  1
  S  S188  1  0.09408453  0.34326500  0.11144063  1
  S  S189  1  0.88288317  0.53558054  0.19280673  1
  S  S190  1  0.37071075  0.83078853  0.11283143  1
  S  S191  1  0.59502701  0.02690376  0.19237720  1
  S  S192  1  0.14448931  0.67621157  0.23060362  1
  S  S193  1  0.83752103  0.46396753  0.26597326  1
  S  S194  1  0.33920018  0.44668471  0.27279213  1
  S  S195  1  0.63948375  0.69693723  0.22739738  1
  S  S196  1  0.64455071  0.96408058  0.26900924  1
  S  S197  1  0.33596446  0.17111464  0.23328779  1
  S  S198  1  0.83581042  0.18521292  0.22732529  1
  S  S199  1  0.13562115  0.93726486  0.27383739  1
  S  S200  1  0.04965649  0.32293972  0.24651633  1
  S  S201  1  0.92724230  0.80239982  0.25098920  1
  S  S202  1  0.42875160  0.83288529  0.24870593  1
  S  S203  1  0.55059224  0.30705456  0.25260485  1
  S  S204  1  0.09275394  0.97593463  0.20962990  1
  S  S205  1  0.88441033  0.16820957  0.29095596  1
  S  S206  1  0.38629482  0.46669119  0.20891784  1
  S  S207  1  0.59271128  0.66438944  0.29117697  1
  S  S208  1  0.14598281  0.30351348  0.32533704  1
  S  S209  1  0.83918066  0.09833376  0.36139826  1
  S  S210  1  0.33571233  0.06666303  0.37001261  1
  S  S211  1  0.64235918  0.31858228  0.32524120  1
  S  S212  1  0.64163904  0.59953946  0.36269724  1
  S  S213  1  0.33357250  0.80547494  0.32744177  1
  S  S214  1  0.83902415  0.81365959  0.32486554  1
  S  S215  1  0.14709640  0.55551447  0.37019599  1
  S  S216  1  0.05283934  0.95067784  0.34581255  1
  S  S217  1  0.93247858  0.43445321  0.34764196  1
  S  S218  1  0.42720624  0.45495390  0.34597810  1
  S  S219  1  0.54894805  0.93620750  0.34828503  1
  S  S220  1  0.09811433  0.60740527  0.30659225  1
  S  S221  1  0.87892456  0.80421920  0.38860291  1
  S  S222  1  0.38480638  0.10623907  0.30607830  1
  S  S223  1  0.59693788  0.30562350  0.38904814  1
  S  S224  1  0.14187611  0.92796634  0.42837641  1
  S  S225  1  0.84415398  0.70792982  0.46503610  1
  S  S226  1  0.33867224  0.71594163  0.47111774  1
  S  S227  1  0.65104783  0.96462656  0.41821929  1
  S  S228  1  0.63748016  0.23059419  0.46122179  1
  S  S229  1  0.33364607  0.44220056  0.43315161  1
  S  S230  1  0.83326351  0.45906907  0.41869229  1
  S  S231  1  0.14747245  0.17613895  0.47298193  1
  S  S232  1  0.05349002  0.60396032  0.43402259  1
  S  S233  1  0.92721453  0.06506083  0.44675791  1
  S  S234  1  0.42966111  0.09071947  0.43784552  1
  S  S235  1  0.55729924  0.57856789  0.44782067  1
  S  S236  1  0.10309007  0.23455648  0.40903756  1
  S  S237  1  0.94162837  0.40633193  0.47620120  1
  S  S238  1  0.38425123  0.73036368  0.40649155  1
  S  S239  1  0.59508343  0.93214125  0.48094746  1
  S  S240  1  0.34128911  0.46502403  0.53692953  1
  S  S241  1  0.63030965  0.68105480  0.57756501  1
  S  S242  1  0.14012090  0.68392503  0.57639117  1
  S  S243  1  0.81740078  0.42012747  0.53610698  1
  S  S244  1  0.84724149  0.16404438  0.57717204  1
  S  S245  1  0.12094278  0.96247589  0.53802448  1
  S  S246  1  0.65500395  0.95175722  0.53915803  1
  S  S247  1  0.32475016  0.19029708  0.57607783  1
  S  S248  1  0.42667224  0.81590186  0.55164562  1
  S  S249  1  0.54878652  0.31564450  0.55611438  1
  S  S250  1  0.05368404  0.30926084  0.55533974  1
  S  S251  1  0.91712273  0.78604310  0.55470523  1
  S  S252  1  0.39028844  0.15919482  0.51362164  1
  S  S253  1  0.57105411  0.97767736  0.59996346  1
  S  S254  1  0.09174999  0.65870293  0.51284784  1
  S  S255  1  0.88884678  0.46548091  0.59829091  1
  S  S256  1  0.32856180  0.82923182  0.63286451  1
  S  S257  1  0.63935695  0.03750672  0.66963779  1
  S  S258  1  0.14007916  0.05081236  0.67657786  1
  S  S259  1  0.83952034  0.80590086  0.62787480  1
  S  S260  1  0.82793667  0.54747996  0.67169267  1
  S  S261  1  0.14068307  0.33565389  0.63972697  1
  S  S262  1  0.63812302  0.30816019  0.62881407  1
  S  S263  1  0.33346509  0.56682657  0.67553119  1
  S  S264  1  0.42497787  0.17639594  0.65019896  1
  S  S265  1  0.54427522  0.69864811  0.65448531  1
  S  S266  1  0.04674869  0.67217393  0.65145322  1
  S  S267  1  0.92796911  0.18842779  0.65627096  1
  S  S268  1  0.38109255  0.52970067  0.61157927  1
  S  S269  1  0.59238209  0.33641707  0.69278228  1
  S  S270  1  0.10439430  0.04257241  0.61278430  1
  S  S271  1  0.88025194  0.84598451  0.69236197  1
  S  S272  1  0.33005733  0.19720323  0.73033406  1
  S  S273  1  0.63788946  0.41128562  0.76587071  1
  S  S274  1  0.13575542  0.42992134  0.77284571  1
  S  S275  1  0.83569584  0.17857188  0.72720199  1
  S  S276  1  0.82957302  0.91280135  0.76904111  1
  S  S277  1  0.13798810  0.70436808  0.73304746  1
  S  S278  1  0.63884051  0.68997974  0.72727227  1
  S  S279  1  0.33954502  0.93686841  0.77380706  1
  S  S280  1  0.42516351  0.55142454  0.74648731  1
  S  S281  1  0.54765508  0.07191674  0.75080846  1
  S  S282  1  0.04609629  0.04327873  0.74878144  1
  S  S283  1  0.92397866  0.56839225  0.75254812  1
  S  S284  1  0.38209910  0.89720278  0.70968813  1
  S  S285  1  0.59025412  0.70656720  0.79091008  1
  S  S286  1  0.08813177  0.40755178  0.70905858  1
  S  S287  1  0.88163011  0.21273775  0.79096376  1
  S  S288  1  0.32836895  0.57036646  0.82513282  1
  S  S289  1  0.63535685  0.77747489  0.86133308  1
  S  S290  1  0.13835192  0.81077449  0.86995952  1
  S  S291  1  0.83360809  0.55819343  0.82517269  1
  S  S292  1  0.83434635  0.27707365  0.86255714  1
  S  S293  1  0.14143221  0.07092108  0.82724630  1
  S  S294  1  0.63553638  0.06257221  0.82482408  1
  S  S295  1  0.32821710  0.31908782  0.87022839  1
  S  S296  1  0.42193683  0.92452853  0.84579298  1
  S  S297  1  0.54239152  0.44100543  0.84746471  1
  S  S298  1  0.04873656  0.42257136  0.84614349  1
  S  S299  1  0.92542716  0.94060539  0.84803160  1
  S  S300  1  0.37651952  0.26655725  0.80661165  1
  S  S301  1  0.59577417  0.07168335  0.88850241  1
  S  S302  1  0.08990339  0.77020746  0.80595698  1
  S  S303  1  0.87785588  0.57110740  0.88899612  1
  S  S304  1  0.33175345  0.94841349  0.92850711  1
  S  S305  1  0.62979614  0.16793773  0.96511767  1
  S  S306  1  0.13511553  0.16009004  0.97145782  1
  S  S307  1  0.82276755  0.91138670  0.91811167  1
  S  S308  1  0.83670628  0.64515626  0.96107072  1
  S  S309  1  0.14045038  0.43375527  0.93348075  1
  S  S310  1  0.64187095  0.41657451  0.91872565  1
  S  S311  1  0.32604161  0.69999851  0.97290267  1
  S  S312  1  0.42111032  0.27210161  0.93396686  1
  S  S313  1  0.54667204  0.81132100  0.94674811  1
  S  S314  1  0.04449929  0.78469441  0.93776509  1
  S  S315  1  0.91661571  0.29763757  0.94790861  1
  S  S316  1  0.37095068  0.64168504  0.90898934  1
  S  S317  1  0.53276867  0.46972298  0.97618655  1
  S  S318  1  0.09051290  0.14561845  0.90682715  1
  S  S319  1  0.87891756  0.94349388  0.98076627  1
