# generated using pymatgen
data_Li3PS4
_symmetry_space_group_name_H-M   'P 1'
_cell_length_a   13.05789500
_cell_length_b   10.24241400
_cell_length_c   50.14142525
_cell_angle_alpha   90.00000000
_cell_angle_beta   90.00000000
_cell_angle_gamma   90.00000000
_symmetry_Int_Tables_number   1
_chemical_formula_structural   Li3PS4
_chemical_formula_sum   'Li120 P40 S160'
_cell_volume   6706.13315855
_cell_formula_units_Z   40
loop_
 _symmetry_equiv_pos_site_id
 _symmetry_equiv_pos_as_xyz
  1  'x, y, z'
loop_
 _atom_site_type_symbol
 _atom_site_label
 _atom_site_symmetry_multiplicity
 _atom_site_fract_x
 _atom_site_fract_y
 _atom_site_fract_z
 _atom_site_occupancy
  Li  Li0  1  0.18834923  0.57545871  0.04982115  1
  Li  Li1  1  0.84119276  0.46669340  0.05662691  1
  Li  Li2  1  0.68112926  0.72262441  0.01197584  1
  Li  Li3  1  0.68844250  0.96555234  0.05683119  1
  Li  Li4  1  0.34183303  0.07513943  0.04994141  1
  Li  Li5  1  0.84692306  0.22026530  0.01193348  1
  Li  Li6  1  0.50661585  0.52509427  0.06250994  1
  Li  Li7  1  0.51383294  0.09987260  0.99829944  1
  Li  Li8  1  0.02313218  0.02536945  0.06205261  1
  Li  Li9  1  0.17742020  0.21956385  0.13989943  1
  Li  Li10  1  0.84757256  0.09704845  0.15609430  1
  Li  Li11  1  0.35190141  0.34287706  0.08956021  1
  Li  Li12  1  0.68055960  0.31006938  0.11548754  1
  Li  Li13  1  0.68664030  0.59394879  0.15735599  1
  Li  Li14  1  0.35288011  0.71754207  0.14102641  1
  Li  Li15  1  0.85260646  0.81235981  0.11602149  1
  Li  Li16  1  0.17909343  0.84157593  0.08995826  1
  Li  Li17  1  0.00279941  0.39224519  0.10016816  1
  Li  Li18  1  0.51004323  0.16025233  0.16186497  1
  Li  Li19  1  0.52866598  0.89055806  0.10066932  1
  Li  Li20  1  0.02192776  0.66209222  0.16263316  1
  Li  Li21  1  0.17904443  0.84942214  0.23998985  1
  Li  Li22  1  0.85060376  0.72751053  0.25458142  1
  Li  Li23  1  0.34348858  0.98926397  0.18703333  1
  Li  Li24  1  0.69085704  0.95002383  0.21475155  1
  Li  Li25  1  0.68118227  0.22338053  0.25860006  1
  Li  Li26  1  0.35297714  0.34591750  0.24277293  1
  Li  Li27  1  0.85315042  0.44066288  0.21627660  1
  Li  Li28  1  0.19009471  0.47907454  0.18767279  1
  Li  Li29  1  0.01041245  0.02829601  0.19924589  1
  Li  Li30  1  0.52553908  0.78165540  0.24113752  1
  Li  Li31  1  0.52494711  0.50260089  0.19931593  1
  Li  Li32  1  0.02531355  0.29177853  0.26088416  1
  Li  Li33  1  0.17970444  0.47865231  0.34032663  1
  Li  Li34  1  0.85149463  0.35472552  0.35661630  1
  Li  Li35  1  0.35124570  0.63332374  0.28391153  1
  Li  Li36  1  0.69080556  0.59121963  0.31197341  1
  Li  Li37  1  0.67632894  0.85002929  0.35896732  1
  Li  Li38  1  0.34799006  0.97429716  0.34394874  1
  Li  Li39  1  0.85061833  0.07007940  0.31451127  1
  Li  Li40  1  0.19058110  0.10977098  0.28658481  1
  Li  Li41  1  0.01077150  0.65006446  0.29821747  1
  Li  Li42  1  0.52155231  0.40889159  0.33695759  1
  Li  Li43  1  0.50917794  0.04973541  0.30050893  1
  Li  Li44  1  0.02427982  0.92067672  0.35689645  1
  Li  Li45  1  0.18764372  0.09791821  0.44096131  1
  Li  Li46  1  0.83675750  0.98508503  0.44950716  1
  Li  Li47  1  0.35232211  0.25642861  0.38303528  1
  Li  Li48  1  0.67788750  0.22506961  0.41021080  1
  Li  Li49  1  0.68713290  0.48222606  0.45141267  1
  Li  Li50  1  0.33847912  0.59161411  0.44279271  1
  Li  Li51  1  0.84721937  0.71503880  0.41101791  1
  Li  Li52  1  0.18772437  0.74871185  0.38438419  1
  Li  Li53  1  0.02538052  0.20279072  0.39918361  1
  Li  Li54  1  0.52320075  0.03339006  0.43753337  1
  Li  Li55  1  0.50232969  0.67197370  0.39964424  1
  Li  Li56  1  0.00409326  0.53431423  0.43855379  1
  Li  Li57  1  0.34469979  0.82590795  0.48853859  1
  Li  Li58  1  0.17846314  0.32510151  0.48914774  1
  Li  Li59  1  0.51083148  0.44920048  0.49937305  1
  Li  Li60  1  0.33622866  0.47353517  0.54972497  1
  Li  Li61  1  0.68368397  0.58228963  0.55679732  1
  Li  Li62  1  0.84375013  0.32591280  0.51217418  1
  Li  Li63  1  0.83734464  0.08340865  0.55712688  1
  Li  Li64  1  0.18462809  0.97450336  0.54990280  1
  Li  Li65  1  0.67845934  0.82919970  0.51227797  1
  Li  Li66  1  0.01843478  0.52418848  0.56258493  1
  Li  Li67  1  0.01123924  0.94995846  0.49830229  1
  Li  Li68  1  0.50280835  0.02373262  0.56223343  1
  Li  Li69  1  0.34723993  0.83023025  0.63984496  1
  Li  Li70  1  0.67741980  0.95293690  0.65610476  1
  Li  Li71  1  0.17298569  0.70657482  0.58967901  1
  Li  Li72  1  0.84421149  0.73932383  0.61553786  1
  Li  Li73  1  0.83800591  0.45526774  0.65756432  1
  Li  Li74  1  0.17173925  0.33055304  0.64107208  1
  Li  Li75  1  0.67265594  0.23689607  0.61601716  1
  Li  Li76  1  0.34609659  0.20833229  0.58992752  1
  Li  Li77  1  0.52172478  0.65721098  0.60043540  1
  Li  Li78  1  0.01449110  0.88892311  0.66166767  1
  Li  Li79  1  0.99645097  0.15946781  0.60067278  1
  Li  Li80  1  0.50301518  0.38776248  0.66254818  1
  Li  Li81  1  0.34497746  0.20017344  0.74036973  1
  Li  Li82  1  0.67448405  0.32264845  0.75456721  1
  Li  Li83  1  0.18157903  0.06103881  0.68698217  1
  Li  Li84  1  0.83417962  0.10017822  0.71471925  1
  Li  Li85  1  0.84375792  0.82728578  0.75845843  1
  Li  Li86  1  0.17161928  0.70437395  0.74215878  1
  Li  Li87  1  0.67192903  0.60944729  0.71635695  1
  Li  Li88  1  0.33606695  0.56979269  0.68784525  1
  Li  Li89  1  0.51450723  0.02179750  0.69924371  1
  Li  Li90  1  0.99973260  0.26961341  0.74203491  1
  Li  Li91  1  0.00010090  0.54714299  0.69921728  1
  Li  Li92  1  0.49975095  0.75836598  0.76089298  1
  Li  Li93  1  0.34454029  0.57276095  0.84042106  1
  Li  Li94  1  0.67335000  0.69583967  0.85665473  1
  Li  Li95  1  0.17423989  0.41808680  0.78391417  1
  Li  Li96  1  0.83431051  0.46231126  0.81228778  1
  Li  Li97  1  0.84861127  0.20013525  0.85897170  1
  Li  Li98  1  0.17698549  0.07763814  0.84365726  1
  Li  Li99  1  0.67470816  0.98228846  0.81452936  1
  Li  Li100  1  0.33386997  0.94049365  0.78642419  1
  Li  Li101  1  0.51422307  0.40005630  0.79823470  1
  Li  Li102  1  0.00390438  0.64174570  0.83686142  1
  Li  Li103  1  0.01588380  0.00016848  0.80047963  1
  Li  Li104  1  0.50024806  0.12960900  0.85674447  1
  Li  Li105  1  0.33712164  0.95192861  0.94096430  1
  Li  Li106  1  0.68757673  0.06446150  0.94956222  1
  Li  Li107  1  0.17313054  0.79468328  0.88289944  1
  Li  Li108  1  0.84636221  0.82480656  0.90997337  1
  Li  Li109  1  0.83778593  0.56784660  0.95119418  1
  Li  Li110  1  0.18615091  0.45791804  0.94275955  1
  Li  Li111  1  0.67789371  0.33508382  0.91097609  1
  Li  Li112  1  0.33711220  0.30105976  0.88428248  1
  Li  Li113  1  0.49883354  0.85046859  0.89907728  1
  Li  Li114  1  0.00174452  0.01656186  0.93748483  1
  Li  Li115  1  0.02294766  0.37994884  0.89945863  1
  Li  Li116  1  0.51956773  0.51608219  0.93811772  1
  Li  Li117  1  0.18122045  0.22369463  0.98854455  1
  Li  Li118  1  0.34551135  0.72477523  0.98919351  1
  Li  Li119  1  0.01454580  0.59971475  0.99943159  1
  P  P120  1  0.10876538  0.29935990  0.04514933  1
  P  P121  1  0.42187400  0.79977547  0.04541765  1
  P  P122  1  0.10360274  0.93701570  0.14204733  1
  P  P123  1  0.92799773  0.73709666  0.06057260  1
  P  P124  1  0.42877514  0.43570401  0.14203356  1
  P  P125  1  0.60144825  0.23494421  0.06019927  1
  P  P126  1  0.10716026  0.56949820  0.24079483  1
  P  P127  1  0.92650326  0.37054542  0.16062754  1
  P  P128  1  0.42870213  0.06659388  0.24027184  1
  P  P129  1  0.60563315  0.87090252  0.16098967  1
  P  P130  1  0.10767928  0.19787633  0.33947700  1
  P  P131  1  0.92966693  0.00111796  0.25928363  1
  P  P132  1  0.42731442  0.70005189  0.33912440  1
  P  P133  1  0.60792320  0.50374107  0.25891892  1
  P  P134  1  0.09982127  0.82412489  0.43801954  1
  P  P135  1  0.92809842  0.63459562  0.35820143  1
  P  P136  1  0.42603827  0.32193486  0.43872099  1
  P  P137  1  0.60452986  0.13208465  0.35759710  1
  P  P138  1  0.91912207  0.25886832  0.45518936  1
  P  P139  1  0.60559049  0.75645673  0.45541086  1
  P  P140  1  0.41641635  0.74953097  0.54520908  1
  P  P141  1  0.10320792  0.24969685  0.54545282  1
  P  P142  1  0.42145790  0.11274007  0.64202253  1
  P  P143  1  0.59710433  0.31221562  0.56061071  1
  P  P144  1  0.09647812  0.61350913  0.64205337  1
  P  P145  1  0.92424410  0.81418326  0.56032055  1
  P  P146  1  0.41807642  0.48048948  0.74086564  1
  P  P147  1  0.59852888  0.67943150  0.66069736  1
  P  P148  1  0.09588120  0.98394441  0.74012056  1
  P  P149  1  0.91928946  0.17890645  0.66099260  1
  P  P150  1  0.41733767  0.85310660  0.83933055  1
  P  P151  1  0.59528299  0.04936726  0.75930252  1
  P  P152  1  0.09746341  0.35057033  0.83903290  1
  P  P153  1  0.91697811  0.54702221  0.75897557  1
  P  P154  1  0.42514090  0.22553996  0.93798008  1
  P  P155  1  0.59666228  0.41589455  0.85820286  1
  P  P156  1  0.09891117  0.72806564  0.93860332  1
  P  P157  1  0.92055506  0.91837333  0.85750103  1
  P  P158  1  0.60550693  0.79029685  0.95506431  1
  P  P159  1  0.91958533  0.29365223  0.95523994  1
  S  S160  1  0.16616765  0.11996094  0.03456325  1
  S  S161  1  0.66876935  0.15341967  0.02690573  1
  S  S162  1  0.36426788  0.62013441  0.03495326  1
  S  S163  1  0.85977710  0.65753081  0.02719456  1
  S  S164  1  0.07886976  0.77453967  0.05082608  1
  S  S165  1  0.95494865  0.26681188  0.05387720  1
  S  S166  1  0.45084946  0.27390929  0.05047809  1
  S  S167  1  0.57577314  0.76645317  0.05400951  1
  S  S168  1  0.13990650  0.42354558  0.01435304  1
  S  S169  1  0.39031593  0.92331355  0.01457348  1
  S  S170  1  0.16663604  0.75636969  0.13543108  1
  S  S171  1  0.86309839  0.91278241  0.07138001  1
  S  S172  1  0.36038959  0.88159041  0.07947799  1
  S  S173  1  0.66810847  0.78317912  0.12800649  1
  S  S174  1  0.66706062  0.41041018  0.07085925  1
  S  S175  1  0.36571187  0.25556120  0.13495538  1
  S  S176  1  0.86439022  0.28727995  0.12699472  1
  S  S177  1  0.17074138  0.38088065  0.07920532  1
  S  S178  1  0.07599207  0.41701433  0.15006138  1
  S  S179  1  0.95372629  0.89851989  0.15389143  1
  S  S180  1  0.45629400  0.91636496  0.15033245  1
  S  S181  1  0.57913412  0.39637442  0.15369214  1
  S  S182  1  0.11791997  0.05035083  0.10869356  1
  S  S183  1  0.90744206  0.61163140  0.09217257  1
  S  S184  1  0.41398431  0.55124756  0.10901157  1
  S  S185  1  0.62157737  0.11076730  0.09208748  1
  S  S186  1  0.17006133  0.38953869  0.23319805  1
  S  S187  1  0.86082781  0.54496426  0.17189247  1
  S  S188  1  0.36502918  0.53543661  0.17358651  1
  S  S189  1  0.67034806  0.40846982  0.22679873  1
  S  S190  1  0.67244327  0.04633642  0.17097745  1
  S  S191  1  0.36242480  0.89009886  0.23091358  1
  S  S192  1  0.87047346  0.91673300  0.22545020  1
  S  S193  1  0.16858707  0.03977075  0.17308988  1
  S  S194  1  0.07928592  0.04951787  0.24862170  1
  S  S195  1  0.95746637  0.52987214  0.25287092  1
  S  S196  1  0.45785813  0.54587725  0.24722403  1
  S  S197  1  0.57863334  0.02166699  0.25139003  1
  S  S198  1  0.12236215  0.68444858  0.20761775  1
  S  S199  1  0.91002049  0.24418898  0.19205108  1
  S  S200  1  0.41412899  0.18954473  0.20831257  1
  S  S201  1  0.62191582  0.74651673  0.19310240  1
  S  S202  1  0.17047313  0.01818259  0.33125631  1
  S  S203  1  0.86242691  0.17497642  0.27017398  1
  S  S204  1  0.36787555  0.15718138  0.27317031  1
  S  S205  1  0.66971643  0.03196536  0.32632747  1
  S  S206  1  0.67170897  0.68300992  0.26707626  1
  S  S207  1  0.35952439  0.52694071  0.32798565  1
  S  S208  1  0.86784430  0.54226718  0.32544512  1
  S  S209  1  0.17092949  0.66884053  0.27237342  1
  S  S210  1  0.07806586  0.67967799  0.34712884  1
  S  S211  1  0.95751854  0.15643056  0.35096957  1
  S  S212  1  0.45490335  0.17138166  0.34544961  1
  S  S213  1  0.57643546  0.65093773  0.34962687  1
  S  S214  1  0.12363000  0.31589817  0.30685802  1
  S  S215  1  0.91447894  0.87476672  0.29065064  1
  S  S216  1  0.41191191  0.82778414  0.30792533  1
  S  S217  1  0.62226109  0.38604300  0.29164604  1
  S  S218  1  0.16414966  0.64758646  0.42775850  1
  S  S219  1  0.86145859  0.81165373  0.36696505  1
  S  S220  1  0.36723777  0.78372447  0.37299949  1
  S  S221  1  0.66804282  0.67482002  0.42146226  1
  S  S222  1  0.66683217  0.31267280  0.36478221  1
  S  S223  1  0.36314027  0.14708702  0.42679366  1
  S  S224  1  0.85812053  0.18100735  0.42077692  1
  S  S225  1  0.17001511  0.29207134  0.37180274  1
  S  S226  1  0.07329851  0.29426577  0.44655100  1
  S  S227  1  0.95018931  0.78683664  0.44905682  1
  S  S228  1  0.45209618  0.79088561  0.44651447  1
  S  S229  1  0.57590875  0.28399427  0.44960122  1
  S  S230  1  0.11725464  0.94974885  0.40593701  1
  S  S231  1  0.91333211  0.51237042  0.39028134  1
  S  S232  1  0.40947295  0.45060815  0.40747813  1
  S  S233  1  0.61809918  0.01686939  0.39080178  1
  S  S234  1  0.86245130  0.43761526  0.46645508  1
  S  S235  1  0.35397943  0.39833569  0.47181045  1
  S  S236  1  0.66347604  0.93572065  0.46596741  1
  S  S237  1  0.17077821  0.90744713  0.47048174  1
  S  S238  1  0.88840908  0.13198984  0.48545017  1
  S  S239  1  0.63501898  0.63208171  0.48626281  1
  S  S240  1  0.35982664  0.92937812  0.53460395  1
  S  S241  1  0.85681973  0.89572628  0.52706807  1
  S  S242  1  0.16038465  0.42941304  0.53489699  1
  S  S243  1  0.66544809  0.39200250  0.52727188  1
  S  S244  1  0.44636227  0.27451105  0.55079648  1
  S  S245  1  0.57015104  0.78176049  0.55410120  1
  S  S246  1  0.07476620  0.77522839  0.55055451  1
  S  S247  1  0.94941556  0.28286886  0.55419682  1
  S  S248  1  0.38534871  0.62569581  0.51435404  1
  S  S249  1  0.13462855  0.12612247  0.51461127  1
  S  S250  1  0.35821588  0.29330624  0.63541371  1
  S  S251  1  0.66240857  0.13665768  0.57139902  1
  S  S252  1  0.16498299  0.16808425  0.57948986  1
  S  S253  1  0.85688946  0.26674645  0.62801622  1
  S  S254  1  0.85820980  0.63892840  0.57093679  1
  S  S255  1  0.15924153  0.79387769  0.63496313  1
  S  S256  1  0.66060765  0.76253392  0.62705209  1
  S  S257  1  0.35390408  0.66785891  0.57918377  1
  S  S258  1  0.44901950  0.63290860  0.65014055  1
  S  S259  1  0.57125691  0.15138269  0.65391878  1
  S  S260  1  0.06851819  0.13285855  0.65027666  1
  S  S261  1  0.94598221  0.65280588  0.65366334  1
  S  S262  1  0.40743395  0.99937856  0.60865693  1
  S  S263  1  0.61726495  0.43749993  0.59226275  1
  S  S264  1  0.11150541  0.49788278  0.60905176  1
  S  S265  1  0.90420461  0.93832823  0.59223267  1
  S  S266  1  0.35518364  0.66034444  0.73316389  1
  S  S267  1  0.66400807  0.50494235  0.67198299  1
  S  S268  1  0.16034687  0.51416540  0.67364052  1
  S  S269  1  0.85459857  0.64172422  0.72678432  1
  S  S270  1  0.85241674  0.00351202  0.67099615  1
  S  S271  1  0.16206259  0.16059044  0.73081935  1
  S  S272  1  0.65451439  0.13352821  0.72545214  1
  S  S273  1  0.35637262  0.00987384  0.67303001  1
  S  S274  1  0.44569196  0.00068061  0.74862445  1
  S  S275  1  0.56770804  0.52043307  0.75296233  1
  S  S276  1  0.06697931  0.50444451  0.74722685  1
  S  S277  1  0.94607541  0.02887433  0.75134157  1
  S  S278  1  0.40322420  0.36469630  0.70782135  1
  S  S279  1  0.61499954  0.80588389  0.69209967  1
  S  S280  1  0.11050787  0.86131741  0.70809500  1
  S  S281  1  0.90331005  0.30329145  0.69310032  1
  S  S282  1  0.35453125  0.03273694  0.83099795  1
  S  S283  1  0.66261145  0.87579464  0.77028187  1
  S  S284  1  0.15683764  0.89271898  0.77291823  1
  S  S285  1  0.85555586  0.01886875  0.82625414  1
  S  S286  1  0.85291522  0.36832727  0.76745089  1
  S  S287  1  0.16541150  0.52370368  0.82796903  1
  S  S288  1  0.65675776  0.50834694  0.82544331  1
  S  S289  1  0.35409545  0.38174915  0.77250209  1
  S  S290  1  0.44657513  0.37129945  0.84717464  1
  S  S291  1  0.56743345  0.89458693  0.85086561  1
  S  S292  1  0.07038236  0.87971968  0.84538269  1
  S  S293  1  0.94849203  0.39956001  0.84963674  1
  S  S294  1  0.40130074  0.73458025  0.80680736  1
  S  S295  1  0.61049219  0.17613318  0.79062585  1
  S  S296  1  0.11266300  0.22325829  0.80774352  1
  S  S297  1  0.90338270  0.66560826  0.79158901  1
  S  S298  1  0.36027869  0.40170211  0.92767360  1
  S  S299  1  0.66321728  0.23872027  0.86691421  1
  S  S300  1  0.15758894  0.26661542  0.87287403  1
  S  S301  1  0.85731035  0.37549906  0.92129367  1
  S  S302  1  0.85849591  0.73745390  0.86451556  1
  S  S303  1  0.16183665  0.90304719  0.92677027  1
  S  S304  1  0.66637040  0.86880742  0.92068714  1
  S  S305  1  0.35506544  0.75907679  0.87170113  1
  S  S306  1  0.45124471  0.75549913  0.94647721  1
  S  S307  1  0.57468252  0.26304040  0.94896754  1
  S  S308  1  0.07303940  0.25894455  0.94644411  1
  S  S309  1  0.94889148  0.76592313  0.94929011  1
  S  S310  1  0.40747667  0.09996073  0.90588451  1
  S  S311  1  0.61170339  0.53799423  0.89029127  1
  S  S312  1  0.11650029  0.59965984  0.90735246  1
  S  S313  1  0.90646391  0.03304220  0.89075977  1
  S  S314  1  0.66201587  0.61134536  0.96619595  1
  S  S315  1  0.17046682  0.65142755  0.97175618  1
  S  S316  1  0.86136809  0.11440621  0.96570987  1
  S  S317  1  0.35447649  0.14216808  0.97047167  1
  S  S318  1  0.63655155  0.91696900  0.98536018  1
  S  S319  1  0.88999531  0.41796860  0.98609586  1
