# generated using pymatgen
data_Li3PS4
_symmetry_space_group_name_H-M   'P 1'
_cell_length_a   13.05789500
_cell_length_b   10.24241400
_cell_length_c   50.99759966
_cell_angle_alpha   90.00000000
_cell_angle_beta   90.00000000
_cell_angle_gamma   90.00000000
_symmetry_Int_Tables_number   1
_chemical_formula_structural   Li3PS4
_chemical_formula_sum   'Li120 P40 S160'
_cell_volume   6820.64166290
_cell_formula_units_Z   40
loop_
 _symmetry_equiv_pos_site_id
 _symmetry_equiv_pos_as_xyz
  1  'x, y, z'
loop_
 _atom_site_type_symbol
 _atom_site_label
 _atom_site_symmetry_multiplicity
 _atom_site_fract_x
 _atom_site_fract_y
 _atom_site_fract_z
 _atom_site_occupancy
  Li  Li0  1  0.17400468  0.66825391  0.05004456  1
  Li  Li1  1  0.67124331  0.70855878  0.03050171  1
  Li  Li2  1  0.32952968  0.16255543  0.05038742  1
  Li  Li3  1  0.85161403  0.20472053  0.03200609  1
  Li  Li4  1  0.49602337  0.59714229  0.06782398  1
  Li  Li5  1  0.53831571  0.13222139  0.99789170  1
  Li  Li6  1  0.03136544  0.10698560  0.06777613  1
  Li  Li7  1  0.16926836  0.30671427  0.14407231  1
  Li  Li8  1  0.88500376  0.55304925  0.05045719  1
  Li  Li9  1  0.34302297  0.41694728  0.09277379  1
  Li  Li10  1  0.67509392  0.41415876  0.11430912  1
  Li  Li11  1  0.67883373  0.04299726  0.06161333  1
  Li  Li12  1  0.34870038  0.80321291  0.14241413  1
  Li  Li13  1  0.84842734  0.90020001  0.11645063  1
  Li  Li14  1  0.17146209  0.91665454  0.09380776  1
  Li  Li15  1  0.99732204  0.48576100  0.10516804  1
  Li  Li16  1  0.50328183  0.24913454  0.16489943  1
  Li  Li17  1  0.51967210  0.98431464  0.10485790  1
  Li  Li18  1  0.01398340  0.75086819  0.16604030  1
  Li  Li19  1  0.17135319  0.93173644  0.24337112  1
  Li  Li20  1  0.83888738  0.18387862  0.15924260  1
  Li  Li21  1  0.33438937  0.07004296  0.18901086  1
  Li  Li22  1  0.68211052  0.03259318  0.21643845  1
  Li  Li23  1  0.67869913  0.68313050  0.15964911  1
  Li  Li24  1  0.34711191  0.43193039  0.24307851  1
  Li  Li25  1  0.83542034  0.53281716  0.21720663  1
  Li  Li26  1  0.18409205  0.57327349  0.18891964  1
  Li  Li27  1  0.00009233  0.09165666  0.20120260  1
  Li  Li28  1  0.51450261  0.86688040  0.24449161  1
  Li  Li29  1  0.51681621  0.59249205  0.20057337  1
  Li  Li30  1  0.00269590  0.36602793  0.24298292  1
  Li  Li31  1  0.18209934  0.55680175  0.34287927  1
  Li  Li32  1  0.84838286  0.80725518  0.25928361  1
  Li  Li33  1  0.34144468  0.71469757  0.28469619  1
  Li  Li34  1  0.68153233  0.67141864  0.31123806  1
  Li  Li35  1  0.66926556  0.30741898  0.25872046  1
  Li  Li36  1  0.34305084  0.05782875  0.34276321  1
  Li  Li37  1  0.84152941  0.17520311  0.31176679  1
  Li  Li38  1  0.17794274  0.21504001  0.28473417  1
  Li  Li39  1  0.01935018  0.63276191  0.30092506  1
  Li  Li40  1  0.51690050  0.49304077  0.34109387  1
  Li  Li41  1  0.50389118  0.13608420  0.30021755  1
  Li  Li42  1  0.00494605  0.99187243  0.33785727  1
  Li  Li43  1  0.20593067  0.17536353  0.43229008  1
  Li  Li44  1  0.85054992  0.43462698  0.35643576  1
  Li  Li45  1  0.34713644  0.34241456  0.37729170  1
  Li  Li46  1  0.68650951  0.29974857  0.40785979  1
  Li  Li47  1  0.67983484  0.93419410  0.35602962  1
  Li  Li48  1  0.34226875  0.67452836  0.43056029  1
  Li  Li49  1  0.85277833  0.80184115  0.41043107  1
  Li  Li50  1  0.17826850  0.84013635  0.37981090  1
  Li  Li51  1  0.02113881  0.25701918  0.39962968  1
  Li  Li52  1  0.52845181  0.11239888  0.43569097  1
  Li  Li53  1  0.51406249  0.75945497  0.39593049  1
  Li  Li54  1  0.01594424  0.59549934  0.43541915  1
  Li  Li55  1  0.84381377  0.05713091  0.45370837  1
  Li  Li56  1  0.35588531  0.85680616  0.48712545  1
  Li  Li57  1  0.69650721  0.55924442  0.44920609  1
  Li  Li58  1  0.10590360  0.19553186  0.49035271  1
  Li  Li59  1  0.50322236  0.51215067  0.48096331  1
  Li  Li60  1  0.34101942  0.35040432  0.55197427  1
  Li  Li61  1  0.84645760  0.27842153  0.52775919  1
  Li  Li62  1  0.18723846  0.84795315  0.55184599  1
  Li  Li63  1  0.66918031  0.79074232  0.52646944  1
  Li  Li64  1  0.02491246  0.40182065  0.56747441  1
  Li  Li65  1  0.98866607  0.86561878  0.49826621  1
  Li  Li66  1  0.49574067  0.91060627  0.56714737  1
  Li  Li67  1  0.35129421  0.70101258  0.64100950  1
  Li  Li68  1  0.67539934  0.46504819  0.55866724  1
  Li  Li69  1  0.17462630  0.58592872  0.59222998  1
  Li  Li70  1  0.84926355  0.59882725  0.61529684  1
  Li  Li71  1  0.84320333  0.96078880  0.56066458  1
  Li  Li72  1  0.17497685  0.20255118  0.64262683  1
  Li  Li73  1  0.67388311  0.10601783  0.61537812  1
  Li  Li74  1  0.34802634  0.08987459  0.59331974  1
  Li  Li75  1  0.52168176  0.52996108  0.60246872  1
  Li  Li76  1  0.01854526  0.75724950  0.66430139  1
  Li  Li77  1  0.00080199  0.02505275  0.60414414  1
  Li  Li78  1  0.50880871  0.25867875  0.66398871  1
  Li  Li79  1  0.35333829  0.06862298  0.74000205  1
  Li  Li80  1  0.68405935  0.82275217  0.65658200  1
  Li  Li81  1  0.18865032  0.93055960  0.68757146  1
  Li  Li82  1  0.84033893  0.96840128  0.71529840  1
  Li  Li83  1  0.84336264  0.32353451  0.65829642  1
  Li  Li84  1  0.17754543  0.57221049  0.74225350  1
  Li  Li85  1  0.67909386  0.47902504  0.71649200  1
  Li  Li86  1  0.34339752  0.44227125  0.68921283  1
  Li  Li87  1  0.52243359  0.88675932  0.69960748  1
  Li  Li88  1  0.00783534  0.13726651  0.74131814  1
  Li  Li89  1  0.00595741  0.40992631  0.69964575  1
  Li  Li90  1  0.50629920  0.62474302  0.76158491  1
  Li  Li91  1  0.35084961  0.44081066  0.84019850  1
  Li  Li92  1  0.68253254  0.19087383  0.75444195  1
  Li  Li93  1  0.18115855  0.28846985  0.78391937  1
  Li  Li94  1  0.84355908  0.32622463  0.81079849  1
  Li  Li95  1  0.85257136  0.69416566  0.75797581  1
  Li  Li96  1  0.18122696  0.94360435  0.84212333  1
  Li  Li97  1  0.68028693  0.84246282  0.81213761  1
  Li  Li98  1  0.34114570  0.80747990  0.78601478  1
  Li  Li99  1  0.52269554  0.26700635  0.79723593  1
  Li  Li100  1  0.00901654  0.50744825  0.83564774  1
  Li  Li101  1  0.02273260  0.86995591  0.79898265  1
  Li  Li102  1  0.51212965  0.00079697  0.85296441  1
  Li  Li103  1  0.34066108  0.80362707  0.92915856  1
  Li  Li104  1  0.67456564  0.56098920  0.85333078  1
  Li  Li105  1  0.17645264  0.66456525  0.87942559  1
  Li  Li106  1  0.83736259  0.66809614  0.90512868  1
  Li  Li107  1  0.85005610  0.06574954  0.85530227  1
  Li  Li108  1  0.19815640  0.33842084  0.93472409  1
  Li  Li109  1  0.68388537  0.20731812  0.91098958  1
  Li  Li110  1  0.34358182  0.15783534  0.88017134  1
  Li  Li111  1  0.51661976  0.71297669  0.89774409  1
  Li  Li112  1  0.97496236  0.85565317  0.92887813  1
  Li  Li113  1  0.02068066  0.25076084  0.89862255  1
  Li  Li114  1  0.51683934  0.39271917  0.93478672  1
  Li  Li115  1  0.69202086  0.92952903  0.95387867  1
  Li  Li116  1  0.16432695  0.95558597  0.95540017  1
  Li  Li117  1  0.84224157  0.43891845  0.95564592  1
  Li  Li118  1  0.42629601  0.80320323  0.99303979  1
  Li  Li119  1  0.08371686  0.35792074  0.99230548  1
  P  P120  1  0.08685988  0.39144387  0.05163846  1
  P  P121  1  0.42183835  0.88348220  0.05125848  1
  P  P122  1  0.09875489  0.02196295  0.14497394  1
  P  P123  1  0.91952490  0.82998671  0.06086418  1
  P  P124  1  0.42143060  0.52003790  0.14404500  1
  P  P125  1  0.59475787  0.31755963  0.06052620  1
  P  P126  1  0.09949437  0.65099860  0.24137777  1
  P  P127  1  0.91839050  0.46024077  0.16408430  1
  P  P128  1  0.41900029  0.15195365  0.24120853  1
  P  P129  1  0.59904135  0.95717757  0.16335614  1
  P  P130  1  0.10006986  0.28314260  0.33900553  1
  P  P131  1  0.92012357  0.08818938  0.25983555  1
  P  P132  1  0.42343690  0.78425896  0.33846671  1
  P  P133  1  0.59817568  0.58696549  0.25950992  1
  P  P134  1  0.10986985  0.90567157  0.43451268  1
  P  P135  1  0.92370356  0.71366304  0.35683653  1
  P  P136  1  0.43047419  0.40590114  0.42953168  1
  P  P137  1  0.60492401  0.21149393  0.35573158  1
  P  P138  1  0.92847257  0.33270973  0.45451710  1
  P  P139  1  0.60498295  0.83409632  0.45434060  1
  P  P140  1  0.42135199  0.63121278  0.54775611  1
  P  P141  1  0.09923773  0.12402220  0.55071854  1
  P  P142  1  0.42565844  0.98463613  0.64397258  1
  P  P143  1  0.59829699  0.19520211  0.56111555  1
  P  P144  1  0.10164981  0.48576549  0.64388054  1
  P  P145  1  0.92701066  0.69073711  0.56103432  1
  P  P146  1  0.42495983  0.34937489  0.74123849  1
  P  P147  1  0.60463202  0.54929068  0.66162203  1
  P  P148  1  0.10380753  0.85223861  0.74006235  1
  P  P149  1  0.92313395  0.04763858  0.66250379  1
  P  P150  1  0.42378800  0.72199872  0.83857886  1
  P  P151  1  0.60156094  0.91641105  0.75869739  1
  P  P152  1  0.10232973  0.21644661  0.83839895  1
  P  P153  1  0.92461373  0.41379616  0.75851470  1
  P  P154  1  0.42838942  0.07988775  0.93272481  1
  P  P155  1  0.60414758  0.28398513  0.85686217  1
  P  P156  1  0.09575701  0.59126595  0.93423828  1
  P  P157  1  0.91943619  0.78342190  0.85388390  1
  P  P158  1  0.60223950  0.65280937  0.95424021  1
  P  P159  1  0.92766241  0.16064550  0.95478261  1
  S  S160  1  0.15417371  0.22901681  0.03560671  1
  S  S161  1  0.66116606  0.22020555  0.02901876  1
  S  S162  1  0.36399993  0.70663213  0.03953487  1
  S  S163  1  0.85277065  0.76269347  0.02757310  1
  S  S164  1  0.07302068  0.87252060  0.05414823  1
  S  S165  1  0.44335781  0.35841963  0.05276224  1
  S  S166  1  0.05974604  0.53182328  0.02445921  1
  S  S167  1  0.40508207  0.00499963  0.01963794  1
  S  S168  1  0.16034783  0.83990692  0.13910456  1
  S  S169  1  0.85808726  0.00915033  0.07244604  1
  S  S170  1  0.35032743  0.97361811  0.08243187  1
  S  S171  1  0.66305083  0.87260554  0.13082301  1
  S  S172  1  0.66763368  0.49455518  0.06690887  1
  S  S173  1  0.35767825  0.33924635  0.13821298  1
  S  S174  1  0.85421412  0.37690042  0.13154436  1
  S  S175  1  0.16672566  0.47739339  0.08205359  1
  S  S176  1  0.06755800  0.50558835  0.15316660  1
  S  S177  1  0.94545580  0.33486625  0.06648863  1
  S  S178  1  0.44966280  0.00218305  0.15260831  1
  S  S179  1  0.57157574  0.84673388  0.06264670  1
  S  S180  1  0.11958103  0.13499888  0.11246623  1
  S  S181  1  0.89653897  0.70189470  0.09150461  1
  S  S182  1  0.40270059  0.63127370  0.11110332  1
  S  S183  1  0.61809415  0.20718281  0.09375050  1
  S  S184  1  0.16602428  0.47454087  0.23213235  1
  S  S185  1  0.85297094  0.63522940  0.17476416  1
  S  S186  1  0.35959276  0.62269945  0.17493623  1
  S  S187  1  0.65718044  0.49119996  0.22746860  1
  S  S188  1  0.66428194  0.13272011  0.17374275  1
  S  S189  1  0.35254302  0.97473037  0.23245849  1
  S  S190  1  0.85986405  0.99137974  0.22806268  1
  S  S191  1  0.15917192  0.12326807  0.17619498  1
  S  S192  1  0.06981582  0.13261261  0.24837821  1
  S  S193  1  0.94647288  0.98527423  0.15511251  1
  S  S194  1  0.44838988  0.63269876  0.24811242  1
  S  S195  1  0.57334453  0.48352850  0.15419015  1
  S  S196  1  0.11452076  0.77335954  0.20982095  1
  S  S197  1  0.90402272  0.33273305  0.19521674  1
  S  S198  1  0.40391812  0.27273547  0.20943611  1
  S  S199  1  0.61346111  0.83180595  0.19476058  1
  S  S200  1  0.16729015  0.10911824  0.32813486  1
  S  S201  1  0.85436711  0.26637687  0.26753733  1
  S  S202  1  0.35960540  0.24421396  0.27340772  1
  S  S203  1  0.66865381  0.11433987  0.32437169  1
  S  S204  1  0.66423189  0.76522121  0.26735414  1
  S  S205  1  0.35692497  0.60950648  0.32786036  1
  S  S206  1  0.85677390  0.61872508  0.32553995  1
  S  S207  1  0.15946326  0.74285033  0.27359464  1
  S  S208  1  0.07287106  0.75224262  0.34413419  1
  S  S209  1  0.94993310  0.60538058  0.25254832  1
  S  S210  1  0.45569213  0.25142489  0.34306362  1
  S  S211  1  0.56900487  0.10638767  0.25211215  1
  S  S212  1  0.11557970  0.40910388  0.30800445  1
  S  S213  1  0.90743019  0.96958681  0.29184344  1
  S  S214  1  0.40610420  0.90966412  0.30750535  1
  S  S215  1  0.61148702  0.46876698  0.29145508  1
  S  S216  1  0.16430543  0.72758977  0.42222262  1
  S  S217  1  0.86262597  0.89312998  0.36524021  1
  S  S218  1  0.36405746  0.86795682  0.37175940  1
  S  S219  1  0.67253818  0.75200785  0.42149760  1
  S  S220  1  0.66786117  0.39084082  0.36350909  1
  S  S221  1  0.37751494  0.22583646  0.41760949  1
  S  S222  1  0.85824035  0.23989828  0.42321571  1
  S  S223  1  0.16157342  0.36702962  0.37200557  1
  S  S224  1  0.08193989  0.35866926  0.44562419  1
  S  S225  1  0.95086768  0.23512210  0.34943490  1
  S  S226  1  0.45181813  0.86788768  0.44508041  1
  S  S227  1  0.57420072  0.73803551  0.34826417  1
  S  S228  1  0.10751763  0.02882885  0.40277259  1
  S  S229  1  0.91040755  0.59562764  0.38906556  1
  S  S230  1  0.42698826  0.53125264  0.39782166  1
  S  S231  1  0.62082913  0.09427181  0.38796955  1
  S  S232  1  0.87187160  0.51237167  0.46278363  1
  S  S233  1  0.34329751  0.48302468  0.45832856  1
  S  S234  1  0.66298741  0.00960794  0.46506933  1
  S  S235  1  0.20070957  0.98696654  0.46271857  1
  S  S236  1  0.96339181  0.86376397  0.44941863  1
  S  S237  1  0.57701406  0.36870775  0.44443734  1
  S  S238  1  0.91879265  0.20594725  0.48618846  1
  S  S239  1  0.61932669  0.69969772  0.48431761  1
  S  S240  1  0.36477265  0.81319557  0.53706709  1
  S  S241  1  0.86017815  0.78220614  0.52898219  1
  S  S242  1  0.15753455  0.30020587  0.53933008  1
  S  S243  1  0.65938904  0.28185700  0.52877702  1
  S  S244  1  0.44600503  0.15106305  0.55451586  1
  S  S245  1  0.07741355  0.64908361  0.55277278  1
  S  S246  1  0.40070042  0.49892832  0.51930409  1
  S  S247  1  0.11855809  0.00103284  0.51943698  1
  S  S248  1  0.36183597  0.16594887  0.63865913  1
  S  S249  1  0.66437999  0.01440465  0.56986448  1
  S  S250  1  0.16864844  0.03641950  0.58254632  1
  S  S251  1  0.85883241  0.13304943  0.63010059  1
  S  S252  1  0.85821747  0.51245756  0.56894631  1
  S  S253  1  0.16305410  0.66727367  0.63742972  1
  S  S254  1  0.66661319  0.63087424  0.62842328  1
  S  S255  1  0.35333787  0.55349308  0.58107294  1
  S  S256  1  0.45437404  0.50424139  0.65165408  1
  S  S257  1  0.57214950  0.66745918  0.55947796  1
  S  S258  1  0.07255600  0.00343545  0.65188903  1
  S  S259  1  0.94810698  0.15893585  0.56173557  1
  S  S260  1  0.40630868  0.87449485  0.61095798  1
  S  S261  1  0.62187434  0.31145482  0.59370524  1
  S  S262  1  0.11884203  0.37284370  0.61112681  1
  S  S263  1  0.90365797  0.80463509  0.59374623  1
  S  S264  1  0.36205838  0.52972915  0.73412854  1
  S  S265  1  0.66977122  0.37489575  0.67289219  1
  S  S266  1  0.16630472  0.38589355  0.67476543  1
  S  S267  1  0.86269848  0.50848584  0.72679897  1
  S  S268  1  0.85723012  0.87203970  0.67253940  1
  S  S269  1  0.17005401  0.02880741  0.73094063  1
  S  S270  1  0.66004314  0.00245967  0.72556134  1
  S  S271  1  0.36352156  0.87947749  0.67453198  1
  S  S272  1  0.45181114  0.86811824  0.74873926  1
  S  S273  1  0.57717289  0.02166777  0.65416723  1
  S  S274  1  0.07489024  0.37146369  0.74720143  1
  S  S275  1  0.94995227  0.52142938  0.65453169  1
  S  S276  1  0.41001795  0.23570895  0.70848102  1
  S  S277  1  0.62248491  0.67586819  0.69243628  1
  S  S278  1  0.11859288  0.72945730  0.70862953  1
  S  S279  1  0.90782961  0.17283504  0.69400546  1
  S  S280  1  0.36057180  0.90093916  0.82996642  1
  S  S281  1  0.66962253  0.74170444  0.76866869  1
  S  S282  1  0.16445938  0.76118301  0.77238788  1
  S  S283  1  0.85913994  0.88602261  0.82286708  1
  S  S284  1  0.86124244  0.23430312  0.76669954  1
  S  S285  1  0.17119617  0.38998056  0.82789162  1
  S  S286  1  0.66575097  0.37123276  0.82418433  1
  S  S287  1  0.36109067  0.24903004  0.77213111  1
  S  S288  1  0.45464486  0.23994907  0.84519546  1
  S  S289  1  0.57500151  0.38861997  0.75298354  1
  S  S290  1  0.07136933  0.74813980  0.84324593  1
  S  S291  1  0.95387005  0.89665475  0.75098521  1
  S  S292  1  0.40718166  0.60179627  0.80684946  1
  S  S293  1  0.61852108  0.04150715  0.78976159  1
  S  S294  1  0.11917969  0.09176728  0.80724246  1
  S  S295  1  0.90997795  0.53128633  0.79064832  1
  S  S296  1  0.36805199  0.25819926  0.92258319  1
  S  S297  1  0.67033437  0.10911268  0.86694502  1
  S  S298  1  0.16023125  0.13118478  0.87172890  1
  S  S299  1  0.85928917  0.25555975  0.92354468  1
  S  S300  1  0.85833384  0.60097653  0.85962452  1
  S  S301  1  0.15294090  0.77561645  0.92262596  1
  S  S302  1  0.67473982  0.74755919  0.92337923  1
  S  S303  1  0.36159941  0.63050025  0.87077668  1
  S  S304  1  0.45120745  0.62193385  0.94339017  1
  S  S305  1  0.57484801  0.76269872  0.84927803  1
  S  S306  1  0.08248820  0.15277892  0.94490969  1
  S  S307  1  0.95267652  0.26478607  0.84833672  1
  S  S308  1  0.42714115  0.96206609  0.89996434  1
  S  S309  1  0.61759511  0.40859092  0.88813613  1
  S  S310  1  0.11212589  0.47362601  0.90160671  1
  S  S311  1  0.89469606  0.89411410  0.88660654  1
  S  S312  1  0.65885332  0.47389356  0.96285844  1
  S  S313  1  0.18068797  0.52029351  0.96400325  1
  S  S314  1  0.87869350  0.97638149  0.96166101  1
  S  S315  1  0.34550699  0.98706022  0.96113163  1
  S  S316  1  0.57262741  0.12374280  0.94808419  1
  S  S317  1  0.94559797  0.63033510  0.94400130  1
  S  S318  1  0.60983982  0.78005441  0.98587363  1
  S  S319  1  0.90822604  0.27963494  0.98706641  1
