# generated using pymatgen
data_Li3PS4
_symmetry_space_group_name_H-M   'P 1'
_cell_length_a   10.24241400
_cell_length_b   14.48086959
_cell_length_c   46.84114228
_cell_angle_alpha   90.00000000
_cell_angle_beta   90.00000000
_cell_angle_gamma   74.68014200
_symmetry_Int_Tables_number   1
_chemical_formula_structural   Li3PS4
_chemical_formula_sum   'Li120 P40 S160'
_cell_volume   6700.56347227
_cell_formula_units_Z   40
loop_
 _symmetry_equiv_pos_site_id
 _symmetry_equiv_pos_as_xyz
  1  'x, y, z'
loop_
 _atom_site_type_symbol
 _atom_site_label
 _atom_site_symmetry_multiplicity
 _atom_site_fract_x
 _atom_site_fract_y
 _atom_site_fract_z
 _atom_site_occupancy
  Li  Li0  1  0.67214177  0.80555905  0.04787198  1
  Li  Li1  1  0.70362691  0.09521593  0.05380444  1
  Li  Li2  1  0.63830340  0.56866345  0.08921956  1
  Li  Li3  1  0.72493868  0.35723875  0.03265118  1
  Li  Li4  1  0.16383876  0.25854939  0.07557787  1
  Li  Li5  1  0.21126827  0.62454698  0.04132096  1
  Li  Li6  1  0.50224073  0.93599084  0.99247862  1
  Li  Li7  1  0.94552832  0.50970694  0.04238003  1
  Li  Li8  1  0.33775370  0.42486989  0.05183929  1
  Li  Li9  1  0.18374861  0.96993670  0.03051133  1
  Li  Li10  1  0.38051457  0.67826202  0.14349597  1
  Li  Li11  1  0.38569010  0.98139229  0.16198870  1
  Li  Li12  1  0.32274157  0.45403932  0.18029123  1
  Li  Li13  1  0.44873318  0.18714184  0.12241072  1
  Li  Li14  1  0.83992329  0.13038336  0.17571618  1
  Li  Li15  1  0.94196246  0.53853924  0.12139040  1
  Li  Li16  1  0.01735288  0.05286098  0.09999125  1
  Li  Li17  1  0.08901277  0.73470847  0.09505151  1
  Li  Li18  1  0.48552216  0.90365741  0.10081085  1
  Li  Li19  1  0.57940415  0.36100414  0.11512165  1
  Li  Li20  1  0.95089488  0.33505235  0.15198726  1
  Li  Li21  1  0.87244692  0.83872263  0.13877771  1
  Li  Li22  1  0.06286497  0.54501503  0.23848728  1
  Li  Li23  1  0.06442308  0.85832566  0.26015013  1
  Li  Li24  1  0.99110821  0.33624211  0.28222659  1
  Li  Li25  1  0.13050582  0.06678955  0.21971319  1
  Li  Li26  1  0.51681984  0.00474246  0.27558636  1
  Li  Li27  1  0.61846693  0.40676152  0.22354853  1
  Li  Li28  1  0.68712993  0.92567544  0.20142226  1
  Li  Li29  1  0.76871502  0.60845831  0.19655425  1
  Li  Li30  1  0.17055887  0.77047537  0.20141796  1
  Li  Li31  1  0.24427798  0.24371350  0.21281905  1
  Li  Li32  1  0.60090444  0.21054578  0.25008038  1
  Li  Li33  1  0.57101623  0.69885236  0.25891286  1
  Li  Li34  1  0.72689309  0.43113494  0.33991017  1
  Li  Li35  1  0.74325596  0.73316448  0.35382249  1
  Li  Li36  1  0.67763797  0.22085801  0.37972465  1
  Li  Li37  1  0.81666093  0.95256245  0.31917589  1
  Li  Li38  1  0.20131278  0.87590942  0.37651574  1
  Li  Li39  1  0.29319625  0.27147388  0.32341745  1
  Li  Li40  1  0.34752870  0.80802393  0.30159862  1
  Li  Li41  1  0.43133643  0.47746970  0.29725128  1
  Li  Li42  1  0.95135165  0.63413021  0.29649015  1
  Li  Li43  1  0.89547012  0.15331657  0.29489218  1
  Li  Li44  1  0.20199876  0.07062552  0.34997110  1
  Li  Li45  1  0.23973736  0.57638994  0.35758854  1
  Li  Li46  1  0.40131114  0.31172044  0.43741308  1
  Li  Li47  1  0.40286094  0.61796033  0.46977748  1
  Li  Li48  1  0.36176776  0.10986758  0.48116660  1
  Li  Li49  1  0.53646530  0.83740747  0.41337342  1
  Li  Li50  1  0.98857447  0.68398057  0.48718887  1
  Li  Li51  1  0.96317736  0.16308899  0.42600870  1
  Li  Li52  1  0.02714788  0.69223660  0.39942913  1
  Li  Li53  1  0.11656804  0.34690618  0.39154753  1
  Li  Li54  1  0.51851356  0.53170185  0.40258264  1
  Li  Li55  1  0.57175841  0.04122095  0.39080300  1
  Li  Li56  1  0.88286011  0.95135205  0.44620351  1
  Li  Li57  1  0.88411232  0.46463846  0.43327841  1
  Li  Li58  1  0.72477778  0.56496494  0.49521837  1
  Li  Li59  1  0.28953785  0.90452567  0.47495891  1
  Li  Li60  1  0.09075690  0.52965089  0.54770991  1
  Li  Li61  1  0.06429112  0.22851015  0.55566225  1
  Li  Li62  1  0.13920796  0.75540269  0.59054154  1
  Li  Li63  1  0.05107650  0.96549444  0.53512511  1
  Li  Li64  1  0.60693056  0.06918003  0.57550070  1
  Li  Li65  1  0.56526849  0.69910705  0.54069894  1
  Li  Li66  1  0.19522959  0.39598535  0.49630830  1
  Li  Li67  1  0.82073099  0.81629550  0.54499617  1
  Li  Li68  1  0.43903604  0.90290706  0.55091703  1
  Li  Li69  1  0.58306101  0.35778107  0.53043948  1
  Li  Li70  1  0.39507841  0.64544744  0.64406323  1
  Li  Li71  1  0.38812411  0.34307075  0.66170090  1
  Li  Li72  1  0.45306069  0.86931011  0.68045614  1
  Li  Li73  1  0.32790032  0.13557604  0.62255178  1
  Li  Li74  1  0.93599277  0.19416156  0.67663172  1
  Li  Li75  1  0.83206959  0.78468080  0.62196507  1
  Li  Li76  1  0.75508889  0.27067072  0.60026605  1
  Li  Li77  1  0.68661029  0.58648310  0.59480579  1
  Li  Li78  1  0.27999626  0.42040016  0.59994520  1
  Li  Li79  1  0.19229570  0.96158542  0.61564853  1
  Li  Li80  1  0.82557371  0.98893559  0.65273039  1
  Li  Li81  1  0.90251589  0.48325405  0.63883865  1
  Li  Li82  1  0.71344293  0.77853156  0.73840795  1
  Li  Li83  1  0.71416397  0.46361597  0.76025555  1
  Li  Li84  1  0.78167024  0.98608292  0.78156159  1
  Li  Li85  1  0.63906182  0.25699374  0.71912912  1
  Li  Li86  1  0.26177219  0.32603475  0.77682425  1
  Li  Li87  1  0.15666567  0.92205793  0.72424661  1
  Li  Li88  1  0.08965429  0.39767952  0.70159617  1
  Li  Li89  1  0.00307653  0.71601083  0.69638982  1
  Li  Li90  1  0.60646875  0.55248944  0.70163459  1
  Li  Li91  1  0.53408563  0.08046106  0.71093404  1
  Li  Li92  1  0.23393406  0.12984791  0.75128421  1
  Li  Li93  1  0.20683941  0.62451056  0.75770599  1
  Li  Li94  1  0.05075179  0.89338502  0.83935130  1
  Li  Li95  1  0.03753725  0.59049543  0.85321993  1
  Li  Li96  1  0.08958572  0.10398882  0.87899918  1
  Li  Li97  1  0.96707972  0.37045675  0.82120423  1
  Li  Li98  1  0.57365738  0.45010766  0.87723454  1
  Li  Li99  1  0.48626919  0.05189550  0.82439032  1
  Li  Li100  1  0.42950317  0.51513708  0.80139125  1
  Li  Li101  1  0.34501455  0.84613087  0.79654942  1
  Li  Li102  1  0.82786263  0.68802225  0.79625396  1
  Li  Li103  1  0.89005583  0.16324474  0.79026275  1
  Li  Li104  1  0.58787857  0.25357740  0.85102936  1
  Li  Li105  1  0.53763275  0.74634835  0.85588496  1
  Li  Li106  1  0.37694361  0.01205718  0.93485264  1
  Li  Li107  1  0.37356562  0.69630995  0.96763131  1
  Li  Li108  1  0.41033505  0.21856542  0.98090560  1
  Li  Li109  1  0.21435399  0.47636347  0.91228778  1
  Li  Li110  1  0.79607259  0.69300159  0.99618117  1
  Li  Li111  1  0.81722641  0.16998313  0.92928301  1
  Li  Li112  1  0.74759218  0.63035255  0.89753880  1
  Li  Li113  1  0.66567828  0.97656614  0.89131242  1
  Li  Li114  1  0.25647440  0.79034176  0.90162911  1
  Li  Li115  1  0.20665977  0.27537604  0.89024545  1
  Li  Li116  1  0.83874345  0.51763228  0.95373447  1
  Li  Li117  1  0.89467141  0.85792220  0.93353209  1
  Li  Li118  1  0.06116630  0.76432684  0.99673901  1
  Li  Li119  1  0.48111394  0.42353367  0.97259194  1
  P  P120  1  0.93496677  0.86866912  0.05010154  1
  P  P121  1  0.43144088  0.05219685  0.04842547  1
  P  P122  1  0.57642518  0.56524492  0.02637677  1
  P  P123  1  0.86991590  0.31179276  0.08763714  1
  P  P124  1  0.63174524  0.74133466  0.14965942  1
  P  P125  1  0.13572403  0.91842090  0.14931138  1
  P  P126  1  0.24993170  0.45776789  0.11694720  1
  P  P127  1  0.53437718  0.19666831  0.18356452  1
  P  P128  1  0.30847684  0.61429628  0.24921569  1
  P  P129  1  0.81625616  0.79339450  0.24956110  1
  P  P130  1  0.92069105  0.32990770  0.21945835  1
  P  P131  1  0.20892345  0.07406482  0.28137132  1
  P  P132  1  0.98592868  0.49002099  0.34788225  1
  P  P133  1  0.48443369  0.67199838  0.34680793  1
  P  P134  1  0.59675070  0.20885897  0.31801781  1
  P  P135  1  0.89580635  0.95433370  0.38150629  1
  P  P136  1  0.65365112  0.37046901  0.44845964  1
  P  P137  1  0.14535082  0.54065448  0.44139695  1
  P  P138  1  0.27220931  0.08595617  0.41725869  1
  P  P139  1  0.59071087  0.83635811  0.47820270  1
  P  P140  1  0.83982709  0.45296464  0.54982419  1
  P  P141  1  0.33509404  0.27217932  0.54839250  1
  P  P142  1  0.19802861  0.76089991  0.52821345  1
  P  P143  1  0.90104001  0.01316059  0.58838621  1
  P  P144  1  0.14232150  0.58237989  0.64981996  1
  P  P145  1  0.63722267  0.40553533  0.64924913  1
  P  P146  1  0.52546350  0.86683486  0.61674946  1
  P  P147  1  0.24250523  0.12839108  0.68361740  1
  P  P148  1  0.46831615  0.70922295  0.74916814  1
  P  P149  1  0.96045772  0.53009264  0.74970974  1
  P  P150  1  0.85249258  0.99335833  0.71976439  1
  P  P151  1  0.56750916  0.24765983  0.78177396  1
  P  P152  1  0.79305273  0.83238768  0.84786632  1
  P  P153  1  0.29361451  0.65118497  0.84629468  1
  P  P154  1  0.18287851  0.11456915  0.81782570  1
  P  P155  1  0.88549353  0.36971314  0.88381186  1
  P  P156  1  0.12698742  0.95079902  0.94798809  1
  P  P157  1  0.62733046  0.78022722  0.94115552  1
  P  P158  1  0.50540630  0.23629412  0.91756215  1
  P  P159  1  0.17943418  0.48676036  0.97866232  1
  S  S160  1  0.13886976  0.79722996  0.04714289  1
  S  S161  1  0.23366067  0.12339651  0.04592748  1
  S  S162  1  0.39877760  0.66519775  0.02044908  1
  S  S163  1  0.71499047  0.25348708  0.07735522  1
  S  S164  1  0.72214358  0.62773546  0.04354213  1
  S  S165  1  0.83349240  0.85030863  0.01352739  1
  S  S166  1  0.43944555  0.90765657  0.04506802  1
  S  S167  1  0.93728331  0.00957910  0.05309728  1
  S  S168  1  0.66639917  0.48155706  0.99220331  1
  S  S169  1  0.85023951  0.81354688  0.08365052  1
  S  S170  1  0.54078315  0.09002730  0.01524762  1
  S  S171  1  0.54376014  0.47314733  0.05713561  1
  S  S172  1  0.95545625  0.34384817  0.05027076  1
  S  S173  1  0.83675014  0.67577755  0.15136664  1
  S  S174  1  0.93528865  0.99070244  0.14485057  1
  S  S175  1  0.13425280  0.55181337  0.08664295  1
  S  S176  1  0.01547236  0.22142566  0.11174404  1
  S  S177  1  0.36866049  0.15385237  0.16997279  1
  S  S178  1  0.40639765  0.50366015  0.13385646  1
  S  S179  1  0.53047306  0.06464286  0.08619877  1
  S  S180  1  0.54154918  0.72651505  0.11115072  1
  S  S181  1  0.14258067  0.77383170  0.14435064  1
  S  S182  1  0.61878409  0.88756543  0.15272124  1
  S  S183  1  0.79156663  0.43070315  0.11381923  1
  S  S184  1  0.33733097  0.33266364  0.09472219  1
  S  S185  1  0.53773782  0.68875913  0.18147661  1
  S  S186  1  0.24256464  0.97238156  0.11978684  1
  S  S187  1  0.12772477  0.44251904  0.14995541  1
  S  S188  1  0.64074280  0.22044014  0.14857503  1
  S  S189  1  0.51032594  0.54452991  0.25364954  1
  S  S190  1  0.61359755  0.86016597  0.24606703  1
  S  S191  1  0.80178264  0.42884581  0.19253690  1
  S  S192  1  0.66636441  0.09982702  0.20911053  1
  S  S193  1  0.04793255  0.02918746  0.26574898  1
  S  S194  1  0.07968101  0.37329352  0.23670753  1
  S  S195  1  0.21604122  0.92655528  0.18921518  1
  S  S196  1  0.22844148  0.59748138  0.20965517  1
  S  S197  1  0.83030869  0.64772475  0.24562925  1
  S  S198  1  0.29680213  0.75928174  0.25262820  1
  S  S199  1  0.45409201  0.31624164  0.20915552  1
  S  S200  1  0.00847181  0.21299150  0.19372119  1
  S  S201  1  0.20479835  0.56078465  0.27964100  1
  S  S202  1  0.91795995  0.84738105  0.21882704  1
  S  S203  1  0.80427189  0.30298057  0.25270114  1
  S  S204  1  0.32074355  0.10041902  0.24752983  1
  S  S205  1  0.18892329  0.42015268  0.34969424  1
  S  S206  1  0.28066193  0.73917469  0.34483395  1
  S  S207  1  0.46747133  0.30242199  0.29115811  1
  S  S208  1  0.33593467  0.97853058  0.30789103  1
  S  S209  1  0.73652029  0.90719910  0.36560640  1
  S  S210  1  0.75708871  0.25615376  0.33245254  1
  S  S211  1  0.89852136  0.80818789  0.28893330  1
  S  S212  1  0.89538573  0.48031939  0.30928533  1
  S  S213  1  0.49339174  0.52665485  0.34435933  1
  S  S214  1  0.97851323  0.63496604  0.35147189  1
  S  S215  1  0.12187055  0.19119413  0.30734606  1
  S  S216  1  0.68348857  0.09117157  0.29192262  1
  S  S217  1  0.88470944  0.43540968  0.37838070  1
  S  S218  1  0.58276685  0.72467221  0.31510375  1
  S  S219  1  0.48878697  0.18013752  0.35199752  1
  S  S220  1  0.00653967  0.97987969  0.34754867  1
  S  S221  1  0.85662163  0.31100690  0.45043265  1
  S  S222  1  0.94480232  0.61693824  0.43870635  1
  S  S223  1  0.13433503  0.17720669  0.39125314  1
  S  S224  1  0.02158250  0.85953892  0.40872349  1
  S  S225  1  0.46221383  0.77356010  0.45660332  1
  S  S226  1  0.42958384  0.13618300  0.43133151  1
  S  S227  1  0.57511475  0.68588286  0.38493590  1
  S  S228  1  0.57003674  0.35677849  0.40864120  1
  S  S229  1  0.16003935  0.39548528  0.43858447  1
  S  S230  1  0.62936611  0.51937954  0.45143922  1
  S  S231  1  0.80441962  0.07267693  0.40686600  1
  S  S232  1  0.35938180  0.97001717  0.39088623  1
  S  S233  1  0.54781492  0.31925936  0.47826369  1
  S  S234  1  0.25498770  0.59739516  0.41249993  1
  S  S235  1  0.16702545  0.05774531  0.45222963  1
  S  S236  1  0.69635277  0.88135111  0.44715532  1
  S  S237  1  0.72069322  0.73939916  0.50559126  1
  S  S238  1  0.21045417  0.56014859  0.48136265  1
  S  S239  1  0.47847398  0.94770445  0.50324464  1
  S  S240  1  0.63707206  0.52700924  0.54640508  1
  S  S241  1  0.53316430  0.20211543  0.54502831  1
  S  S242  1  0.37160058  0.65693938  0.52233871  1
  S  S243  1  0.05649175  0.07125286  0.57845483  1
  S  S244  1  0.04783307  0.70324451  0.54502739  1
  S  S245  1  0.94119843  0.47719053  0.51394490  1
  S  S246  1  0.32279211  0.41672389  0.54433122  1
  S  S247  1  0.83239854  0.31312342  0.55287275  1
  S  S248  1  0.10772446  0.84233125  0.49367177  1
  S  S249  1  0.92391000  0.50666654  0.58389167  1
  S  S250  1  0.22337764  0.22979397  0.51627125  1
  S  S251  1  0.23757590  0.85184054  0.55853603  1
  S  S252  1  0.81683774  0.98184685  0.55074180  1
  S  S253  1  0.93693394  0.64730280  0.65136621  1
  S  S254  1  0.83745579  0.33202106  0.64513153  1
  S  S255  1  0.64211139  0.77218289  0.58658729  1
  S  S256  1  0.75484594  0.10277665  0.61241032  1
  S  S257  1  0.40731664  0.17153211  0.66945522  1
  S  S258  1  0.36942617  0.82032403  0.63374464  1
  S  S259  1  0.24157154  0.25846419  0.58678707  1
  S  S260  1  0.23374638  0.59699715  0.61149742  1
  S  S261  1  0.63242452  0.54974422  0.64438388  1
  S  S262  1  0.15501979  0.43616946  0.65284476  1
  S  S263  1  0.98061709  0.89360569  0.61424340  1
  S  S264  1  0.43764850  0.99169488  0.59448393  1
  S  S265  1  0.23510001  0.63556031  0.68171834  1
  S  S266  1  0.52980945  0.35300009  0.61952410  1
  S  S267  1  0.64621405  0.88275662  0.64991912  1
  S  S268  1  0.13472696  0.10398159  0.64899288  1
  S  S269  1  0.26641435  0.77914175  0.75324935  1
  S  S270  1  0.16328500  0.46417090  0.74572948  1
  S  S271  1  0.97382934  0.89478306  0.69304979  1
  S  S272  1  0.11290619  0.22429737  0.70969840  1
  S  S273  1  0.72581308  0.29258364  0.76482674  1
  S  S274  1  0.69165650  0.95009512  0.73611233  1
  S  S275  1  0.55617155  0.39825253  0.68915114  1
  S  S276  1  0.54851922  0.72573440  0.70960837  1
  S  S277  1  0.94558851  0.67589240  0.74582580  1
  S  S278  1  0.48073924  0.56402577  0.75256877  1
  S  S279  1  0.32551695  0.00889787  0.70909102  1
  S  S280  1  0.76588442  0.11058387  0.69379878  1
  S  S281  1  0.57228653  0.76253977  0.77961862  1
  S  S282  1  0.85851584  0.47609259  0.71900075  1
  S  S283  1  0.96798567  0.02046125  0.75279072  1
  S  S284  1  0.45134996  0.22221473  0.74809014  1
  S  S285  1  0.59037215  0.90232774  0.85021823  1
  S  S286  1  0.49747188  0.58408714  0.84420114  1
  S  S287  1  0.31584764  0.02062580  0.79155240  1
  S  S288  1  0.44441376  0.34390540  0.80865233  1
  S  S289  1  0.04426169  0.42050083  0.86829432  1
  S  S290  1  0.02021060  0.06753921  0.83079650  1
  S  S291  1  0.88049555  0.51333506  0.78915919  1
  S  S292  1  0.88126204  0.84374780  0.80917391  1
  S  S293  1  0.28423176  0.79675657  0.84394008  1
  S  S294  1  0.80117645  0.68728319  0.85096418  1
  S  S295  1  0.65693916  0.13096094  0.80736820  1
  S  S296  1  0.09958212  0.23397497  0.79213745  1
  S  S297  1  0.89647888  0.88498289  0.87845876  1
  S  S298  1  0.19509791  0.59911861  0.81448802  1
  S  S299  1  0.28842236  0.14032062  0.85253756  1
  S  S300  1  0.77414323  0.34903484  0.84901872  1
  S  S301  1  0.92555721  0.01211929  0.95108495  1
  S  S302  1  0.82901651  0.70040487  0.94017511  1
  S  S303  1  0.64969833  0.14603260  0.89256945  1
  S  S304  1  0.75204755  0.46601487  0.90967930  1
  S  S305  1  0.29744617  0.54926775  0.95375141  1
  S  S306  1  0.34777025  0.18466826  0.93096285  1
  S  S307  1  0.20613503  0.63513434  0.88458117  1
  S  S308  1  0.20632655  0.96534388  0.90792571  1
  S  S309  1  0.61922059  0.92385706  0.93783666  1
  S  S310  1  0.14866117  0.80239324  0.95123823  1
  S  S311  1  0.97828413  0.24942431  0.90681744  1
  S  S312  1  0.41773768  0.35180851  0.89120576  1
  S  S313  1  0.23660467  0.00181122  0.97772024  1
  S  S314  1  0.52130819  0.72318305  0.91183322  1
  S  S315  1  0.60400767  0.26675472  0.95312591  1
  S  S316  1  0.07018595  0.42697308  0.95204117  1
  S  S317  1  0.05519216  0.58843982  0.00607422  1
  S  S318  1  0.55672840  0.76394849  0.98083009  1
  S  S319  1  0.30305005  0.38179351  0.00408109  1
