# generated using pymatgen
data_Li31P9S38
_symmetry_space_group_name_H-M   'P 1'
_cell_length_a   10.24241400
_cell_length_b   14.48086959
_cell_length_c   44.54153511
_cell_angle_alpha   90.00000000
_cell_angle_beta   90.00000000
_cell_angle_gamma   74.68014200
_symmetry_Int_Tables_number   1
_chemical_formula_structural   Li31P9S38
_chemical_formula_sum   'Li124 P36 S152'
_cell_volume   6371.60770736
_cell_formula_units_Z   4
loop_
 _symmetry_equiv_pos_site_id
 _symmetry_equiv_pos_as_xyz
  1  'x, y, z'
loop_
 _atom_site_type_symbol
 _atom_site_label
 _atom_site_symmetry_multiplicity
 _atom_site_fract_x
 _atom_site_fract_y
 _atom_site_fract_z
 _atom_site_occupancy
  Li  Li0  1  0.81414397  0.75772872  0.04547610  1
  Li  Li1  1  0.81329897  0.08100314  0.05582898  1
  Li  Li2  1  0.66268393  0.55904044  0.07104524  1
  Li  Li3  1  0.70546446  0.54521449  0.01136074  1
  Li  Li4  1  0.22413607  0.21546022  0.07490304  1
  Li  Li5  1  0.37761056  0.66169889  0.00226019  1
  Li  Li6  1  0.42827923  0.12198285  0.00384809  1
  Li  Li7  1  0.18463793  0.68010686  0.09364782  1
  Li  Li8  1  0.89484952  0.95741458  0.00281802  1
  Li  Li9  1  0.03183138  0.47121271  0.03802885  1
  Li  Li10  1  0.33996169  0.43806775  0.04006872  1
  Li  Li11  1  0.33645163  0.89366333  0.06099378  1
  Li  Li12  1  0.45341494  0.63250975  0.13983651  1
  Li  Li13  1  0.46070618  0.94811433  0.15755773  1
  Li  Li14  1  0.39537589  0.42038465  0.17377530  1
  Li  Li15  1  0.53369724  0.16708924  0.11318331  1
  Li  Li16  1  0.90535353  0.08975941  0.17360400  1
  Li  Li17  1  0.93081358  0.54792037  0.09591051  1
  Li  Li18  1  0.06680117  0.00070373  0.09891582  1
  Li  Li19  1  0.84375290  0.55482918  0.19392081  1
  Li  Li20  1  0.67566664  0.85154273  0.09911841  1
  Li  Li21  1  0.59171493  0.38637717  0.07719678  1
  Li  Li22  1  0.90134879  0.28839209  0.13989280  1
  Li  Li23  1  0.96952783  0.77614200  0.15986584  1
  Li  Li24  1  0.13061994  0.50953096  0.24014620  1
  Li  Li25  1  0.13823034  0.81766793  0.25998900  1
  Li  Li26  1  0.07119790  0.28217521  0.27984168  1
  Li  Li27  1  0.19411644  0.04107796  0.22121114  1
  Li  Li28  1  0.58007108  0.96805001  0.27884776  1
  Li  Li29  1  0.68156270  0.36749081  0.22027787  1
  Li  Li30  1  0.75106513  0.89577728  0.20426380  1
  Li  Li31  1  0.52022763  0.43035964  0.29616574  1
  Li  Li32  1  0.33708185  0.72317128  0.19810827  1
  Li  Li33  1  0.28133270  0.24743822  0.18782162  1
  Li  Li34  1  0.68882912  0.17008621  0.25055817  1
  Li  Li35  1  0.63236117  0.66593176  0.24220423  1
  Li  Li36  1  0.80640765  0.37757839  0.34107578  1
  Li  Li37  1  0.81582804  0.68914199  0.36524454  1
  Li  Li38  1  0.73695761  0.14844816  0.38844196  1
  Li  Li39  1  0.87300854  0.89926830  0.32546080  1
  Li  Li40  1  0.27491574  0.84547519  0.37741354  1
  Li  Li41  1  0.36395685  0.23737908  0.32354751  1
  Li  Li42  1  0.44465088  0.76491264  0.30381515  1
  Li  Li43  1  0.19690732  0.30706787  0.39806930  1
  Li  Li44  1  0.92297207  0.60356232  0.30269916  1
  Li  Li45  1  0.98826181  0.07838424  0.31474246  1
  Li  Li46  1  0.36327998  0.04743698  0.35665735  1
  Li  Li47  1  0.30438255  0.54267074  0.33899450  1
  Li  Li48  1  0.46257247  0.26625646  0.44675657  1
  Li  Li49  1  0.48172492  0.56989682  0.46032265  1
  Li  Li50  1  0.57152817  0.78977054  0.49455695  1
  Li  Li51  1  0.56631099  0.75844660  0.43227954  1
  Li  Li52  1  0.84130367  0.61155170  0.48656308  1
  Li  Li53  1  0.03993103  0.10500814  0.43066339  1
  Li  Li54  1  0.13908990  0.63433328  0.40153733  1
  Li  Li55  1  0.79543193  0.16647890  0.50026254  1
  Li  Li56  1  0.62256327  0.46922646  0.40283828  1
  Li  Li57  1  0.68988714  0.92523222  0.43092342  1
  Li  Li58  1  0.99600791  0.74930793  0.45517042  1
  Li  Li59  1  0.96480466  0.42806328  0.43599893  1
  Li  Li60  1  0.13125453  0.42680150  0.50825127  1
  Li  Li61  1  0.27145676  0.86563320  0.44803021  1
  Li  Li62  1  0.90697559  0.04101251  0.54559280  1
  Li  Li63  1  0.91228123  0.71829004  0.55509882  1
  Li  Li64  1  0.06164668  0.24019829  0.57133992  1
  Li  Li65  1  0.01732421  0.25293837  0.51176599  1
  Li  Li66  1  0.50163220  0.58493649  0.57569091  1
  Li  Li67  1  0.34421244  0.13786849  0.50235204  1
  Li  Li68  1  0.29605204  0.67920344  0.50336008  1
  Li  Li69  1  0.53875037  0.11659786  0.59316812  1
  Li  Li70  1  0.82803661  0.84170893  0.50253883  1
  Li  Li71  1  0.69246834  0.32937740  0.53873056  1
  Li  Li72  1  0.38377177  0.35958207  0.54013354  1
  Li  Li73  1  0.38502543  0.90522082  0.56141811  1
  Li  Li74  1  0.26881981  0.16815816  0.63976988  1
  Li  Li75  1  0.26070453  0.85256407  0.65711629  1
  Li  Li76  1  0.33033195  0.37696938  0.67384186  1
  Li  Li77  1  0.18699920  0.63199120  0.61229462  1
  Li  Li78  1  0.82133897  0.70939560  0.67523815  1
  Li  Li79  1  0.78994341  0.25162581  0.59623158  1
  Li  Li80  1  0.66179401  0.79987558  0.59916601  1
  Li  Li81  1  0.88005052  0.24741873  0.69403641  1
  Li  Li82  1  0.04680161  0.94778850  0.59927194  1
  Li  Li83  1  0.13062955  0.41468478  0.57626115  1
  Li  Li84  1  0.82205759  0.51011991  0.64069191  1
  Li  Li85  1  0.75336979  0.02381217  0.66026954  1
  Li  Li86  1  0.59479281  0.28931035  0.74007968  1
  Li  Li87  1  0.58392335  0.98580268  0.75999352  1
  Li  Li88  1  0.64370692  0.50680658  0.77834064  1
  Li  Li89  1  0.52251283  0.75884653  0.71875712  1
  Li  Li90  1  0.14307846  0.84173975  0.78155241  1
  Li  Li91  1  0.04193359  0.44438875  0.72300796  1
  Li  Li92  1  0.97289246  0.90227370  0.70462349  1
  Li  Li93  1  0.20200182  0.37068553  0.79618849  1
  Li  Li94  1  0.38569580  0.07823827  0.69795091  1
  Li  Li95  1  0.44560823  0.55029830  0.68418925  1
  Li  Li96  1  0.14848778  0.64453170  0.74994280  1
  Li  Li97  1  0.09025551  0.13579626  0.74228197  1
  Li  Li98  1  0.91816467  0.42427949  0.84164293  1
  Li  Li99  1  0.90924799  0.10982430  0.86519750  1
  Li  Li100  1  0.97650635  0.65163818  0.88545386  1
  Li  Li101  1  0.84181413  0.88846859  0.82517685  1
  Li  Li102  1  0.44652425  0.96630224  0.88045702  1
  Li  Li103  1  0.35962175  0.57195123  0.82710225  1
  Li  Li104  1  0.28219556  0.03436090  0.80390483  1
  Li  Li105  1  0.52615536  0.49109503  0.89861717  1
  Li  Li106  1  0.80291248  0.19528682  0.80281642  1
  Li  Li107  1  0.76950951  0.68054949  0.79174297  1
  Li  Li108  1  0.46393603  0.76193828  0.85592224  1
  Li  Li109  1  0.42031640  0.25841997  0.83908035  1
  Li  Li110  1  0.25469447  0.53752929  0.94478337  1
  Li  Li111  1  0.23986756  0.23091859  0.96163213  1
  Li  Li112  1  0.15161439  0.01081311  0.99492509  1
  Li  Li113  1  0.15794620  0.04162707  0.93305097  1
  Li  Li114  1  0.88514954  0.19010361  0.98651157  1
  Li  Li115  1  0.68428943  0.69241314  0.93199714  1
  Li  Li116  1  0.58543889  0.16705313  0.90246492  1
  Li  Li117  1  0.92858881  0.63368801  0.00000956  1
  Li  Li118  1  0.10644113  0.32975242  0.90299972  1
  Li  Li119  1  0.03210733  0.87318272  0.93021189  1
  Li  Li120  1  0.72869301  0.05386716  0.95638373  1
  Li  Li121  1  0.75557059  0.37659009  0.93705288  1
  Li  Li122  1  0.59701627  0.36876407  0.00940476  1
  Li  Li123  1  0.45266005  0.93301515  0.94979649  1
  P  P124  1  0.06148041  0.82077319  0.04565482  1
  P  P125  1  0.57070742  0.99551718  0.05099526  1
  P  P126  1  0.91841382  0.28495067  0.06666275  1
  P  P127  1  0.70056991  0.70113744  0.14921908  1
  P  P128  1  0.20768162  0.87955132  0.14954908  1
  P  P129  1  0.30631025  0.41878042  0.11026187  1
  P  P130  1  0.60329037  0.16550071  0.17895546  1
  P  P131  1  0.38841134  0.57147012  0.24985405  1
  P  P132  1  0.88303543  0.75317583  0.25008940  1
  P  P133  1  0.98277196  0.29236122  0.21416405  1
  P  P134  1  0.28132430  0.03216795  0.28590172  1
  P  P135  1  0.06203724  0.44445023  0.35046716  1
  P  P136  1  0.56626734  0.62401825  0.35194066  1
  P  P137  1  0.66521000  0.16302248  0.32197424  1
  P  P138  1  0.96072912  0.90563417  0.39014385  1
  P  P139  1  0.72349682  0.32824144  0.45598255  1
  P  P140  1  0.23630234  0.49070980  0.45312182  1
  P  P141  1  0.34386688  0.04912667  0.43146932  1
  P  P142  1  0.66162697  0.97688350  0.54530444  1
  P  P143  1  0.15159416  0.80479047  0.55072739  1
  P  P144  1  0.80654448  0.51480273  0.56711673  1
  P  P145  1  0.02234893  0.09906414  0.64939659  1
  P  P146  1  0.51570996  0.92057187  0.64955007  1
  P  P147  1  0.41721074  0.37986739  0.60992945  1
  P  P148  1  0.12354828  0.63518943  0.67851420  1
  P  P149  1  0.33505639  0.22977299  0.74986533  1
  P  P150  1  0.84206065  0.04608498  0.75031543  1
  P  P151  1  0.73619980  0.50908613  0.71453550  1
  P  P152  1  0.44511603  0.76807661  0.78463278  1
  P  P153  1  0.66255075  0.35546929  0.85086213  1
  P  P154  1  0.15816518  0.17629478  0.85187929  1
  P  P155  1  0.06100530  0.63855069  0.82067893  1
  P  P156  1  0.75576853  0.89428836  0.89133907  1
  P  P157  1  0.99879517  0.47109206  0.95526601  1
  P  P158  1  0.48400345  0.31142489  0.95376629  1
  P  P159  1  0.37960687  0.75211577  0.93140405  1
  S  S160  1  0.26238540  0.74811560  0.04811894  1
  S  S161  1  0.36763021  0.06222354  0.05189808  1
  S  S162  1  0.17721106  0.51551866  0.08148705  1
  S  S163  1  0.77191091  0.24545649  0.04081994  1
  S  S164  1  0.84225559  0.59514812  0.04542191  1
  S  S165  1  0.66857467  0.02140124  0.08909853  1
  S  S166  1  0.96985403  0.79189923  0.00707526  1
  S  S167  1  0.58234343  0.85281938  0.04757525  1
  S  S168  1  0.05224359  0.96804244  0.04472355  1
  S  S169  1  0.39789925  0.30388192  0.08217149  1
  S  S170  1  0.96578984  0.79170791  0.08303367  1
  S  S171  1  0.66411712  0.04570323  0.01532375  1
  S  S172  1  0.51737653  0.51321530  0.03467722  1
  S  S173  1  0.06330919  0.30397626  0.03798366  1
  S  S174  1  0.90154964  0.62623298  0.14803900  1
  S  S175  1  0.00339777  0.94102524  0.14738283  1
  S  S176  1  0.85558073  0.38820782  0.18600482  1
  S  S177  1  0.01268349  0.17977222  0.09687906  1
  S  S178  1  0.44613649  0.11995260  0.16087206  1
  S  S179  1  0.46623690  0.46931600  0.12452151  1
  S  S180  1  0.29695412  0.89749107  0.18970234  1
  S  S181  1  0.60495838  0.69544617  0.10941367  1
  S  S182  1  0.22556495  0.73269834  0.14622432  1
  S  S183  1  0.69680138  0.84458151  0.15475358  1
  S  S184  1  0.82166220  0.39727065  0.09445179  1
  S  S185  1  0.07211466  0.17429655  0.18785155  1
  S  S186  1  0.60495572  0.64439710  0.18249903  1
  S  S187  1  0.30113826  0.93783951  0.11657606  1
  S  S188  1  0.20253247  0.38816848  0.14562234  1
  S  S189  1  0.71881139  0.19182152  0.14412271  1
  S  S190  1  0.59190564  0.50582203  0.25280957  1
  S  S191  1  0.68002111  0.82287278  0.24806528  1
  S  S192  1  0.54920719  0.25870288  0.29205945  1
  S  S193  1  0.72735699  0.06687538  0.20708090  1
  S  S194  1  0.11850625  0.98770115  0.27064716  1
  S  S195  1  0.14202977  0.33834014  0.23077398  1
  S  S196  1  0.97095061  0.76331757  0.29093283  1
  S  S197  1  0.30252848  0.55849191  0.20896953  1
  S  S198  1  0.89374919  0.60811514  0.24496596  1
  S  S199  1  0.37400698  0.71746423  0.25433029  1
  S  S200  1  0.51418361  0.28278095  0.20546908  1
  S  S201  1  0.75538803  0.04386972  0.29603347  1
  S  S202  1  0.28724310  0.51581589  0.28183202  1
  S  S203  1  0.98441734  0.80774041  0.21793507  1
  S  S204  1  0.87290099  0.26569993  0.25019118  1
  S  S205  1  0.38726497  0.06338466  0.25071097  1
  S  S206  1  0.26540017  0.38050622  0.35334954  1
  S  S207  1  0.36401371  0.69545309  0.34839625  1
  S  S208  1  0.22554268  0.13537702  0.39938002  1
  S  S209  1  0.41067704  0.93552784  0.31398006  1
  S  S210  1  0.80164437  0.85634836  0.37603615  1
  S  S211  1  0.82177460  0.20621810  0.34111404  1
  S  S212  1  0.64891440  0.63300339  0.39328431  1
  S  S213  1  0.97399527  0.42840677  0.31006740  1
  S  S214  1  0.57219480  0.47968755  0.34667539  1
  S  S215  1  0.04586436  0.59043575  0.35435822  1
  S  S216  1  0.19548548  0.14977211  0.31330163  1
  S  S217  1  0.43139964  0.92285329  0.40800503  1
  S  S218  1  0.96183903  0.38696823  0.38247360  1
  S  S219  1  0.67100530  0.67904197  0.32053124  1
  S  S220  1  0.54467890  0.14022528  0.35642336  1
  S  S221  1  0.06342466  0.93779790  0.35379559  1
  S  S222  1  0.92103274  0.24781990  0.46129329  1
  S  S223  1  0.03810217  0.57563644  0.44827536  1
  S  S224  1  0.10950289  0.80616385  0.41439446  1
  S  S225  1  0.41701383  0.73261312  0.46781287  1
  S  S226  1  0.49726759  0.09400897  0.45043391  1
  S  S227  1  0.31064589  0.50724251  0.49508166  1
  S  S228  1  0.64491657  0.30018051  0.41577073  1
  S  S229  1  0.21773101  0.35206690  0.45095296  1
  S  S230  1  0.72505541  0.47064603  0.45521877  1
  S  S231  1  0.87526891  0.01723975  0.41881180  1
  S  S232  1  0.60141876  0.29546228  0.48892086  1
  S  S233  1  0.34747420  0.52698323  0.41967411  1
  S  S234  1  0.21954602  0.03094887  0.46611958  1
  S  S235  1  0.76274991  0.76880655  0.46132737  1
  S  S236  1  0.46075823  0.04951043  0.54773103  1
  S  S237  1  0.35453876  0.73741703  0.55174511  1
  S  S238  1  0.54534483  0.28221655  0.58126009  1
  S  S239  1  0.95440747  0.55248825  0.54110511  1
  S  S240  1  0.88081442  0.20376405  0.54599383  1
  S  S241  1  0.05340555  0.77854482  0.58877214  1
  S  S242  1  0.75356446  0.00719526  0.50695867  1
  S  S243  1  0.13975069  0.94754603  0.54759809  1
  S  S244  1  0.67158814  0.82971788  0.54426716  1
  S  S245  1  0.32750312  0.49504216  0.58181998  1
  S  S246  1  0.75656630  0.00471010  0.58297936  1
  S  S247  1  0.05948023  0.75505093  0.51473871  1
  S  S248  1  0.20694027  0.28448903  0.53441288  1
  S  S249  1  0.66101677  0.49655099  0.53850475  1
  S  S250  1  0.82160640  0.17461022  0.64830850  1
  S  S251  1  0.72016341  0.85827837  0.64836429  1
  S  S252  1  0.87253534  0.41421794  0.68781850  1
  S  S253  1  0.71335637  0.62023097  0.59735046  1
  S  S254  1  0.27864672  0.68085044  0.65935184  1
  S  S255  1  0.25613938  0.33119645  0.62435763  1
  S  S256  1  0.42253958  0.90481446  0.68933305  1
  S  S257  1  0.11876380  0.10329511  0.60960198  1
  S  S258  1  0.49819212  0.06723159  0.64579210  1
  S  S259  1  0.02478488  0.95573540  0.65497452  1
  S  S260  1  0.90246838  0.40201583  0.59479340  1
  S  S261  1  0.65045234  0.62549967  0.68709540  1
  S  S262  1  0.11840102  0.15613212  0.68251296  1
  S  S263  1  0.42544129  0.86047087  0.61645937  1
  S  S264  1  0.52313309  0.40920242  0.64518914  1
  S  S265  1  0.00460062  0.60846898  0.64451357  1
  S  S266  1  0.13178134  0.29628916  0.75227481  1
  S  S267  1  0.04551495  0.97761172  0.74777696  1
  S  S268  1  0.18919123  0.53975055  0.79308945  1
  S  S269  1  0.00503611  0.73027962  0.70818187  1
  S  S270  1  0.60269922  0.81289279  0.76654311  1
  S  S271  1  0.57540679  0.46041087  0.72879228  1
  S  S272  1  0.75648254  0.03444315  0.79128888  1
  S  S273  1  0.42320310  0.24076848  0.70902580  1
  S  S274  1  0.83005192  0.19145651  0.74515931  1
  S  S275  1  0.34802634  0.08393688  0.75434421  1
  S  S276  1  0.21760021  0.51785736  0.70481786  1
  S  S277  1  0.97537237  0.75518729  0.79301081  1
  S  S278  1  0.43672133  0.28493737  0.78179254  1
  S  S279  1  0.74061274  0.99137046  0.71818076  1
  S  S280  1  0.84011567  0.53832398  0.75107898  1
  S  S281  1  0.32820676  0.74384965  0.74976386  1
  S  S282  1  0.45920668  0.41985307  0.85325237  1
  S  S283  1  0.36078595  0.10564583  0.84810256  1
  S  S284  1  0.50234339  0.66194165  0.90054742  1
  S  S285  1  0.32661984  0.86232564  0.81455306  1
  S  S286  1  0.91302625  0.94230214  0.87543927  1
  S  S287  1  0.89794120  0.59536893  0.83641305  1
  S  S288  1  0.07647348  0.16613251  0.89321724  1
  S  S289  1  0.75267397  0.37031691  0.81056632  1
  S  S290  1  0.15178646  0.32064824  0.84670008  1
  S  S291  1  0.67805486  0.20959496  0.85487193  1
  S  S292  1  0.53577335  0.64773821  0.81019083  1
  S  S293  1  0.29835627  0.87924997  0.90839630  1
  S  S294  1  0.76192565  0.41321025  0.88289416  1
  S  S295  1  0.05440535  0.12027477  0.82048224  1
  S  S296  1  0.16892220  0.66968909  0.85559255  1
  S  S297  1  0.64885687  0.86188602  0.85566415  1
  S  S298  1  0.80010260  0.54856861  0.96104896  1
  S  S299  1  0.68333482  0.22821790  0.94905516  1
  S  S300  1  0.61371177  0.99512537  0.91677466  1
  S  S301  1  0.30648601  0.06819556  0.96860274  1
  S  S302  1  0.22266615  0.70873693  0.94918221  1
  S  S303  1  0.41099513  0.29391059  0.99585440  1
  S  S304  1  0.07281638  0.50101641  0.91467384  1
  S  S305  1  0.49917005  0.45053955  0.95114438  1
  S  S306  1  0.99925149  0.32842028  0.95475627  1
  S  S307  1  0.84568714  0.78093478  0.91894182  1
  S  S308  1  0.12151758  0.50519867  0.98774755  1
  S  S309  1  0.37453767  0.27250945  0.92045151  1
  S  S310  1  0.50194772  0.76692622  0.96700304  1
  S  S311  1  0.96115704  0.03164252  0.96173731  1
