# generated using pymatgen
data_Li3PS4
_symmetry_space_group_name_H-M   'P 1'
_cell_length_a   10.24241400
_cell_length_b   14.48086959
_cell_length_c   47.21944116
_cell_angle_alpha   90.00000000
_cell_angle_beta   90.00000000
_cell_angle_gamma   74.68014200
_symmetry_Int_Tables_number   1
_chemical_formula_structural   Li3PS4
_chemical_formula_sum   'Li120 P40 S160'
_cell_volume   6754.67862751
_cell_formula_units_Z   40
loop_
 _symmetry_equiv_pos_site_id
 _symmetry_equiv_pos_as_xyz
  1  'x, y, z'
loop_
 _atom_site_type_symbol
 _atom_site_label
 _atom_site_symmetry_multiplicity
 _atom_site_fract_x
 _atom_site_fract_y
 _atom_site_fract_z
 _atom_site_occupancy
  Li  Li0  1  0.93282932  0.72442554  0.04264127  1
  Li  Li1  1  0.90265710  0.05382073  0.06203760  1
  Li  Li2  1  0.74730997  0.48775267  0.09545269  1
  Li  Li3  1  0.69550601  0.21958604  0.99565057  1
  Li  Li4  1  0.34449626  0.18131084  0.07806080  1
  Li  Li5  1  0.30874736  0.70360085  0.00100732  1
  Li  Li6  1  0.59503648  0.79117597  0.99947574  1
  Li  Li7  1  0.95090899  0.39463497  0.02596541  1
  Li  Li8  1  0.35464663  0.37587289  0.05650845  1
  Li  Li9  1  0.39684365  0.89978670  0.06789024  1
  Li  Li10  1  0.56311497  0.61695082  0.14295763  1
  Li  Li11  1  0.57563634  0.91275928  0.16102487  1
  Li  Li12  1  0.50320335  0.39387581  0.18144171  1
  Li  Li13  1  0.62141624  0.12757900  0.12211934  1
  Li  Li14  1  0.01136262  0.06772543  0.17970281  1
  Li  Li15  1  0.11841520  0.47504031  0.12334253  1
  Li  Li16  1  0.17852500  0.00247334  0.11165321  1
  Li  Li17  1  0.28303138  0.66552631  0.09818232  1
  Li  Li18  1  0.78105303  0.82238602  0.09789670  1
  Li  Li19  1  0.75973496  0.29306092  0.11681417  1
  Li  Li20  1  0.11431306  0.27941987  0.15289735  1
  Li  Li21  1  0.06152826  0.76824922  0.14262006  1
  Li  Li22  1  0.23980959  0.48110430  0.23917959  1
  Li  Li23  1  0.24051309  0.79518024  0.26061581  1
  Li  Li24  1  0.17013233  0.27527357  0.28150291  1
  Li  Li25  1  0.31264441  0.00351185  0.21875299  1
  Li  Li26  1  0.68955745  0.93301170  0.27594315  1
  Li  Li27  1  0.79331841  0.33567312  0.22548963  1
  Li  Li28  1  0.86756540  0.85858672  0.20191336  1
  Li  Li29  1  0.94435003  0.54269324  0.19824883  1
  Li  Li30  1  0.35516735  0.70570238  0.20279509  1
  Li  Li31  1  0.41234814  0.18353496  0.20849704  1
  Li  Li32  1  0.70198119  0.13087662  0.25097162  1
  Li  Li33  1  0.74598298  0.63395390  0.25960781  1
  Li  Li34  1  0.91275268  0.36016419  0.33733667  1
  Li  Li35  1  0.91815205  0.66836180  0.35563768  1
  Li  Li36  1  0.86003283  0.14608702  0.37718225  1
  Li  Li37  1  0.98805647  0.88981450  0.31828623  1
  Li  Li38  1  0.36496197  0.80495605  0.37648602  1
  Li  Li39  1  0.46245994  0.20607578  0.32614966  1
  Li  Li40  1  0.52077327  0.73799523  0.30402505  1
  Li  Li41  1  0.61021711  0.41208813  0.29830385  1
  Li  Li42  1  0.13511286  0.57139975  0.29877760  1
  Li  Li43  1  0.06120800  0.09745111  0.28859929  1
  Li  Li44  1  0.36771238  0.00172325  0.34815896  1
  Li  Li45  1  0.42386253  0.50433653  0.36136691  1
  Li  Li46  1  0.59194555  0.24043213  0.44010138  1
  Li  Li47  1  0.61950307  0.54238662  0.45252553  1
  Li  Li48  1  0.76477530  0.96655246  0.45928854  1
  Li  Li49  1  0.66101793  0.76377232  0.41559324  1
  Li  Li50  1  0.06316985  0.72680676  0.46306342  1
  Li  Li51  1  0.14623286  0.09542638  0.41678687  1
  Li  Li52  1  0.19963501  0.60944196  0.40532009  1
  Li  Li53  1  0.28333227  0.29206153  0.39891253  1
  Li  Li54  1  0.81403116  0.44038033  0.39794424  1
  Li  Li55  1  0.73301546  0.97244186  0.38526143  1
  Li  Li56  1  0.14771603  0.90978097  0.44591568  1
  Li  Li57  1  0.09854868  0.37427258  0.46760913  1
  Li  Li58  1  0.66736648  0.38466737  0.50730869  1
  Li  Li59  1  0.43535028  0.87979511  0.48234192  1
  Li  Li60  1  0.89535071  0.59830963  0.54058391  1
  Li  Li61  1  0.90830965  0.30001138  0.56053395  1
  Li  Li62  1  0.06020911  0.86246993  0.59771284  1
  Li  Li63  1  0.08282285  0.12701925  0.49764042  1
  Li  Li64  1  0.46475102  0.16657011  0.57875689  1
  Li  Li65  1  0.49569680  0.65294527  0.50633195  1
  Li  Li66  1  0.22031375  0.56692571  0.50394729  1
  Li  Li67  1  0.84301865  0.94070679  0.52690610  1
  Li  Li68  1  0.44327337  0.97248629  0.55734637  1
  Li  Li69  1  0.39348591  0.45936749  0.56831595  1
  Li  Li70  1  0.24494876  0.73419579  0.64544019  1
  Li  Li71  1  0.23335617  0.43744809  0.66219369  1
  Li  Li72  1  0.30336382  0.95894592  0.68239153  1
  Li  Li73  1  0.18236442  0.22456185  0.62233492  1
  Li  Li74  1  0.79326663  0.28101558  0.67960582  1
  Li  Li75  1  0.69215399  0.87638075  0.62439302  1
  Li  Li76  1  0.62806694  0.34843171  0.61098306  1
  Li  Li77  1  0.52692496  0.68545081  0.59840102  1
  Li  Li78  1  0.04328164  0.52595045  0.59959203  1
  Li  Li79  1  0.05146357  0.05852219  0.61660071  1
  Li  Li80  1  0.69218631  0.07296065  0.65322932  1
  Li  Li81  1  0.74599210  0.58306541  0.64260183  1
  Li  Li82  1  0.56308367  0.86840103  0.74035537  1
  Li  Li83  1  0.56057482  0.55493838  0.76114600  1
  Li  Li84  1  0.63393254  0.07403278  0.78191089  1
  Li  Li85  1  0.49181203  0.34585015  0.71905100  1
  Li  Li86  1  0.11252777  0.41645278  0.77594400  1
  Li  Li87  1  0.01223739  0.01485444  0.72614291  1
  Li  Li88  1  0.93610299  0.49272126  0.70256909  1
  Li  Li89  1  0.86182798  0.80873464  0.69981200  1
  Li  Li90  1  0.45158820  0.64474497  0.70368611  1
  Li  Li91  1  0.39278329  0.16599681  0.70925133  1
  Li  Li92  1  0.09517724  0.21939754  0.75097166  1
  Li  Li93  1  0.05460770  0.71838321  0.76112255  1
  Li  Li94  1  0.88869522  0.99117571  0.84304795  1
  Li  Li95  1  0.87922572  0.68205125  0.85576670  1
  Li  Li96  1  0.94675628  0.20097861  0.87775796  1
  Li  Li97  1  0.80707181  0.46014270  0.81757346  1
  Li  Li98  1  0.42780667  0.54274667  0.87597415  1
  Li  Li99  1  0.33651671  0.14554043  0.82452235  1
  Li  Li100  1  0.27815779  0.61046540  0.80360994  1
  Li  Li101  1  0.19277465  0.93734008  0.79894556  1
  Li  Li102  1  0.67106665  0.78092608  0.79881085  1
  Li  Li103  1  0.74373616  0.25279196  0.78867360  1
  Li  Li104  1  0.42895879  0.34811275  0.84787273  1
  Li  Li105  1  0.37568929  0.84069765  0.86023192  1
  Li  Li106  1  0.20017034  0.11072863  0.94059440  1
  Li  Li107  1  0.12428430  0.93743084  0.98979147  1
  Li  Li108  1  0.02795980  0.38453305  0.95957319  1
  Li  Li109  1  0.13198857  0.58871303  0.91574437  1
  Li  Li110  1  0.72854096  0.62339764  0.96072356  1
  Li  Li111  1  0.64770254  0.25516935  0.91585638  1
  Li  Li112  1  0.59003389  0.73388155  0.90193264  1
  Li  Li113  1  0.48391474  0.06215239  0.89304471  1
  Li  Li114  1  0.09375771  0.88350433  0.90702935  1
  Li  Li115  1  0.06277514  0.37947779  0.88510028  1
  Li  Li116  1  0.64732459  0.43846965  0.94475163  1
  Li  Li117  1  0.69885412  0.96215943  0.93619120  1
  Li  Li118  1  0.85139820  0.88605185  0.00157104  1
  Li  Li119  1  0.34944354  0.47315640  0.98149530  1
  P  P120  1  0.15356829  0.82052254  0.05789426  1
  P  P121  1  0.65107435  0.98776128  0.05096654  1
  P  P122  1  0.64960713  0.44903929  0.01085706  1
  P  P123  1  0.04195886  0.26331426  0.08743456  1
  P  P124  1  0.81891371  0.67218178  0.15024194  1
  P  P125  1  0.31701843  0.85388969  0.15258288  1
  P  P126  1  0.42287113  0.39525502  0.11895791  1
  P  P127  1  0.70732474  0.13056102  0.18352101  1
  P  P128  1  0.48660337  0.54862559  0.25083813  1
  P  P129  1  0.99494482  0.72606441  0.25034989  1
  P  P130  1  0.09755013  0.26727885  0.22020394  1
  P  P131  1  0.38339267  0.01118869  0.28076896  1
  P  P132  1  0.16250431  0.42426613  0.35013948  1
  P  P133  1  0.66470149  0.60038872  0.34883072  1
  P  P134  1  0.76808063  0.14281254  0.31663654  1
  P  P135  1  0.06434927  0.88360141  0.38059992  1
  P  P136  1  0.85531478  0.29204386  0.44786210  1
  P  P137  1  0.35295100  0.47427536  0.44909674  1
  P  P138  1  0.44622725  0.02211661  0.41315899  1
  P  P139  1  0.75919149  0.77386842  0.47685890  1
  P  P140  1  0.65379414  0.53239719  0.55670048  1
  P  P141  1  0.16259094  0.36563890  0.55139124  1
  P  P142  1  0.14607155  0.89744081  0.51273317  1
  P  P143  1  0.76663011  0.08728595  0.58759250  1
  P  P144  1  0.98891944  0.67831736  0.65187233  1
  P  P145  1  0.49085566  0.49677300  0.65277964  1
  P  P146  1  0.38490577  0.95535316  0.62022085  1
  P  P147  1  0.09781370  0.22027603  0.68386210  1
  P  P148  1  0.31638788  0.80126342  0.75128819  1
  P  P149  1  0.80685253  0.62423157  0.75120484  1
  P  P150  1  0.70794478  0.08241113  0.72073498  1
  P  P151  1  0.41866648  0.33814946  0.78079469  1
  P  P152  1  0.63146019  0.92569330  0.85000391  1
  P  P153  1  0.13400761  0.74808909  0.84861936  1
  P  P154  1  0.03178715  0.20724787  0.81696661  1
  P  P155  1  0.73105072  0.46409773  0.87980269  1
  P  P156  1  0.93576003  0.05808995  0.94780517  1
  P  P157  1  0.44024034  0.87287985  0.94571215  1
  P  P158  1  0.34579056  0.32867990  0.91297958  1
  P  P159  1  0.03357476  0.57875356  0.97613307  1
  S  S160  1  0.35340157  0.74395474  0.05784949  1
  S  S161  1  0.44824952  0.04240095  0.04868518  1
  S  S162  1  0.54799725  0.56256069  0.98516255  1
  S  S163  1  0.87889351  0.22118467  0.07395369  1
  S  S164  1  0.73630088  0.49926562  0.04405540  1
  S  S165  1  0.73341889  0.99693965  0.09052333  1
  S  S166  1  0.08100811  0.80355958  0.01840514  1
  S  S167  1  0.69291188  0.83946353  0.04322403  1
  S  S168  1  0.13951017  0.96271892  0.06398487  1
  S  S169  1  0.79951905  0.35798213  0.98653085  1
  S  S170  1  0.04911822  0.75548366  0.08618271  1
  S  S171  1  0.75573688  0.04505101  0.02170215  1
  S  S172  1  0.51750503  0.36619277  0.01819374  1
  S  S173  1  0.14895064  0.29386741  0.05352399  1
  S  S174  1  0.02268129  0.60791896  0.15453591  1
  S  S175  1  0.11343765  0.92236121  0.15189687  1
  S  S176  1  0.30172351  0.49494776  0.09248228  1
  S  S177  1  0.17794587  0.16826436  0.11306652  1
  S  S178  1  0.54435910  0.08721254  0.16877367  1
  S  S179  1  0.58763682  0.43970690  0.13420445  1
  S  S180  1  0.40866464  0.86054222  0.19087663  1
  S  S181  1  0.73831760  0.65698130  0.11095477  1
  S  S182  1  0.32612550  0.70941785  0.14715596  1
  S  S183  1  0.80745218  0.81885049  0.15294627  1
  S  S184  1  0.96003348  0.37962069  0.11411510  1
  S  S185  1  0.50568190  0.27454305  0.09495711  1
  S  S186  1  0.71663221  0.62347963  0.18111509  1
  S  S187  1  0.41595731  0.91220005  0.12265976  1
  S  S188  1  0.31143879  0.37589152  0.15325585  1
  S  S189  1  0.81978463  0.15387811  0.14974857  1
  S  S190  1  0.68848059  0.47852695  0.25483462  1
  S  S191  1  0.79213536  0.79251653  0.24632712  1
  S  S192  1  0.97292807  0.36520059  0.19406231  1
  S  S193  1  0.83225320  0.03464971  0.21019202  1
  S  S194  1  0.22499897  0.96661996  0.26387075  1
  S  S195  1  0.25894931  0.31028743  0.23614404  1
  S  S196  1  0.07559585  0.74370609  0.28940859  1
  S  S197  1  0.40696350  0.53363097  0.21147634  1
  S  S198  1  0.00789978  0.58074158  0.24708927  1
  S  S199  1  0.47474365  0.69358919  0.25490403  1
  S  S200  1  0.62471033  0.25020509  0.20881750  1
  S  S201  1  0.18308555  0.15067152  0.19417346  1
  S  S202  1  0.38234027  0.49411178  0.28072446  1
  S  S203  1  0.09683913  0.77969910  0.21977940  1
  S  S204  1  0.98387665  0.23983936  0.25330307  1
  S  S205  1  0.49964377  0.03792111  0.24760409  1
  S  S206  1  0.36356356  0.35282595  0.35412447  1
  S  S207  1  0.46008796  0.66457340  0.34729053  1
  S  S208  1  0.63152965  0.23904376  0.29194853  1
  S  S209  1  0.50643996  0.91291790  0.30713036  1
  S  S210  1  0.90525180  0.84070998  0.36348268  1
  S  S211  1  0.93218139  0.18794804  0.32993092  1
  S  S212  1  0.75524728  0.61722377  0.38677808  1
  S  S213  1  0.08168541  0.41722891  0.31054250  1
  S  S214  1  0.68006951  0.45452940  0.34576862  1
  S  S215  1  0.15458527  0.56851679  0.35561636  1
  S  S216  1  0.29455082  0.12716639  0.30637491  1
  S  S217  1  0.85047461  0.02606691  0.29026607  1
  S  S218  1  0.05718949  0.36812369  0.37920689  1
  S  S219  1  0.75859283  0.65669034  0.31743396  1
  S  S220  1  0.66575614  0.11434821  0.35128340  1
  S  S221  1  0.18143877  0.90629524  0.34745718  1
  S  S222  1  0.05769328  0.21921294  0.45063307  1
  S  S223  1  0.15020120  0.54635064  0.45348659  1
  S  S224  1  0.32290955  0.11988132  0.38642166  1
  S  S225  1  0.18515214  0.78520999  0.40798712  1
  S  S226  1  0.60076732  0.71682961  0.46407530  1
  S  S227  1  0.60970857  0.07001590  0.42525049  1
  S  S228  1  0.45131959  0.49654853  0.48591821  1
  S  S229  1  0.76799710  0.27874839  0.40918787  1
  S  S230  1  0.35598756  0.33265596  0.44596932  1
  S  S231  1  0.85046010  0.43505157  0.45141567  1
  S  S232  1  0.98156622  0.00395269  0.40499810  1
  S  S233  1  0.52533290  0.90130398  0.38810375  1
  S  S234  1  0.75123964  0.24246017  0.47880930  1
  S  S235  1  0.43982041  0.53112069  0.41664772  1
  S  S236  1  0.33234672  0.00197267  0.44687481  1
  S  S237  1  0.84586442  0.80568717  0.43984671  1
  S  S238  1  0.91463514  0.69545694  0.50016857  1
  S  S239  1  0.66152775  0.89772813  0.49792185  1
  S  S240  1  0.45352557  0.61066416  0.55788612  1
  S  S241  1  0.36512403  0.30629826  0.55003379  1
  S  S242  1  0.25001438  0.78308797  0.48741117  1
  S  S243  1  0.92791468  0.13102531  0.57372042  1
  S  S244  1  0.06303412  0.84777945  0.54642561  1
  S  S245  1  0.07295672  0.35144297  0.58998358  1
  S  S246  1  0.72784279  0.53858686  0.51716432  1
  S  S247  1  0.13888443  0.51489308  0.54889319  1
  S  S248  1  0.66458862  0.38895987  0.56295329  1
  S  S249  1  0.99397513  0.98393889  0.48785365  1
  S  S250  1  0.76040294  0.59383793  0.58506656  1
  S  S251  1  0.05863744  0.31778011  0.52018792  1
  S  S252  1  0.27402265  0.98374920  0.51937190  1
  S  S253  1  0.65887159  0.05297020  0.55434876  1
  S  S254  1  0.78496343  0.74272269  0.65572766  1
  S  S255  1  0.69401651  0.42756552  0.65153429  1
  S  S256  1  0.50722495  0.85614987  0.59376748  1
  S  S257  1  0.63030177  0.18297229  0.61307513  1
  S  S258  1  0.26127063  0.26306631  0.66923353  1
  S  S259  1  0.22034082  0.91117970  0.63554082  1
  S  S260  1  0.40090007  0.48970361  0.69129903  1
  S  S261  1  0.07191108  0.69424202  0.61299074  1
  S  S262  1  0.48232006  0.64115513  0.64753069  1
  S  S263  1  0.00019980  0.53142712  0.65403509  1
  S  S264  1  0.84939684  0.97332524  0.61506988  1
  S  S265  1  0.30095957  0.07544150  0.59593380  1
  S  S266  1  0.08976299  0.72598580  0.68322418  1
  S  S267  1  0.39039029  0.43895466  0.62301836  1
  S  S268  1  0.49603730  0.97601914  0.65437509  1
  S  S269  1  0.98645786  0.19567895  0.65008531  1
  S  S270  1  0.11470773  0.87175684  0.75538538  1
  S  S271  1  0.00970866  0.55832193  0.74728781  1
  S  S272  1  0.83315371  0.98497733  0.69463383  1
  S  S273  1  0.97090791  0.31643644  0.71017459  1
  S  S274  1  0.57735051  0.38315991  0.76421105  1
  S  S275  1  0.54666495  0.03883025  0.73658472  1
  S  S276  1  0.72407629  0.60764027  0.79004078  1
  S  S277  1  0.39631718  0.81695156  0.71202094  1
  S  S278  1  0.79408392  0.76977223  0.74809536  1
  S  S279  1  0.32740757  0.65636351  0.75504510  1
  S  S280  1  0.17946151  0.10127100  0.70951894  1
  S  S281  1  0.62184257  0.19883099  0.69465908  1
  S  S282  1  0.42010417  0.85495834  0.78142464  1
  S  S283  1  0.70611493  0.57045218  0.72049719  1
  S  S284  1  0.82065416  0.11022078  0.75394972  1
  S  S285  1  0.30314753  0.31145279  0.74754455  1
  S  S286  1  0.42742228  0.99291154  0.84994069  1
  S  S287  1  0.33835560  0.68204843  0.84673173  1
  S  S288  1  0.16583896  0.11106930  0.79180942  1
  S  S289  1  0.29428089  0.43628324  0.80701387  1
  S  S290  1  0.88909793  0.50860368  0.86297613  1
  S  S291  1  0.86813162  0.16269446  0.83065311  1
  S  S292  1  0.04297971  0.73304024  0.88648666  1
  S  S293  1  0.72651719  0.93549853  0.81231390  1
  S  S294  1  0.12280189  0.89322824  0.84581960  1
  S  S295  1  0.64221724  0.78053966  0.85429466  1
  S  S296  1  0.50731301  0.22226175  0.80639463  1
  S  S297  1  0.95016166  0.32425949  0.79057311  1
  S  S298  1  0.72523900  0.98215877  0.88117505  1
  S  S299  1  0.03929213  0.69216087  0.81726758  1
  S  S300  1  0.13634599  0.23573632  0.85128229  1
  S  S301  1  0.61375379  0.44190267  0.84670127  1
  S  S302  1  0.73269531  0.12622152  0.94818318  1
  S  S303  1  0.64631561  0.80241101  0.94741396  1
  S  S304  1  0.46925800  0.23145600  0.88605090  1
  S  S305  1  0.60924843  0.56155115  0.90725203  1
  S  S306  1  0.19048983  0.63282190  0.96342125  1
  S  S307  1  0.18274445  0.28058465  0.92540794  1
  S  S308  1  0.36479443  0.85541754  0.98520848  1
  S  S309  1  0.03057366  0.06490219  0.90949275  1
  S  S310  1  0.43448052  0.01491170  0.94071077  1
  S  S311  1  0.95172650  0.91280114  0.95328828  1
  S  S312  1  0.81415449  0.34408820  0.90432575  1
  S  S313  1  0.26652765  0.44963234  0.88815514  1
  S  S314  1  0.03796519  0.10713875  0.97896703  1
  S  S315  1  0.35224734  0.81147273  0.91466471  1
  S  S316  1  0.45999904  0.34876781  0.94655552  1
  S  S317  1  0.94634604  0.54308567  0.93963924  1
  S  S318  1  0.87649642  0.66910447  0.99759134  1
  S  S319  1  0.11988199  0.45752120  0.99950449  1
