# generated using pymatgen
data_Li3PS4
_symmetry_space_group_name_H-M   'P 1'
_cell_length_a   10.24241400
_cell_length_b   14.48086959
_cell_length_c   46.68081084
_cell_angle_alpha   90.00000000
_cell_angle_beta   90.00000000
_cell_angle_gamma   74.68014200
_symmetry_Int_Tables_number   1
_chemical_formula_structural   Li3PS4
_chemical_formula_sum   'Li120 P40 S160'
_cell_volume   6677.62827275
_cell_formula_units_Z   40
loop_
 _symmetry_equiv_pos_site_id
 _symmetry_equiv_pos_as_xyz
  1  'x, y, z'
loop_
 _atom_site_type_symbol
 _atom_site_label
 _atom_site_symmetry_multiplicity
 _atom_site_fract_x
 _atom_site_fract_y
 _atom_site_fract_z
 _atom_site_occupancy
  Li  Li0  1  0.87780904  0.69442317  0.03445185  1
  Li  Li1  1  0.83376106  0.01749785  0.06039189  1
  Li  Li2  1  0.82702236  0.20943867  0.00543780  1
  Li  Li3  1  0.28279178  0.15549872  0.07096317  1
  Li  Li4  1  0.26094606  0.62324091  0.01144398  1
  Li  Li5  1  0.43219171  0.76166972  0.02466576  1
  Li  Li6  1  0.95257490  0.41765686  0.02283792  1
  Li  Li7  1  0.35274404  0.37134956  0.05178129  1
  Li  Li8  1  0.32159673  0.87821582  0.07411070  1
  Li  Li9  1  0.50126236  0.58518599  0.14478542  1
  Li  Li10  1  0.51371944  0.88999098  0.16211043  1
  Li  Li11  1  0.70516896  0.48280407  0.08596389  1
  Li  Li12  1  0.56259280  0.09872091  0.11889947  1
  Li  Li13  1  0.94822013  0.04872862  0.17659365  1
  Li  Li14  1  0.04475029  0.44334704  0.12194592  1
  Li  Li15  1  0.10202379  0.97814007  0.11133703  1
  Li  Li16  1  0.21892316  0.63041641  0.10046113  1
  Li  Li17  1  0.71992805  0.78732639  0.09628894  1
  Li  Li18  1  0.67730073  0.27749172  0.10526013  1
  Li  Li19  1  0.04701190  0.24790650  0.14792276  1
  Li  Li20  1  0.00005612  0.73869360  0.14305821  1
  Li  Li21  1  0.17926961  0.45749300  0.23957938  1
  Li  Li22  1  0.18111963  0.77184824  0.26175767  1
  Li  Li23  1  0.42843092  0.36465027  0.17969153  1
  Li  Li24  1  0.24497236  0.98138524  0.21889805  1
  Li  Li25  1  0.62395895  0.91775636  0.27550103  1
  Li  Li26  1  0.72859836  0.32087694  0.22231133  1
  Li  Li27  1  0.81079230  0.83670260  0.20245398  1
  Li  Li28  1  0.88660308  0.51636066  0.19858156  1
  Li  Li29  1  0.29577502  0.68130810  0.20387718  1
  Li  Li30  1  0.35671791  0.15853699  0.20917949  1
  Li  Li31  1  0.70030307  0.12211437  0.24831870  1
  Li  Li32  1  0.68585722  0.61167523  0.25801904  1
  Li  Li33  1  0.85642882  0.33807534  0.33875790  1
  Li  Li34  1  0.86481900  0.64156424  0.35583296  1
  Li  Li35  1  0.10353862  0.25159519  0.28073759  1
  Li  Li36  1  0.92182259  0.86272352  0.32025835  1
  Li  Li37  1  0.29788723  0.78308522  0.37804120  1
  Li  Li38  1  0.40419292  0.18617308  0.32305188  1
  Li  Li39  1  0.46459134  0.71542708  0.30469919  1
  Li  Li40  1  0.55461926  0.38910326  0.29949035  1
  Li  Li41  1  0.08103992  0.54656931  0.29963494  1
  Li  Li42  1  0.00132402  0.07335999  0.28912261  1
  Li  Li43  1  0.28229718  0.98606947  0.34802251  1
  Li  Li44  1  0.36794111  0.47704806  0.36185259  1
  Li  Li45  1  0.53521079  0.22531028  0.44302277  1
  Li  Li46  1  0.55825375  0.52903967  0.45001985  1
  Li  Li47  1  0.80497885  0.12632191  0.37727834  1
  Li  Li48  1  0.61254754  0.75931352  0.40951764  1
  Li  Li49  1  0.06697004  0.60902313  0.49415769  1
  Li  Li50  1  0.06855502  0.05839156  0.42727944  1
  Li  Li51  1  0.15124423  0.58842337  0.40588665  1
  Li  Li52  1  0.23083675  0.26184453  0.39962352  1
  Li  Li53  1  0.75323033  0.41676963  0.39974461  1
  Li  Li54  1  0.66628398  0.95877450  0.38594844  1
  Li  Li55  1  0.93841869  0.80526056  0.45590324  1
  Li  Li56  1  0.05608587  0.35466444  0.46755156  1
  Li  Li57  1  0.51557120  0.97536901  0.46589223  1
  Li  Li58  1  0.65080021  0.39337185  0.50137624  1
  Li  Li59  1  0.27355775  0.81085907  0.45332669  1
  Li  Li60  1  0.84706855  0.62987085  0.53349217  1
  Li  Li61  1  0.89063149  0.30713622  0.56038878  1
  Li  Li62  1  0.89530875  0.11482311  0.50563481  1
  Li  Li63  1  0.44399268  0.16944307  0.57087463  1
  Li  Li64  1  0.46469665  0.70043343  0.51127963  1
  Li  Li65  1  0.29120807  0.56450376  0.52447063  1
  Li  Li66  1  0.77043366  0.90576987  0.52354116  1
  Li  Li67  1  0.37051892  0.95041295  0.55208258  1
  Li  Li68  1  0.39963465  0.44899112  0.57417186  1
  Li  Li69  1  0.22364192  0.74183426  0.64637161  1
  Li  Li70  1  0.21057724  0.43530686  0.66207934  1
  Li  Li71  1  0.02028033  0.84067612  0.58638897  1
  Li  Li72  1  0.16163093  0.22597752  0.61853357  1
  Li  Li73  1  0.77862583  0.27566109  0.67761332  1
  Li  Li74  1  0.68060094  0.88126396  0.62194564  1
  Li  Li75  1  0.61912550  0.34647188  0.61143366  1
  Li  Li76  1  0.50409750  0.69442269  0.60073809  1
  Li  Li77  1  0.00080894  0.53880658  0.59613863  1
  Li  Li78  1  0.04748199  0.04794808  0.60561067  1
  Li  Li79  1  0.68419507  0.07525020  0.64796547  1
  Li  Li80  1  0.72321465  0.58446945  0.64305991  1
  Li  Li81  1  0.54655853  0.86465785  0.73955029  1
  Li  Li82  1  0.54439949  0.55123558  0.76159345  1
  Li  Li83  1  0.29466154  0.95922814  0.67974525  1
  Li  Li84  1  0.47495103  0.33961771  0.71780620  1
  Li  Li85  1  0.10015073  0.41475429  0.77623944  1
  Li  Li86  1  0.99762440  0.01132668  0.72380179  1
  Li  Li87  1  0.91036398  0.48402384  0.70200200  1
  Li  Li88  1  0.82911151  0.81305985  0.69777826  1
  Li  Li89  1  0.43537314  0.64279078  0.70418758  1
  Li  Li90  1  0.37818574  0.15815087  0.70393944  1
  Li  Li91  1  0.08872501  0.21836663  0.74988148  1
  Li  Li92  1  0.04873743  0.70734593  0.74317353  1
  Li  Li93  1  0.86772474  0.98774610  0.83794388  1
  Li  Li94  1  0.86117381  0.68581126  0.85740406  1
  Li  Li95  1  0.61318782  0.07251302  0.77971330  1
  Li  Li96  1  0.80975231  0.45969908  0.82018535  1
  Li  Li97  1  0.42745131  0.54383423  0.87742165  1
  Li  Li98  1  0.32199682  0.13653480  0.82399804  1
  Li  Li99  1  0.25216818  0.61558018  0.80375137  1
  Li  Li100  1  0.16913100  0.93313324  0.79871284  1
  Li  Li101  1  0.65090575  0.77624401  0.79979787  1
  Li  Li102  1  0.72699532  0.24963870  0.78695560  1
  Li  Li103  1  0.44379849  0.33914984  0.84791719  1
  Li  Li104  1  0.35554593  0.84820466  0.86154385  1
  Li  Li105  1  0.18938242  0.10028848  0.94258647  1
  Li  Li106  1  0.16530641  0.79631327  0.94966846  1
  Li  Li107  1  0.91711235  0.20094366  0.87650236  1
  Li  Li108  1  0.11133266  0.56668296  0.90927150  1
  Li  Li109  1  0.65836380  0.71445438  0.99436096  1
  Li  Li110  1  0.65655571  0.26744113  0.92747503  1
  Li  Li111  1  0.57342930  0.73748770  0.90581146  1
  Li  Li112  1  0.49561111  0.06268033  0.89983482  1
  Li  Li113  1  0.97153542  0.91138553  0.89931925  1
  Li  Li114  1  0.05783154  0.36695635  0.88577303  1
  Li  Li115  1  0.78553577  0.52124180  0.95548469  1
  Li  Li116  1  0.66904314  0.96941406  0.96765944  1
  Li  Li117  1  0.20773408  0.35009195  0.96487503  1
  Li  Li118  1  0.07260989  0.93224309  0.00140253  1
  Li  Li119  1  0.45047760  0.51432808  0.95327845  1
  P  P120  1  0.09962755  0.78569929  0.05749905  1
  P  P121  1  0.59188443  0.94658795  0.04884441  1
  P  P122  1  0.65024553  0.49292538  0.02106051  1
  P  P123  1  0.75256276  0.64788788  0.15183678  1
  P  P124  1  0.25027112  0.83107071  0.15370191  1
  P  P125  1  0.35175897  0.36590409  0.11702171  1
  P  P126  1  0.97608592  0.23782250  0.07926737  1
  P  P127  1  0.42797152  0.52315522  0.25105734  1
  P  P128  1  0.93541000  0.70296125  0.25143744  1
  P  P129  1  0.03329525  0.24310966  0.21761359  1
  P  P130  1  0.64745586  0.11011799  0.18093049  1
  P  P131  1  0.10599593  0.39956671  0.35105176  1
  P  P132  1  0.60775912  0.57833272  0.35017619  1
  P  P133  1  0.71019150  0.12265580  0.31617227  1
  P  P134  1  0.31899418  0.98836594  0.28036010  1
  P  P135  1  0.80079967  0.26640083  0.45258022  1
  P  P136  1  0.30277645  0.44850366  0.44952113  1
  P  P137  1  0.36311360  0.01045046  0.41208768  1
  P  P138  1  0.99253912  0.86387271  0.38408994  1
  P  P139  1  0.66148409  0.76630890  0.47153063  1
  P  P140  1  0.62415774  0.53911029  0.55764277  1
  P  P141  1  0.13214617  0.37850651  0.54888929  1
  P  P142  1  0.07351030  0.83138743  0.52133069  1
  P  P143  1  0.96941097  0.67653696  0.65243112  1
  P  P144  1  0.47303307  0.49367647  0.65383804  1
  P  P145  1  0.37266269  0.95950892  0.61730716  1
  P  P146  1  0.74997262  0.08664514  0.57927086  1
  P  P147  1  0.29783176  0.80082725  0.75024702  1
  P  P148  1  0.79015724  0.62096244  0.75051038  1
  P  P149  1  0.69085200  0.07971054  0.71754647  1
  P  P150  1  0.07973381  0.21459487  0.68092216  1
  P  P151  1  0.61824229  0.92589776  0.85083481  1
  P  P152  1  0.11514833  0.74836860  0.85057104  1
  P  P153  1  0.01671899  0.20229314  0.81579897  1
  P  P154  1  0.40294635  0.33636410  0.78029205  1
  P  P155  1  0.92310938  0.05983946  0.95238859  1
  P  P156  1  0.42067764  0.87654142  0.94957219  1
  P  P157  1  0.36210021  0.31496674  0.91168657  1
  P  P158  1  0.73217273  0.46261791  0.88360526  1
  P  P159  1  0.06268306  0.55871262  0.97135359  1
  S  S160  1  0.30290187  0.71599622  0.06330446  1
  S  S161  1  0.38705010  0.99905551  0.04750590  1
  S  S162  1  0.51852062  0.60008766  0.99670938  1
  S  S163  1  0.81924841  0.19067370  0.06280927  1
  S  S164  1  0.78322843  0.54980200  0.04372442  1
  S  S165  1  0.04929856  0.76591321  0.01652661  1
  S  S166  1  0.63484928  0.79567581  0.04373935  1
  S  S167  1  0.07462727  0.93105252  0.06262962  1
  S  S168  1  0.75921404  0.39559306  0.99183117  1
  S  S169  1  0.68837201  0.00888554  0.01989881  1
  S  S170  1  0.54886543  0.43831235  0.05108125  1
  S  S171  1  0.08920189  0.27274686  0.04697824  1
  S  S172  1  0.95680935  0.57958142  0.15370213  1
  S  S173  1  0.04566325  0.89557680  0.15242254  1
  S  S174  1  0.22622714  0.46418092  0.09049356  1
  S  S175  1  0.10903042  0.14173116  0.10550648  1
  S  S176  1  0.48455769  0.06533238  0.16695452  1
  S  S177  1  0.51249299  0.41033238  0.13333437  1
  S  S178  1  0.67182381  0.96065406  0.08910178  1
  S  S179  1  0.66291383  0.63629038  0.11315311  1
  S  S180  1  0.26432643  0.68571091  0.14826743  1
  S  S181  1  0.74612974  0.79330278  0.15440308  1
  S  S182  1  0.88549610  0.34910850  0.10734341  1
  S  S183  1  0.44137034  0.24814233  0.09105464  1
  S  S184  1  0.99141545  0.72108967  0.08467558  1
  S  S185  1  0.34476449  0.89685760  0.12454154  1
  S  S186  1  0.23976898  0.33925055  0.15072258  1
  S  S187  1  0.75549682  0.13712471  0.14656755  1
  S  S188  1  0.63026022  0.45468659  0.25513868  1
  S  S189  1  0.73325984  0.77125738  0.24753822  1
  S  S190  1  0.91139091  0.34100343  0.19081486  1
  S  S191  1  0.77604720  0.01380626  0.20752132  1
  S  S192  1  0.15886282  0.94336340  0.26429179  1
  S  S193  1  0.19224646  0.28674967  0.23484332  1
  S  S194  1  0.34305755  0.83768554  0.19220777  1
  S  S195  1  0.34815075  0.50803398  0.21128733  1
  S  S196  1  0.94775328  0.55760193  0.24797999  1
  S  S197  1  0.41437608  0.66839991  0.25539713  1
  S  S198  1  0.56590057  0.22815089  0.20734458  1
  S  S199  1  0.12199195  0.12627649  0.19183260  1
  S  S200  1  0.65505498  0.59824485  0.18378277  1
  S  S201  1  0.03840442  0.75535317  0.22054256  1
  S  S202  1  0.91719401  0.21647956  0.25119205  1
  S  S203  1  0.43332513  0.01577571  0.24699484  1
  S  S204  1  0.30633200  0.32518793  0.35462292  1
  S  S205  1  0.40282337  0.64235937  0.34870175  1
  S  S206  1  0.57991846  0.21729672  0.28977960  1
  S  S207  1  0.44144685  0.89161841  0.30731590  1
  S  S208  1  0.83798536  0.81442400  0.36690241  1
  S  S209  1  0.87476977  0.16737206  0.32981098  1
  S  S210  1  0.01730599  0.71937993  0.29095028  1
  S  S211  1  0.02354260  0.39309291  0.31111047  1
  S  S212  1  0.62362442  0.43192456  0.34750353  1
  S  S213  1  0.10144867  0.54367646  0.35592226  1
  S  S214  1  0.23137995  0.10602121  0.30614690  1
  S  S215  1  0.79375556  0.00268788  0.29082003  1
  S  S216  1  0.32524114  0.46752864  0.28134678  1
  S  S217  1  0.70046528  0.63331359  0.31806960  1
  S  S218  1  0.60403013  0.09937312  0.35118286  1
  S  S219  1  0.11137448  0.88009419  0.35003878  1
  S  S220  1  0.99629455  0.19023217  0.45979723  1
  S  S221  1  0.10020818  0.51850312  0.45091931  1
  S  S222  1  0.20986635  0.09787900  0.38912114  1
  S  S223  1  0.11182323  0.76724260  0.41324600  1
  S  S224  1  0.51527887  0.70496242  0.45510788  1
  S  S225  1  0.51513844  0.07364113  0.42053181  1
  S  S226  1  0.69957016  0.59535833  0.38837263  1
  S  S227  1  0.71922983  0.25139528  0.41297873  1
  S  S228  1  0.30477684  0.30653772  0.44750904  1
  S  S229  1  0.79321730  0.41030250  0.45567618  1
  S  S230  1  0.90040944  0.98498615  0.40663999  1
  S  S231  1  0.44575033  0.89238572  0.38592583  1
  S  S232  1  0.99967085  0.34674571  0.38102892  1
  S  S233  1  0.39022503  0.50071688  0.41542379  1
  S  S234  1  0.28744945  0.97592488  0.45052716  1
  S  S235  1  0.69886090  0.86283816  0.44311943  1
  S  S236  1  0.84051280  0.66486475  0.47509002  1
  S  S237  1  0.40961916  0.47786035  0.48444096  1
  S  S238  1  0.58008331  0.83997425  0.50830326  1
  S  S239  1  0.68525375  0.22619141  0.48414647  1
  S  S240  1  0.42089546  0.60958091  0.56320197  1
  S  S241  1  0.33711545  0.32655594  0.54776201  1
  S  S242  1  0.20505951  0.72488350  0.49672284  1
  S  S243  1  0.90715962  0.13362174  0.56294304  1
  S  S244  1  0.94129390  0.77385626  0.54401938  1
  S  S245  1  0.67449408  0.55857885  0.51661332  1
  S  S246  1  0.08892278  0.52947825  0.54362310  1
  S  S247  1  0.64879154  0.39399350  0.56282985  1
  S  S248  1  0.96411562  0.92922371  0.49232520  1
  S  S249  1  0.03690472  0.31546779  0.51989515  1
  S  S250  1  0.17497488  0.88547155  0.55144070  1
  S  S251  1  0.63688656  0.05248915  0.54684438  1
  S  S252  1  0.76529982  0.74437306  0.65358477  1
  S  S253  1  0.67759611  0.42801355  0.65252670  1
  S  S254  1  0.49830187  0.86046056  0.59095221  1
  S  S255  1  0.61735617  0.18220013  0.60562983  1
  S  S256  1  0.24037578  0.26089020  0.66601461  1
  S  S257  1  0.21135788  0.91524870  0.63338734  1
  S  S258  1  0.05159054  0.36512249  0.58910777  1
  S  S259  1  0.06300514  0.68872354  0.61432978  1
  S  S260  1  0.46005459  0.63883589  0.64842061  1
  S  S261  1  0.97743326  0.53128989  0.65480838  1
  S  S262  1  0.84000948  0.97486721  0.60727579  1
  S  S263  1  0.28413764  0.07649887  0.59102899  1
  S  S264  1  0.73210233  0.60413594  0.58474503  1
  S  S265  1  0.37793548  0.42891653  0.62449778  1
  S  S266  1  0.48480686  0.98586478  0.65101474  1
  S  S267  1  0.96980724  0.18776641  0.64683815  1
  S  S268  1  0.09520608  0.86777777  0.75371187  1
  S  S269  1  0.99173508  0.55121465  0.74564588  1
  S  S270  1  0.81756791  0.98383599  0.69091760  1
  S  S271  1  0.95379040  0.30863428  0.70829209  1
  S  S272  1  0.56223160  0.37949948  0.76300553  1
  S  S273  1  0.52991230  0.03517513  0.73332305  1
  S  S274  1  0.38030633  0.48728078  0.69227648  1
  S  S275  1  0.37939303  0.81596285  0.71058737  1
  S  S276  1  0.77863903  0.76594406  0.74692942  1
  S  S277  1  0.31172742  0.65531836  0.75433548  1
  S  S278  1  0.16514181  0.09687226  0.70705472  1
  S  S279  1  0.60370259  0.19662308  0.69130668  1
  S  S280  1  0.06470364  0.72932659  0.68455011  1
  S  S281  1  0.68558062  0.56793192  0.71996441  1
  S  S282  1  0.80229178  0.10691957  0.75135293  1
  S  S283  1  0.28656609  0.30935787  0.74683009  1
  S  S284  1  0.41800581  0.99929582  0.85507394  1
  S  S285  1  0.32018906  0.68410058  0.84833013  1
  S  S286  1  0.14957903  0.10561608  0.79017995  1
  S  S287  1  0.28465686  0.43544398  0.80717934  1
  S  S288  1  0.88707485  0.51230996  0.86661341  1
  S  S289  1  0.85028177  0.15883225  0.82874153  1
  S  S290  1  0.71146960  0.60339001  0.79018276  1
  S  S291  1  0.69819393  0.93331218  0.81067845  1
  S  S292  1  0.10054685  0.89488981  0.84751615  1
  S  S293  1  0.62410847  0.78160065  0.85572620  1
  S  S294  1  0.49046481  0.21878058  0.80582105  1
  S  S295  1  0.93701341  0.32212229  0.79008948  1
  S  S296  1  0.40026768  0.85486937  0.78088106  1
  S  S297  1  0.01988819  0.69546324  0.81887915  1
  S  S298  1  0.12039200  0.22591206  0.85116141  1
  S  S299  1  0.61452807  0.44611112  0.84937222  1
  S  S300  1  0.72752693  0.13549279  0.95983078  1
  S  S301  1  0.62320806  0.80631518  0.95118002  1
  S  S302  1  0.51607781  0.22722784  0.88897268  1
  S  S303  1  0.61218866  0.55868203  0.91277234  1
  S  S304  1  0.20925492  0.62003145  0.95518588  1
  S  S305  1  0.20972108  0.25173566  0.91984706  1
  S  S306  1  0.02722118  0.73243703  0.88940093  1
  S  S307  1  0.00368500  0.07614055  0.91275179  1
  S  S308  1  0.41941147  0.01845441  0.94755271  1
  S  S309  1  0.93073196  0.91595748  0.95537975  1
  S  S310  1  0.82388083  0.34114418  0.90604696  1
  S  S311  1  0.28012339  0.43321892  0.88557175  1
  S  S312  1  0.72548226  0.97927299  0.88047485  1
  S  S313  1  0.33408292  0.82440285  0.91534794  1
  S  S314  1  0.43684659  0.34932808  0.95023342  1
  S  S315  1  0.02438224  0.46319463  0.94261534  1
  S  S316  1  0.88383122  0.66037807  0.97496040  1
  S  S317  1  0.31330541  0.84713193  0.98439931  1
  S  S318  1  0.14355923  0.48395449  0.00795576  1
  S  S319  1  0.03927440  0.09971897  0.98385035  1
