# generated using pymatgen
data_Li3PS4
_symmetry_space_group_name_H-M   'P 1'
_cell_length_a   10.24241400
_cell_length_b   14.48086959
_cell_length_c   43.35129118
_cell_angle_alpha   90.00000000
_cell_angle_beta   90.00000000
_cell_angle_gamma   74.68014200
_symmetry_Int_Tables_number   1
_chemical_formula_structural   Li3PS4
_chemical_formula_sum   'Li108 P36 S144'
_cell_volume   6201.34488644
_cell_formula_units_Z   36
loop_
 _symmetry_equiv_pos_site_id
 _symmetry_equiv_pos_as_xyz
  1  'x, y, z'
loop_
 _atom_site_type_symbol
 _atom_site_label
 _atom_site_symmetry_multiplicity
 _atom_site_fract_x
 _atom_site_fract_y
 _atom_site_fract_z
 _atom_site_occupancy
  Li  Li0  1  0.67644588  0.71629584  0.08462687  1
  Li  Li1  1  0.51623501  0.30960961  0.06665546  1
  Li  Li2  1  0.43294852  0.45489200  0.99414402  1
  Li  Li3  1  0.23055295  0.55836462  0.06400373  1
  Li  Li4  1  0.29606443  0.11140899  0.03628497  1
  Li  Li5  1  0.04943066  0.75314821  0.03497866  1
  Li  Li6  1  0.59610097  0.88096436  0.03407182  1
  Li  Li7  1  0.86121629  0.39924198  0.04614951  1
  Li  Li8  1  0.34794010  0.60509860  0.18797926  1
  Li  Li9  1  0.68003489  0.03978450  0.10024721  1
  Li  Li10  1  0.61532429  0.50949465  0.12085039  1
  Li  Li11  1  0.41491310  0.12436888  0.16527419  1
  Li  Li12  1  0.12601949  0.17420125  0.11869275  1
  Li  Li13  1  0.90228164  0.46031186  0.16923596  1
  Li  Li14  1  0.96801042  0.98680190  0.14941464  1
  Li  Li15  1  0.05406570  0.65188212  0.14012191  1
  Li  Li16  1  0.54430066  0.81670058  0.14196047  1
  Li  Li17  1  0.53201596  0.30095720  0.15489113  1
  Li  Li18  1  0.14019831  0.36217972  0.09103023  1
  Li  Li19  1  0.18028513  0.87696112  0.09770301  1
  Li  Li20  1  0.01722969  0.48178670  0.29900337  1
  Li  Li21  1  0.35627601  0.90966416  0.20575407  1
  Li  Li22  1  0.27913930  0.39458500  0.23140050  1
  Li  Li23  1  0.11090342  0.00437277  0.26762121  1
  Li  Li24  1  0.80004924  0.06633172  0.22489981  1
  Li  Li25  1  0.57570857  0.32971606  0.27759243  1
  Li  Li26  1  0.65487728  0.86500884  0.25210084  1
  Li  Li27  1  0.73843962  0.53202229  0.24758538  1
  Li  Li28  1  0.13365042  0.70335640  0.25391346  1
  Li  Li29  1  0.18081981  0.21313120  0.24377521  1
  Li  Li30  1  0.88153992  0.26912584  0.19666770  1
  Li  Li31  1  0.84741537  0.76276771  0.18862512  1
  Li  Li32  1  0.69175644  0.34941749  0.40203201  1
  Li  Li33  1  0.02085906  0.79229783  0.31753290  1
  Li  Li34  1  0.95489797  0.27090947  0.33637178  1
  Li  Li35  1  0.76184638  0.88379337  0.38361529  1
  Li  Li36  1  0.47352959  0.92886991  0.33388937  1
  Li  Li37  1  0.25677657  0.20712054  0.37780711  1
  Li  Li38  1  0.31243954  0.72959707  0.36360421  1
  Li  Li39  1  0.42659054  0.41065006  0.35517312  1
  Li  Li40  1  0.79437290  0.58376751  0.36115904  1
  Li  Li41  1  0.84422526  0.09035387  0.34221628  1
  Li  Li42  1  0.48360299  0.12270977  0.30407838  1
  Li  Li43  1  0.51213176  0.64595852  0.29199252  1
  Li  Li44  1  0.69838336  0.66864225  0.42651576  1
  Li  Li45  1  0.84786578  0.07231677  0.43045521  1
  Li  Li46  1  0.16299589  0.81807889  0.44536210  1
  Li  Li47  1  0.92518297  0.10109086  0.49800469  1
  Li  Li48  1  0.13031676  0.60688515  0.46217767  1
  Li  Li49  1  0.14500861  0.26760107  0.45832762  1
  Li  Li50  1  0.61259404  0.45428124  0.46343163  1
  Li  Li51  1  0.51584362  0.99738125  0.45212802  1
  Li  Li52  1  0.16941075  0.01383001  0.40765688  1
  Li  Li53  1  0.18375944  0.51298140  0.39786472  1
  Li  Li54  1  0.65675725  0.12712901  0.58254617  1
  Li  Li55  1  0.59474353  0.59736652  0.56017492  1
  Li  Li56  1  0.91252509  0.43724355  0.49621596  1
  Li  Li57  1  0.10068360  0.28093263  0.56216121  1
  Li  Li58  1  0.03800627  0.70905267  0.53683227  1
  Li  Li59  1  0.28217194  0.08401836  0.53421539  1
  Li  Li60  1  0.74371650  0.95967986  0.53389224  1
  Li  Li61  1  0.46149933  0.43389638  0.55125933  1
  Li  Li62  1  0.97906323  0.24376657  0.68474059  1
  Li  Li63  1  0.65295426  0.81366804  0.60162689  1
  Li  Li64  1  0.71684760  0.33303425  0.62138734  1
  Li  Li65  1  0.90084814  0.71293201  0.66321640  1
  Li  Li66  1  0.20317818  0.66677481  0.61964391  1
  Li  Li67  1  0.42244457  0.39556947  0.66877782  1
  Li  Li68  1  0.36511905  0.86223909  0.64929587  1
  Li  Li69  1  0.28396113  0.18971724  0.64072496  1
  Li  Li70  1  0.77046244  0.03006227  0.64146344  1
  Li  Li71  1  0.82102676  0.51110352  0.63613090  1
  Li  Li72  1  0.07885849  0.47427952  0.58570691  1
  Li  Li73  1  0.15278281  0.96586782  0.59588382  1
  Li  Li74  1  0.31168540  0.36866224  0.79574882  1
  Li  Li75  1  0.97246448  0.93342256  0.70223155  1
  Li  Li76  1  0.03551206  0.45429270  0.72818115  1
  Li  Li77  1  0.22150721  0.84236918  0.76790885  1
  Li  Li78  1  0.52784806  0.79425825  0.72659290  1
  Li  Li79  1  0.75457766  0.52209322  0.77856068  1
  Li  Li80  1  0.69055274  0.98354751  0.75395240  1
  Li  Li81  1  0.59890533  0.32099756  0.74694741  1
  Li  Li82  1  0.11177989  0.15789025  0.74838372  1
  Li  Li83  1  0.15290774  0.63117085  0.73896164  1
  Li  Li84  1  0.52600220  0.59881318  0.69767608  1
  Li  Li85  1  0.46842619  0.09698405  0.70801622  1
  Li  Li86  1  0.63853083  0.50379184  0.89800363  1
  Li  Li87  1  0.30379137  0.06029463  0.81329741  1
  Li  Li88  1  0.36605638  0.58229425  0.83446829  1
  Li  Li89  1  0.56372934  0.97188546  0.88386352  1
  Li  Li90  1  0.85449607  0.92306582  0.83328762  1
  Li  Li91  1  0.07256993  0.63794339  0.87659749  1
  Li  Li92  1  0.01487763  0.11969451  0.86252723  1
  Li  Li93  1  0.91072809  0.44181844  0.85515099  1
  Li  Li94  1  0.52796164  0.26861119  0.85937569  1
  Li  Li95  1  0.48279083  0.76138404  0.84328647  1
  Li  Li96  1  0.85264300  0.72629814  0.80351391  1
  Li  Li97  1  0.81104436  0.21182079  0.79593820  1
  Li  Li98  1  0.62893779  0.18292435  0.92495186  1
  Li  Li99  1  0.46203622  0.78127110  0.92999687  1
  Li  Li100  1  0.15978122  0.03158707  0.94328731  1
  Li  Li101  1  0.39342007  0.75652732  0.99793221  1
  Li  Li102  1  0.19763290  0.25071336  0.96229290  1
  Li  Li103  1  0.16477050  0.58150111  0.95997205  1
  Li  Li104  1  0.72217146  0.39535331  0.96006218  1
  Li  Li105  1  0.80350759  0.85456730  0.95339095  1
  Li  Li106  1  0.10040695  0.82204327  0.90642163  1
  Li  Li107  1  0.15142372  0.33505955  0.89575072  1
  P  P108  1  0.54117060  0.50818716  0.05318347  1
  P  P109  1  0.15929223  0.36242633  0.02188354  1
  P  P110  1  0.90695549  0.80305785  0.09393870  1
  P  P111  1  0.42587132  0.97400942  0.08964838  1
  P  P112  1  0.20468079  0.38346614  0.16403427  1
  P  P113  1  0.82321965  0.25431297  0.12377491  1
  P  P114  1  0.60435102  0.66734592  0.19737767  1
  P  P115  1  0.10330563  0.84610331  0.19647841  1
  P  P116  1  0.88278303  0.26452934  0.26992784  1
  P  P117  1  0.49538415  0.13084837  0.23080959  1
  P  P118  1  0.27588214  0.54614526  0.30559508  1
  P  P119  1  0.77277929  0.72793431  0.30431729  1
  P  P120  1  0.56081734  0.13955425  0.37599332  1
  P  P121  1  0.17260148  0.00415071  0.33558427  1
  P  P122  1  0.93503640  0.42525976  0.40828166  1
  P  P123  1  0.45194423  0.59668039  0.41654178  1
  P  P124  1  0.20234952  0.04099024  0.47480027  1
  P  P125  1  0.85197463  0.87614568  0.45246933  1
  P  P126  1  0.78559146  0.34813200  0.55278997  1
  P  P127  1  0.15848255  0.49056428  0.51993730  1
  P  P128  1  0.42707657  0.04285033  0.59230146  1
  P  P129  1  0.90851412  0.86802197  0.58943080  1
  P  P130  1  0.12118840  0.45791532  0.66193000  1
  P  P131  1  0.50846909  0.59731058  0.62496855  1
  P  P132  1  0.72787645  0.17932671  0.69729815  1
  P  P133  1  0.22382360  0.00260423  0.69605819  1
  P  P134  1  0.44917318  0.58742108  0.76896038  1
  P  P135  1  0.83099657  0.71729051  0.73056856  1
  P  P136  1  0.05098137  0.30688724  0.80459647  1
  P  P137  1  0.55810714  0.12349877  0.80293743  1
  P  P138  1  0.76861075  0.71606651  0.87542839  1
  P  P139  1  0.15444569  0.84611003  0.83560980  1
  P  P140  1  0.39179933  0.42894040  0.90698966  1
  P  P141  1  0.87666295  0.25415605  0.91438339  1
  P  P142  1  0.11447512  0.81003127  0.97535938  1
  P  P143  1  0.47021533  0.97748984  0.95244805  1
  S  S144  1  0.39918918  0.60232519  0.02688713  1
  S  S145  1  0.30331153  0.27336788  0.04987482  1
  S  S146  1  0.02924986  0.28691879  0.00728083  1
  S  S147  1  0.70003999  0.55311188  0.07013571  1
  S  S148  1  0.82004033  0.78374132  0.05281664  1
  S  S149  1  0.05825551  0.47861951  0.04786490  1
  S  S150  1  0.62792409  0.38803611  0.02653366  1
  S  S151  1  0.52652791  0.03329705  0.05733862  1
  S  S152  1  0.24001675  0.40377092  0.98245304  1
  S  S153  1  0.11020250  0.72481669  0.09194687  1
  S  S154  1  0.22263776  0.03664057  0.08538392  1
  S  S155  1  0.08007624  0.47955385  0.13483288  1
  S  S156  1  0.94605761  0.15712018  0.15335619  1
  S  S157  1  0.65709866  0.21063417  0.10953174  1
  S  S158  1  0.36277674  0.43065306  0.18130278  1
  S  S159  1  0.50877823  0.98786898  0.13209860  1
  S  S160  1  0.51907559  0.65205241  0.15523167  1
  S  S161  1  0.44828595  0.82947074  0.08168206  1
  S  S162  1  0.91246778  0.94248313  0.09872068  1
  S  S163  1  0.74082521  0.37288830  0.15207019  1
  S  S164  1  0.28983987  0.26540797  0.13681858  1
  S  S165  1  0.81510933  0.74441965  0.12851534  1
  S  S166  1  0.20316560  0.89859910  0.16263995  1
  S  S167  1  0.43692263  0.47099576  0.08990130  1
  S  S168  1  0.94026084  0.27398181  0.08782173  1
  S  S169  1  0.80796314  0.60222414  0.20077202  1
  S  S170  1  0.90046705  0.91713134  0.19545688  1
  S  S171  1  0.75250730  0.36069781  0.24183617  1
  S  S172  1  0.62453261  0.03736082  0.25972682  1
  S  S173  1  0.33603570  0.08237787  0.21470580  1
  S  S174  1  0.04278462  0.31014134  0.28663358  1
  S  S175  1  0.19412984  0.85562603  0.23808958  1
  S  S176  1  0.18073365  0.53111419  0.26473098  1
  S  S177  1  0.10990724  0.70139836  0.19212576  1
  S  S178  1  0.59061739  0.81355424  0.20072471  1
  S  S179  1  0.40624781  0.24825863  0.25853444  1
  S  S180  1  0.96991103  0.14902820  0.24113738  1
  S  S181  1  0.50365850  0.61373720  0.23073136  1
  S  S182  1  0.88137857  0.77930917  0.27187973  1
  S  S183  1  0.09048376  0.35890958  0.20087715  1
  S  S184  1  0.60553911  0.15808319  0.19414522  1
  S  S185  1  0.48035811  0.48307075  0.30610137  1
  S  S186  1  0.57219627  0.79885460  0.29813149  1
  S  S187  1  0.44194132  0.23937453  0.34644289  1
  S  S188  1  0.28722634  0.90545277  0.36550641  1
  S  S189  1  0.01447403  0.96241848  0.31597205  1
  S  S190  1  0.73045317  0.18025217  0.38967757  1
  S  S191  1  0.84716548  0.74202631  0.34760945  1
  S  S192  1  0.83729250  0.40848257  0.36796412  1
  S  S193  1  0.78105366  0.58311020  0.30041970  1
  S  S194  1  0.25684090  0.69229566  0.31002042  1
  S  S195  1  0.08582183  0.12288432  0.36278065  1
  S  S196  1  0.63999660  0.01737876  0.34911915  1
  S  S197  1  0.18572858  0.48675818  0.33967093  1
  S  S198  1  0.54199328  0.65385303  0.38177765  1
  S  S199  1  0.77161910  0.23443552  0.30592993  1
  S  S200  1  0.29317238  0.03015528  0.30068239  1
  S  S201  1  0.13681504  0.35281024  0.40704580  1
  S  S202  1  0.24452464  0.66322429  0.41396617  1
  S  S203  1  0.04127036  0.12816140  0.44979902  1
  S  S204  1  0.98714298  0.77690743  0.47796337  1
  S  S205  1  0.68609949  0.83858979  0.43538045  1
  S  S206  1  0.32406527  0.13038235  0.48311422  1
  S  S207  1  0.53091261  0.62109925  0.45777486  1
  S  S208  1  0.46279085  0.45132088  0.41193064  1
  S  S209  1  0.92784089  0.56821474  0.41250613  1
  S  S210  1  0.76336702  0.00232688  0.47752530  1
  S  S211  1  0.30975302  0.92733903  0.44906667  1
  S  S212  1  0.84353887  0.37188220  0.44433509  1
  S  S213  1  0.44259731  0.12316462  0.41163693  1
  S  S214  1  0.95487343  0.90919451  0.41450707  1
  S  S215  1  0.13317224  0.99545554  0.51444970  1
  S  S216  1  0.92605679  0.26370588  0.52417792  1
  S  S217  1  0.97007758  0.55346629  0.53760868  1
  S  S218  1  0.26057573  0.59318839  0.51506716  1
  S  S219  1  0.63689476  0.29287807  0.57102757  1
  S  S220  1  0.51392702  0.05816183  0.55076791  1
  S  S221  1  0.25499003  0.38253544  0.54985547  1
  S  S222  1  0.67724273  0.46329065  0.52596319  1
  S  S223  1  0.80589188  0.80753511  0.55800788  1
  S  S224  1  0.14051250  0.43735543  0.47676450  1
  S  S225  1  0.22307144  0.12023152  0.59063579  1
  S  S226  1  0.11063870  0.80274003  0.58521244  1
  S  S227  1  0.24870031  0.36295778  0.63358234  1
  S  S228  1  0.38366254  0.69011225  0.65476759  1
  S  S229  1  0.67012530  0.64310798  0.60856903  1
  S  S230  1  0.95722251  0.41457709  0.67784010  1
  S  S231  1  0.82783101  0.85830499  0.63258538  1
  S  S232  1  0.81066652  0.19093508  0.65463195  1
  S  S233  1  0.88621057  0.01211353  0.58054623  1
  S  S234  1  0.42009038  0.90318839  0.59780634  1
  S  S235  1  0.59512765  0.47629114  0.65146708  1
  S  S236  1  0.03614075  0.57636472  0.63380772  1
  S  S237  1  0.51771887  0.10115904  0.62667166  1
  S  S238  1  0.12925471  0.95043830  0.66122535  1
  S  S239  1  0.89434530  0.37701601  0.59057910  1
  S  S240  1  0.39664777  0.57704419  0.58781812  1
  S  S241  1  0.52640708  0.25115919  0.70102454  1
  S  S242  1  0.42787730  0.93674532  0.69544009  1
  S  S243  1  0.58575432  0.49092734  0.74201561  1
  S  S244  1  0.71063005  0.81311816  0.76048952  1
  S  S245  1  0.98859739  0.76161994  0.71165692  1
  S  S246  1  0.28770744  0.54046437  0.78394149  1
  S  S247  1  0.12908253  0.98759139  0.73685067  1
  S  S248  1  0.13951617  0.32020994  0.76287981  1
  S  S249  1  0.21260820  0.14860231  0.69283547  1
  S  S250  1  0.73605987  0.03487072  0.70156091  1
  S  S251  1  0.92315791  0.59968593  0.75772126  1
  S  S252  1  0.36468477  0.70243355  0.73997587  1
  S  S253  1  0.83287823  0.23350355  0.73011839  1
  S  S254  1  0.45515013  0.07067896  0.76970991  1
  S  S255  1  0.22779412  0.48719083  0.69896842  1
  S  S256  1  0.71327273  0.69185338  0.69502667  1
  S  S257  1  0.84719752  0.37172726  0.80718242  1
  S  S258  1  0.76118412  0.05608702  0.79906572  1
  S  S259  1  0.88414072  0.61379427  0.84597304  1
  S  S260  1  0.03822055  0.94457615  0.86541943  1
  S  S261  1  0.31325184  0.88821392  0.81647909  1
  S  S262  1  0.60185461  0.67481288  0.89064577  1
  S  S263  1  0.47563174  0.10939380  0.84528304  1
  S  S264  1  0.48350178  0.44520391  0.86580105  1
  S  S265  1  0.54732409  0.26901159  0.79902723  1
  S  S266  1  0.06668507  0.16074525  0.80886848  1
  S  S267  1  0.23982599  0.72675100  0.86264775  1
  S  S268  1  0.68745439  0.83738103  0.84882760  1
  S  S269  1  0.14840712  0.36392076  0.83783387  1
  S  S270  1  0.78493808  0.19852721  0.87948023  1
  S  S271  1  0.55490375  0.61769090  0.80596972  1
  S  S272  1  0.03518383  0.82084373  0.80029318  1
  S  S273  1  0.18850829  0.49790826  0.90758860  1
  S  S274  1  0.08398928  0.18801588  0.91192896  1
  S  S275  1  0.27333763  0.72192121  0.95022831  1
  S  S276  1  0.33148172  0.07657360  0.97757127  1
  S  S277  1  0.63766721  0.01546011  0.93651980  1
  S  S278  1  0.99060459  0.72131575  0.98339121  1
  S  S279  1  0.79759038  0.22877358  0.95541311  1
  S  S280  1  0.86611125  0.40001164  0.91010165  1
  S  S281  1  0.40138460  0.28551670  0.91162795  1
  S  S282  1  0.55640584  0.85018904  0.97721914  1
  S  S283  1  0.00815936  0.92485830  0.94991128  1
  S  S284  1  0.49114845  0.48593836  0.94078169  1
  S  S285  1  0.89095659  0.73287735  0.91055362  1
  S  S286  1  0.36990214  0.94511743  0.91427373  1
  S  S287  1  0.18227636  0.85476485  0.01522069  1
