# generated using pymatgen
data_Li17P5S21
_symmetry_space_group_name_H-M   'P 1'
_cell_length_a   10.24241400
_cell_length_b   14.48086959
_cell_length_c   50.16370680
_cell_angle_alpha   90.00000000
_cell_angle_beta   90.00000000
_cell_angle_gamma   74.68014200
_symmetry_Int_Tables_number   1
_chemical_formula_structural   Li17P5S21
_chemical_formula_sum   'Li136 P40 S168'
_cell_volume   7175.85193459
_cell_formula_units_Z   8
loop_
 _symmetry_equiv_pos_site_id
 _symmetry_equiv_pos_as_xyz
  1  'x, y, z'
loop_
 _atom_site_type_symbol
 _atom_site_label
 _atom_site_symmetry_multiplicity
 _atom_site_fract_x
 _atom_site_fract_y
 _atom_site_fract_z
 _atom_site_occupancy
  Li  Li0  1  0.68800825  0.75889760  0.06082746  1
  Li  Li1  1  0.68812571  0.08745586  0.07979213  1
  Li  Li2  1  0.85896490  0.64622558  0.01732979  1
  Li  Li3  1  0.72835832  0.30973580  0.03432263  1
  Li  Li4  1  0.27411356  0.45259900  0.00947211  1
  Li  Li5  1  0.21680457  0.65711476  0.03908710  1
  Li  Li6  1  0.34463590  0.15724427  0.02463385  1
  Li  Li7  1  0.42338199  0.84048902  0.01448220  1
  Li  Li8  1  0.80402067  0.98954120  0.02883682  1
  Li  Li9  1  0.08131287  0.45379304  0.05060165  1
  Li  Li10  1  0.41489076  0.37916646  0.06090709  1
  Li  Li11  1  0.20093179  0.91964936  0.07846654  1
  Li  Li12  1  0.36847570  0.64462576  0.14629071  1
  Li  Li13  1  0.37506994  0.95318916  0.16503230  1
  Li  Li14  1  0.62278916  0.55365623  0.09193758  1
  Li  Li15  1  0.41247719  0.16811635  0.13163698  1
  Li  Li16  1  0.16810588  0.25203355  0.07131093  1
  Li  Li17  1  0.91911845  0.50231365  0.13197453  1
  Li  Li18  1  0.97598156  0.03139935  0.11677739  1
  Li  Li19  1  0.06193593  0.69332883  0.11083470  1
  Li  Li20  1  0.58442897  0.85718764  0.11209114  1
  Li  Li21  1  0.54373247  0.34136884  0.12356598  1
  Li  Li22  1  0.92256680  0.30434966  0.15462115  1
  Li  Li23  1  0.87655361  0.79163229  0.16707303  1
  Li  Li24  1  0.04062766  0.51856229  0.24173183  1
  Li  Li25  1  0.05095467  0.82418366  0.25708643  1
  Li  Li26  1  0.29089960  0.42300448  0.18632021  1
  Li  Li27  1  0.10530865  0.03948440  0.22277908  1
  Li  Li28  1  0.82036166  0.10420330  0.18046966  1
  Li  Li29  1  0.59741913  0.37712036  0.22302987  1
  Li  Li30  1  0.65654757  0.90192304  0.20800311  1
  Li  Li31  1  0.74194490  0.56779616  0.20184814  1
  Li  Li32  1  0.25688206  0.72952638  0.20139158  1
  Li  Li33  1  0.22141459  0.21586261  0.21392489  1
  Li  Li34  1  0.59777596  0.18097623  0.24950098  1
  Li  Li35  1  0.54971036  0.66918272  0.25677412  1
  Li  Li36  1  0.71145927  0.39536159  0.33284630  1
  Li  Li37  1  0.71939515  0.70354148  0.35019280  1
  Li  Li38  1  0.97038003  0.29690079  0.27826574  1
  Li  Li39  1  0.79165689  0.91081450  0.31532896  1
  Li  Li40  1  0.49530086  0.98032379  0.27410993  1
  Li  Li41  1  0.27729831  0.24021080  0.31785326  1
  Li  Li42  1  0.34181549  0.78165552  0.29763153  1
  Li  Li43  1  0.42456164  0.43827095  0.29195641  1
  Li  Li44  1  0.84895406  0.61511003  0.29669867  1
  Li  Li45  1  0.89644711  0.08805089  0.30440325  1
  Li  Li46  1  0.18349097  0.03666772  0.34416705  1
  Li  Li47  1  0.20926927  0.55524312  0.33105942  1
  Li  Li48  1  0.38770037  0.26541817  0.42126139  1
  Li  Li49  1  0.37754499  0.57786647  0.44164212  1
  Li  Li50  1  0.67100706  0.18045171  0.37073081  1
  Li  Li51  1  0.49059315  0.80191511  0.40610254  1
  Li  Li52  1  0.17280365  0.84054395  0.36873826  1
  Li  Li53  1  0.92314003  0.10704821  0.43143160  1
  Li  Li54  1  0.00601824  0.65386739  0.38967714  1
  Li  Li55  1  0.10723115  0.30758051  0.38121210  1
  Li  Li56  1  0.49354641  0.49482670  0.38728539  1
  Li  Li57  1  0.54792108  0.00904760  0.37894976  1
  Li  Li58  1  0.94879866  0.91986319  0.44345757  1
  Li  Li59  1  0.87298085  0.43275764  0.41635660  1
  Li  Li60  1  0.42496171  0.99246341  0.45452419  1
  Li  Li61  1  0.14308708  0.64966503  0.49188651  1
  Li  Li62  1  0.85819962  0.73016447  0.45823085  1
  Li  Li63  1  0.83977366  0.91467787  0.49287073  1
  Li  Li64  1  0.73913734  0.52859626  0.47036560  1
  Li  Li65  1  0.77833611  0.21671733  0.47576072  1
  Li  Li66  1  0.28464799  0.34579631  0.47369803  1
  Li  Li67  1  0.21969044  0.85364975  0.46799949  1
  Li  Li68  1  0.66233879  0.16728674  0.56094944  1
  Li  Li69  1  0.66272398  0.83800929  0.57943656  1
  Li  Li70  1  0.49274665  0.27967211  0.51706562  1
  Li  Li71  1  0.62102385  0.61607664  0.53408400  1
  Li  Li72  1  0.07679684  0.47258745  0.50945592  1
  Li  Li73  1  0.13390568  0.26948601  0.53891930  1
  Li  Li74  1  0.00891445  0.76895371  0.52421273  1
  Li  Li75  1  0.92547341  0.08713394  0.51513466  1
  Li  Li76  1  0.54695666  0.93580763  0.52859521  1
  Li  Li77  1  0.26889707  0.47255439  0.55053116  1
  Li  Li78  1  0.93249522  0.54680318  0.56041341  1
  Li  Li79  1  0.14942096  0.00542547  0.57814544  1
  Li  Li80  1  0.98273131  0.27941375  0.64592367  1
  Li  Li81  1  0.97662217  0.97169679  0.66532535  1
  Li  Li82  1  0.72728184  0.37251642  0.59192440  1
  Li  Li83  1  0.93749494  0.75773569  0.63143951  1
  Li  Li84  1  0.18199558  0.67429425  0.57132514  1
  Li  Li85  1  0.43014130  0.42167294  0.63139585  1
  Li  Li86  1  0.37377341  0.89384355  0.61644263  1
  Li  Li87  1  0.28735284  0.23320376  0.61029086  1
  Li  Li88  1  0.76595753  0.06891884  0.61181817  1
  Li  Li89  1  0.80658895  0.58393251  0.62322842  1
  Li  Li90  1  0.42819252  0.62086313  0.65441648  1
  Li  Li91  1  0.47327674  0.13393520  0.66675980  1
  Li  Li92  1  0.30952536  0.40485350  0.74159164  1
  Li  Li93  1  0.29750234  0.10002904  0.75665775  1
  Li  Li94  1  0.06146870  0.50082780  0.68592269  1
  Li  Li95  1  0.24392801  0.88456718  0.72243678  1
  Li  Li96  1  0.53120411  0.82026312  0.68041631  1
  Li  Li97  1  0.75228362  0.54740431  0.72270283  1
  Li  Li98  1  0.69142893  0.02176475  0.70782212  1
  Li  Li99  1  0.60994864  0.35601026  0.70167886  1
  Li  Li100  1  0.09276491  0.19600686  0.70112949  1
  Li  Li101  1  0.12915407  0.70744617  0.71352365  1
  Li  Li102  1  0.75365773  0.74350964  0.74938281  1
  Li  Li103  1  0.80094761  0.25488485  0.75607462  1
  Li  Li104  1  0.63741479  0.53043279  0.83288585  1
  Li  Li105  1  0.62939220  0.22192323  0.85044241  1
  Li  Li106  1  0.38154718  0.62786692  0.77823956  1
  Li  Li107  1  0.55957929  0.01432424  0.81500458  1
  Li  Li108  1  0.85509317  0.94507378  0.77364843  1
  Li  Li109  1  0.07233607  0.68581546  0.81770418  1
  Li  Li110  1  0.00730213  0.14149662  0.79729308  1
  Li  Li111  1  0.92298476  0.48485581  0.79177993  1
  Li  Li112  1  0.50326388  0.30942821  0.79672966  1
  Li  Li113  1  0.45224854  0.83648178  0.80391688  1
  Li  Li114  1  0.16821259  0.88709823  0.84422541  1
  Li  Li115  1  0.14032831  0.36894787  0.83095520  1
  Li  Li116  1  0.96107696  0.65911088  0.92134136  1
  Li  Li117  1  0.97033523  0.34879229  0.94135465  1
  Li  Li118  1  0.67721481  0.74483274  0.87030456  1
  Li  Li119  1  0.86261183  0.12356777  0.90637267  1
  Li  Li120  1  0.17825192  0.08432373  0.86825353  1
  Li  Li121  1  0.42703703  0.81724504  0.93107956  1
  Li  Li122  1  0.34085578  0.27052151  0.88989292  1
  Li  Li123  1  0.23976014  0.61572120  0.88111755  1
  Li  Li124  1  0.85181411  0.42996473  0.88718866  1
  Li  Li125  1  0.80215522  0.91569585  0.87915840  1
  Li  Li126  1  0.39987935  0.00474651  0.94342426  1
  Li  Li127  1  0.47330004  0.49342857  0.91635776  1
  Li  Li128  1  0.92289338  0.93400898  0.95453202  1
  Li  Li129  1  0.20379585  0.27465164  0.99239200  1
  Li  Li130  1  0.48981950  0.19682440  0.95827370  1
  Li  Li131  1  0.51240640  0.01025499  0.99264837  1
  Li  Li132  1  0.61363225  0.39811288  0.97068933  1
  Li  Li133  1  0.57260551  0.70799907  0.97593503  1
  Li  Li134  1  0.06500426  0.57852078  0.97359123  1
  Li  Li135  1  0.13178838  0.07048672  0.96826811  1
  P  P136  1  0.92751131  0.83894532  0.06896822  1
  P  P137  1  0.44637722  0.00744667  0.06648854  1
  P  P138  1  0.51792067  0.57131753  0.03513314  1
  P  P139  1  0.61804599  0.70782446  0.15841619  1
  P  P140  1  0.11760479  0.88898775  0.15799672  1
  P  P141  1  0.21835517  0.42729467  0.12688636  1
  P  P142  1  0.83127753  0.30098432  0.09237010  1
  P  P143  1  0.29626943  0.58167831  0.25035872  1
  P  P144  1  0.79272825  0.76353240  0.24963316  1
  P  P145  1  0.89833133  0.30081647  0.21946938  1
  P  P146  1  0.51562084  0.16824304  0.18758349  1
  P  P147  1  0.97015236  0.45593381  0.34054410  1
  P  P148  1  0.46913334  0.63887957  0.33993695  1
  P  P149  1  0.58138033  0.17434869  0.31335873  1
  P  P150  1  0.19042605  0.04354976  0.27994460  1
  P  P151  1  0.63123159  0.34163844  0.43185879  1
  P  P152  1  0.13810619  0.50439489  0.43058924  1
  P  P153  1  0.24969363  0.04711673  0.40521550  1
  P  P154  1  0.86793516  0.92097631  0.37392967  1
  P  P155  1  0.53704940  0.78812079  0.46783052  1
  P  P156  1  0.42304278  0.08625259  0.56868653  1
  P  P157  1  0.90418569  0.91809206  0.56642611  1
  P  P158  1  0.83198887  0.35513311  0.53502296  1
  P  P159  1  0.73236044  0.21710565  0.65822449  1
  P  P160  1  0.23308785  0.03588931  0.65773452  1
  P  P161  1  0.13143744  0.49842539  0.62656553  1
  P  P162  1  0.51862045  0.62477778  0.59229138  1
  P  P163  1  0.05297147  0.34259532  0.75005098  1
  P  P164  1  0.55633108  0.16141187  0.74931083  1
  P  P165  1  0.45243783  0.62301347  0.71942631  1
  P  P166  1  0.83573782  0.75565125  0.68744322  1
  P  P167  1  0.37894258  0.46860995  0.84046379  1
  P  P168  1  0.88033908  0.28500664  0.83976314  1
  P  P169  1  0.76827640  0.75066160  0.81299579  1
  P  P170  1  0.15895230  0.88091902  0.77970139  1
  P  P171  1  0.71745782  0.58361168  0.93163674  1
  P  P172  1  0.21063989  0.42015574  0.93060315  1
  P  P173  1  0.10091120  0.87772856  0.90529926  1
  P  P174  1  0.48268281  0.00332080  0.87372476  1
  P  P175  1  0.81354784  0.13848813  0.96789435  1
  S  S176  1  0.13042001  0.77383496  0.07282247  1
  S  S177  1  0.24683199  0.07325610  0.06103337  1
  S  S178  1  0.41133808  0.67536495  0.01011869  1
  S  S179  1  0.26128382  0.31951433  0.03459083  1
  S  S180  1  0.66178077  0.25907808  0.07968558  1
  S  S181  1  0.70120693  0.59191674  0.04717603  1
  S  S182  1  0.84268204  0.82089107  0.03281790  1
  S  S183  1  0.45847160  0.86335278  0.06281031  1
  S  S184  1  0.91632714  0.98478222  0.07219262  1
  S  S185  1  0.08176070  0.57579184  0.01917471  1
  S  S186  1  0.54183522  0.44124977  0.01565717  1
  S  S187  1  0.56040994  0.06029311  0.03892026  1
  S  S188  1  0.40974324  0.55825803  0.06873509  1
  S  S189  1  0.92622380  0.33092161  0.05895096  1
  S  S190  1  0.81965589  0.63689340  0.16237742  1
  S  S191  1  0.91368180  0.95324803  0.15658456  1
  S  S192  1  0.09455344  0.52149975  0.10112497  1
  S  S193  1  0.96397157  0.20168602  0.11498886  1
  S  S194  1  0.35145430  0.12268873  0.17562555  1
  S  S195  1  0.37149216  0.47621384  0.14397786  1
  S  S196  1  0.52151698  0.02872084  0.10345990  1
  S  S197  1  0.53894882  0.69779680  0.12123461  1
  S  S198  1  0.13480876  0.74268076  0.15488647  1
  S  S199  1  0.60942061  0.85261275  0.16295805  1
  S  S200  1  0.75211981  0.41596070  0.11790015  1
  S  S201  1  0.31797124  0.30866879  0.10510329  1
  S  S202  1  0.83013709  0.78292944  0.09813312  1
  S  S203  1  0.21323706  0.94727473  0.12914231  1
  S  S204  1  0.10461688  0.39890532  0.15813365  1
  S  S205  1  0.62036152  0.19481360  0.15496839  1
  S  S206  1  0.49907293  0.51176687  0.25318525  1
  S  S207  1  0.58937647  0.83105282  0.24824426  1
  S  S208  1  0.77897840  0.39549895  0.19332759  1
  S  S209  1  0.65027416  0.07178203  0.21123684  1
  S  S210  1  0.02999653  0.99590085  0.26648327  1
  S  S211  1  0.05486935  0.34641118  0.23599781  1
  S  S212  1  0.20924627  0.90376329  0.19372525  1
  S  S213  1  0.21014238  0.56954378  0.21413274  1
  S  S214  1  0.80355414  0.61766832  0.24635184  1
  S  S215  1  0.28749663  0.72694008  0.25352727  1
  S  S216  1  0.43402842  0.28588481  0.21195277  1
  S  S217  1  0.99102633  0.18247455  0.19631536  1
  S  S218  1  0.51210387  0.65323655  0.18615023  1
  S  S219  1  0.89201853  0.81678901  0.22059520  1
  S  S220  1  0.78230082  0.27536996  0.25051042  1
  S  S221  1  0.29754547  0.07262783  0.24808335  1
  S  S222  1  0.17382872  0.39137389  0.34245543  1
  S  S223  1  0.26752090  0.70989394  0.33667356  1
  S  S224  1  0.45396142  0.26634639  0.28768795  1
  S  S225  1  0.32160271  0.95044626  0.30472600  1
  S  S226  1  0.71092309  0.87181536  0.35845118  1
  S  S227  1  0.74058629  0.22295255  0.32705327  1
  S  S228  1  0.88432375  0.77475144  0.28556056  1
  S  S229  1  0.88000827  0.44305524  0.30466105  1
  S  S230  1  0.47648282  0.49425878  0.33638161  1
  S  S231  1  0.95276890  0.60234779  0.34449661  1
  S  S232  1  0.10317088  0.15995824  0.30443363  1
  S  S233  1  0.67025588  0.05528744  0.29000528  1
  S  S234  1  0.19338153  0.52869347  0.27909264  1
  S  S235  1  0.57475373  0.69186402  0.31140794  1
  S  S236  1  0.47055089  0.14972762  0.34518237  1
  S  S237  1  0.98172471  0.94342398  0.34143030  1
  S  S238  1  0.83534358  0.28462010  0.43393947  1
  S  S239  1  0.93373130  0.57609619  0.42988506  1
  S  S240  1  0.10718194  0.14043742  0.38307819  1
  S  S241  1  0.99344958  0.82355598  0.39875838  1
  S  S242  1  0.40203597  0.73665616  0.44558176  1
  S  S243  1  0.41267860  0.09721307  0.41662433  1
  S  S244  1  0.55105314  0.65098097  0.37663323  1
  S  S245  1  0.54752392  0.32170794  0.39571028  1
  S  S246  1  0.15095527  0.35978628  0.42660977  1
  S  S247  1  0.60819953  0.48825947  0.43428058  1
  S  S248  1  0.77871272  0.03805466  0.39668832  1
  S  S249  1  0.33688795  0.93151543  0.38023503  1
  S  S250  1  0.87262023  0.39675798  0.36880759  1
  S  S251  1  0.23473915  0.56408764  0.40235992  1
  S  S252  1  0.16246501  0.01291642  0.43930993  1
  S  S253  1  0.63832229  0.85219066  0.44130726  1
  S  S254  1  0.85109948  0.05338128  0.47349943  1
  S  S255  1  0.67784809  0.68980555  0.48952716  1
  S  S256  1  0.22463658  0.51235655  0.46704171  1
  S  S257  1  0.41826950  0.88859334  0.49294618  1
  S  S258  1  0.02537529  0.79636439  0.47655119  1
  S  S259  1  0.53529045  0.28355666  0.46102032  1
  S  S260  1  0.21995697  0.15131675  0.57235785  1
  S  S261  1  0.10397594  0.85286917  0.56093983  1
  S  S262  1  0.93870036  0.25119775  0.50999860  1
  S  S263  1  0.08847293  0.60657599  0.53444831  1
  S  S264  1  0.68810976  0.66653947  0.57951338  1
  S  S265  1  0.64881005  0.33437146  0.54702254  1
  S  S266  1  0.50880799  0.10445589  0.53265370  1
  S  S267  1  0.89163658  0.06238190  0.56297188  1
  S  S268  1  0.43431604  0.94040124  0.57186509  1
  S  S269  1  0.26985917  0.35018445  0.51924551  1
  S  S270  1  0.80854846  0.48520276  0.51555459  1
  S  S271  1  0.79130232  0.86470279  0.53876330  1
  S  S272  1  0.94009508  0.36800018  0.56863272  1
  S  S273  1  0.42348669  0.59509304  0.55885640  1
  S  S274  1  0.53074930  0.28812219  0.66218319  1
  S  S275  1  0.43694545  0.97146116  0.65628295  1
  S  S276  1  0.25451527  0.40450802  0.60057676  1
  S  S277  1  0.38616625  0.72400823  0.61494885  1
  S  S278  1  0.99959770  0.80155061  0.67544402  1
  S  S279  1  0.97899536  0.44868512  0.64362045  1
  S  S280  1  0.82882188  0.89674227  0.60334283  1
  S  S281  1  0.81069974  0.22792391  0.62099346  1
  S  S282  1  0.21566093  0.18223634  0.65449432  1
  S  S283  1  0.74177662  0.07231228  0.66278145  1
  S  S284  1  0.59765423  0.50974988  0.61781459  1
  S  S285  1  0.03207340  0.61733480  0.60492214  1
  S  S286  1  0.51963331  0.14216075  0.59801610  1
  S  S287  1  0.13689237  0.97759973  0.62897035  1
  S  S288  1  0.24627458  0.52574855  0.65777437  1
  S  S289  1  0.73043666  0.72978657  0.65483325  1
  S  S290  1  0.85014530  0.41245285  0.75268802  1
  S  S291  1  0.75975074  0.09376774  0.74778473  1
  S  S292  1  0.57137665  0.52850985  0.69320640  1
  S  S293  1  0.70134678  0.85190850  0.71122355  1
  S  S294  1  0.31920110  0.92839730  0.76611519  1
  S  S295  1  0.29595930  0.57764988  0.73604588  1
  S  S296  1  0.14215742  0.02147632  0.69359029  1
  S  S297  1  0.14009361  0.35464296  0.71389805  1
  S  S298  1  0.54625365  0.30715305  0.74609831  1
  S  S299  1  0.06157442  0.19729863  0.75317554  1
  S  S300  1  0.91742208  0.63777420  0.71167739  1
  S  S301  1  0.36019748  0.74150050  0.69624971  1
  S  S302  1  0.83876687  0.27185354  0.68585096  1
  S  S303  1  0.45685258  0.10832039  0.72024753  1
  S  S304  1  0.56882846  0.64878202  0.75039014  1
  S  S305  1  0.05190886  0.85161693  0.74784735  1
  S  S306  1  0.17511296  0.53310985  0.84209091  1
  S  S307  1  0.08192551  0.21421458  0.83621846  1
  S  S308  1  0.89596220  0.65763920  0.78757365  1
  S  S309  1  0.02808187  0.97344264  0.80463905  1
  S  S310  1  0.63952228  0.05254121  0.85822277  1
  S  S311  1  0.60854505  0.70242807  0.82666687  1
  S  S312  1  0.46479894  0.15010241  0.78520576  1
  S  S313  1  0.47003357  0.48129579  0.80467022  1
  S  S314  1  0.87221176  0.42978533  0.83631695  1
  S  S315  1  0.39612593  0.32226692  0.84451926  1
  S  S316  1  0.24690553  0.76461364  0.80420582  1
  S  S317  1  0.67999361  0.86951297  0.78954203  1
  S  S318  1  0.15508965  0.39567561  0.77885568  1
  S  S319  1  0.77435028  0.23213956  0.81129115  1
  S  S320  1  0.87854140  0.77550519  0.84488532  1
  S  S321  1  0.36865213  0.98111397  0.84121704  1
  S  S322  1  0.51356797  0.64061623  0.93403762  1
  S  S323  1  0.41487607  0.34882808  0.92965074  1
  S  S324  1  0.24260671  0.78335601  0.88323604  1
  S  S325  1  0.35714561  0.10050646  0.89864764  1
  S  S326  1  0.95055063  0.18906770  0.94598677  1
  S  S327  1  0.93789069  0.82780847  0.91687363  1
  S  S328  1  0.79947643  0.27253761  0.87655955  1
  S  S329  1  0.80092471  0.60369263  0.89549821  1
  S  S330  1  0.19812604  0.56489880  0.92669573  1
  S  S331  1  0.73990723  0.43700203  0.93391729  1
  S  S332  1  0.57191668  0.88634135  0.89652935  1
  S  S333  1  0.01422555  0.99327577  0.88029095  1
  S  S334  1  0.47563586  0.52851651  0.86873033  1
  S  S335  1  0.11295281  0.36176270  0.90227047  1
  S  S336  1  0.18874085  0.91217698  0.93931692  1
  S  S337  1  0.71199124  0.07525390  0.94121248  1
  S  S338  1  0.50190907  0.87162741  0.97310953  1
  S  S339  1  0.67283025  0.23697868  0.98956935  1
  S  S340  1  0.12474332  0.41183237  0.96710288  1
  S  S341  1  0.93115260  0.03721874  0.99300295  1
  S  S342  1  0.32529405  0.12872829  0.97685293  1
  S  S343  1  0.81457903  0.64052482  0.96086395  1
