# generated using pymatgen
data_Li3PS4
_symmetry_space_group_name_H-M   'P 1'
_cell_length_a   10.24241400
_cell_length_b   14.48086959
_cell_length_c   47.19101096
_cell_angle_alpha   90.00000000
_cell_angle_beta   90.00000000
_cell_angle_gamma   74.68014200
_symmetry_Int_Tables_number   1
_chemical_formula_structural   Li3PS4
_chemical_formula_sum   'Li120 P40 S160'
_cell_volume   6750.61172525
_cell_formula_units_Z   40
loop_
 _symmetry_equiv_pos_site_id
 _symmetry_equiv_pos_as_xyz
  1  'x, y, z'
loop_
 _atom_site_type_symbol
 _atom_site_label
 _atom_site_symmetry_multiplicity
 _atom_site_fract_x
 _atom_site_fract_y
 _atom_site_fract_z
 _atom_site_occupancy
  Li  Li0  1  0.52758279  0.89939334  0.00940658  1
  Li  Li1  1  0.59925045  0.07686866  0.05873359  1
  Li  Li2  1  0.43131600  0.35063388  0.03846156  1
  Li  Li3  1  0.13773746  0.58805524  0.03867824  1
  Li  Li4  1  0.26620870  0.83930919  0.99791595  1
  Li  Li5  1  0.76009377  0.43449907  0.01763282  1
  Li  Li6  1  0.05357467  0.40000624  0.05459850  1
  Li  Li7  1  0.09856671  0.92647990  0.06305688  1
  Li  Li8  1  0.27571809  0.64806298  0.14370954  1
  Li  Li9  1  0.28501727  0.95425426  0.15568479  1
  Li  Li10  1  0.53698909  0.55419156  0.08440338  1
  Li  Li11  1  0.34198408  0.16500080  0.12151194  1
  Li  Li12  1  0.04688414  0.21727840  0.08395888  1
  Li  Li13  1  0.82699042  0.50722146  0.12402827  1
  Li  Li14  1  0.87762478  0.02739519  0.10619953  1
  Li  Li15  1  0.98840008  0.69855690  0.09791171  1
  Li  Li16  1  0.49484175  0.84776940  0.09242669  1
  Li  Li17  1  0.45627461  0.34585789  0.11361620  1
  Li  Li18  1  0.81858228  0.31254322  0.15196965  1
  Li  Li19  1  0.77170161  0.80616473  0.14059069  1
  Li  Li20  1  0.95104424  0.52257971  0.23884568  1
  Li  Li21  1  0.95247047  0.83474599  0.26069031  1
  Li  Li22  1  0.20006661  0.42813306  0.18218591  1
  Li  Li23  1  0.02762032  0.04211217  0.21698157  1
  Li  Li24  1  0.72445501  0.11116469  0.17617457  1
  Li  Li25  1  0.50336415  0.37579543  0.22497946  1
  Li  Li26  1  0.58436225  0.90432317  0.20096892  1
  Li  Li27  1  0.66788263  0.57454716  0.19630625  1
  Li  Li28  1  0.06566598  0.74840386  0.20171522  1
  Li  Li29  1  0.12466916  0.22315086  0.20795039  1
  Li  Li30  1  0.42315683  0.17130179  0.24989259  1
  Li  Li31  1  0.44493920  0.68273920  0.23926603  1
  Li  Li32  1  0.62201148  0.40068109  0.33937800  1
  Li  Li33  1  0.63217933  0.70045362  0.35562939  1
  Li  Li34  1  0.88407088  0.31215707  0.28093056  1
  Li  Li35  1  0.68860246  0.92537426  0.31833251  1
  Li  Li36  1  0.40206783  0.97472984  0.27482680  1
  Li  Li37  1  0.18173940  0.24616093  0.32196903  1
  Li  Li38  1  0.24985854  0.77420526  0.30088366  1
  Li  Li39  1  0.32456048  0.45770705  0.29760305  1
  Li  Li40  1  0.83493998  0.60978407  0.29633723  1
  Li  Li41  1  0.77693926  0.13435536  0.28773144  1
  Li  Li42  1  0.08093725  0.03665325  0.34724021  1
  Li  Li43  1  0.13254437  0.54907576  0.35668604  1
  Li  Li44  1  0.30126526  0.26312668  0.43699426  1
  Li  Li45  1  0.27573689  0.59334012  0.45643616  1
  Li  Li46  1  0.58229209  0.18924409  0.37690943  1
  Li  Li47  1  0.45450421  0.82912764  0.40402603  1
  Li  Li48  1  0.07850555  0.84103242  0.37585917  1
  Li  Li49  1  0.85863216  0.13325450  0.42261773  1
  Li  Li50  1  0.91368997  0.65067859  0.40148334  1
  Li  Li51  1  0.01696915  0.31305992  0.38875456  1
  Li  Li52  1  0.42098340  0.49399268  0.40069334  1
  Li  Li53  1  0.44435155  0.02378721  0.38390842  1
  Li  Li54  1  0.84901406  0.94024754  0.44301743  1
  Li  Li55  1  0.80261458  0.41846173  0.43320446  1
  Li  Li56  1  0.50463558  0.09781716  0.50354869  1
  Li  Li57  1  0.90574075  0.61176941  0.49853253  1
  Li  Li58  1  0.62795551  0.51252306  0.49991546  1
  Li  Li59  1  0.26100045  0.92018967  0.47286821  1
  Li  Li60  1  0.09609205  0.37616198  0.50951381  1
  Li  Li61  1  0.02751672  0.19721322  0.55871574  1
  Li  Li62  1  0.19452083  0.92365222  0.53882025  1
  Li  Li63  1  0.49229553  0.68574475  0.53854017  1
  Li  Li64  1  0.36035443  0.43503755  0.49803853  1
  Li  Li65  1  0.86809738  0.83732704  0.51833924  1
  Li  Li66  1  0.57356483  0.87439329  0.55434865  1
  Li  Li67  1  0.52797860  0.34845257  0.56323896  1
  Li  Li68  1  0.34954685  0.62837302  0.64433987  1
  Li  Li69  1  0.34061573  0.32125093  0.65672371  1
  Li  Li70  1  0.09157914  0.72068612  0.58433480  1
  Li  Li71  1  0.28515892  0.10974807  0.62219014  1
  Li  Li72  1  0.57968372  0.05690703  0.58373395  1
  Li  Li73  1  0.79994002  0.76812649  0.62332222  1
  Li  Li74  1  0.74519629  0.24836177  0.60614246  1
  Li  Li75  1  0.63915810  0.57621604  0.59814408  1
  Li  Li76  1  0.13237168  0.42695020  0.59262318  1
  Li  Li77  1  0.17076358  0.93063262  0.61363213  1
  Li  Li78  1  0.80413061  0.96141589  0.65186923  1
  Li  Li79  1  0.85344420  0.47151954  0.64099457  1
  Li  Li80  1  0.67321697  0.75487849  0.73904762  1
  Li  Li81  1  0.67206906  0.44199046  0.76062811  1
  Li  Li82  1  0.42304533  0.84867541  0.68201353  1
  Li  Li83  1  0.59941666  0.23552640  0.71814686  1
  Li  Li84  1  0.89787460  0.16508978  0.67445928  1
  Li  Li85  1  0.12342017  0.89332948  0.72402840  1
  Li  Li86  1  0.04056090  0.37320344  0.70157167  1
  Li  Li87  1  0.95511491  0.69933596  0.69650990  1
  Li  Li88  1  0.55780915  0.52868872  0.70172290  1
  Li  Li89  1  0.49521665  0.05564912  0.71013104  1
  Li  Li90  1  0.13826737  0.09004390  0.74874482  1
  Li  Li91  1  0.18026873  0.59336700  0.74044776  1
  Li  Li92  1  0.00354698  0.87342000  0.83943221  1
  Li  Li93  1  0.99256126  0.57534677  0.85638759  1
  Li  Li94  1  0.74795262  0.96285874  0.78144924  1
  Li  Li95  1  0.93391217  0.34942564  0.81847153  1
  Li  Li96  1  0.22167871  0.29478721  0.77386473  1
  Li  Li97  1  0.44178302  0.02914820  0.82036852  1
  Li  Li98  1  0.37427186  0.50006665  0.80115005  1
  Li  Li99  1  0.30012287  0.81912240  0.79800015  1
  Li  Li100  1  0.78803764  0.66411318  0.79657314  1
  Li  Li101  1  0.84122331  0.14579049  0.79069147  1
  Li  Li102  1  0.54363304  0.23722211  0.84688686  1
  Li  Li103  1  0.49296836  0.72557215  0.85668387  1
  Li  Li104  1  0.32243557  0.01142526  0.93698674  1
  Li  Li105  1  0.35085441  0.67961970  0.95642251  1
  Li  Li106  1  0.04579566  0.08649225  0.87742035  1
  Li  Li107  1  0.17150731  0.44687160  0.90431392  1
  Li  Li108  1  0.54404159  0.43296519  0.87571972  1
  Li  Li109  1  0.76563518  0.14093647  0.92217555  1
  Li  Li110  1  0.71047607  0.62307365  0.90139144  1
  Li  Li111  1  0.60476816  0.96066024  0.88844667  1
  Li  Li112  1  0.20538048  0.78077597  0.90103564  1
  Li  Li113  1  0.18406495  0.25165623  0.88324148  1
  Li  Li114  1  0.77947161  0.33359355  0.94265684  1
  Li  Li115  1  0.82100405  0.85573629  0.93267449  1
  Li  Li116  1  0.12115258  0.17578393  0.00346206  1
  Li  Li117  1  0.72253339  0.66307520  0.99877336  1
  Li  Li118  1  0.99805340  0.76147123  0.99995392  1
  Li  Li119  1  0.36557881  0.35591252  0.97316183  1
  P  P120  1  0.84123380  0.83746513  0.05410007  1
  P  P121  1  0.33786372  0.02013827  0.05177376  1
  P  P122  1  0.44310707  0.54439377  0.02388470  1
  P  P123  1  0.53059098  0.71314428  0.15129744  1
  P  P124  1  0.02623941  0.89185484  0.14994950  1
  P  P125  1  0.12780822  0.42882410  0.12000827  1
  P  P126  1  0.74533527  0.29300467  0.08662369  1
  P  P127  1  0.19739082  0.59021172  0.24919297  1
  P  P128  1  0.70630523  0.76765278  0.24888956  1
  P  P129  1  0.81004898  0.30572446  0.21939966  1
  P  P130  1  0.42031641  0.17264413  0.18270139  1
  P  P131  1  0.87843782  0.46214082  0.34777432  1
  P  P132  1  0.37710086  0.64419958  0.34889789  1
  P  P133  1  0.48559161  0.18512765  0.31618467  1
  P  P134  1  0.09950350  0.04953263  0.27963297  1
  P  P135  1  0.55346883  0.32828345  0.44830220  1
  P  P136  1  0.05160879  0.49643852  0.44178947  1
  P  P137  1  0.15864824  0.05066732  0.41285074  1
  P  P138  1  0.77611467  0.92133937  0.38064162  1
  P  P139  1  0.56232859  0.86601516  0.48875221  1
  P  P140  1  0.78458781  0.43742211  0.55418118  1
  P  P141  1  0.28827765  0.25428099  0.55184866  1
  P  P142  1  0.18525329  0.72978760  0.52384419  1
  P  P143  1  0.09606812  0.56260458  0.65137860  1
  P  P144  1  0.59936418  0.38476266  0.64994831  1
  P  P145  1  0.49869169  0.84590046  0.61992287  1
  P  P146  1  0.88189909  0.98163187  0.58663820  1
  P  P147  1  0.42769127  0.68614070  0.74958230  1
  P  P148  1  0.91845633  0.50839636  0.74917952  1
  P  P149  1  0.81696572  0.97140716  0.71924452  1
  P  P150  1  0.20194760  0.10277711  0.68289045  1
  P  P151  1  0.74658438  0.81279817  0.84745608  1
  P  P152  1  0.24862724  0.63074124  0.84917246  1
  P  P153  1  0.13657593  0.08955454  0.81627355  1
  P  P154  1  0.52624188  0.22677572  0.77946718  1
  P  P155  1  0.07115803  0.94561125  0.94840249  1
  P  P156  1  0.57393988  0.77751887  0.94172282  1
  P  P157  1  0.46550329  0.22316267  0.91277400  1
  P  P158  1  0.84855964  0.35343584  0.88056852  1
  P  P159  1  0.06473521  0.40906882  0.98880739  1
  S  S160  1  0.04761371  0.76727221  0.05263511  1
  S  S161  1  0.13493153  0.08874516  0.05125952  1
  S  S162  1  0.28613882  0.63717294  0.00280365  1
  S  S163  1  0.60076910  0.59646771  0.03712079  1
  S  S164  1  0.76777327  0.81847659  0.01454810  1
  S  S165  1  0.35540529  0.87474919  0.04648879  1
  S  S166  1  0.83402208  0.97997713  0.05854862  1
  S  S167  1  0.52810570  0.42552077  0.99941813  1
  S  S168  1  0.43879022  0.06926683  0.02031268  1
  S  S169  1  0.35372382  0.50705570  0.05994668  1
  S  S170  1  0.86171361  0.31166393  0.05323342  1
  S  S171  1  0.73452168  0.64637437  0.15365185  1
  S  S172  1  0.82225640  0.95956047  0.15006882  1
  S  S173  1  0.00730780  0.52566688  0.09232158  1
  S  S174  1  0.86684659  0.19546370  0.11373962  1
  S  S175  1  0.58163153  0.24621651  0.07379558  1
  S  S176  1  0.28523959  0.47404376  0.13692608  1
  S  S177  1  0.43194864  0.02894072  0.09003182  1
  S  S178  1  0.44113554  0.69805152  0.11323953  1
  S  S179  1  0.03746631  0.74654643  0.14590935  1
  S  S180  1  0.51985121  0.85829040  0.15397189  1
  S  S181  1  0.66577611  0.41353504  0.11172994  1
  S  S182  1  0.21227495  0.30891539  0.09541359  1
  S  S183  1  0.75249130  0.77702978  0.08526061  1
  S  S184  1  0.11939491  0.94767300  0.11849178  1
  S  S185  1  0.01062695  0.40559074  0.15304563  1
  S  S186  1  0.52807357  0.20181339  0.14898043  1
  S  S187  1  0.39981409  0.52292661  0.25289039  1
  S  S188  1  0.50473198  0.83742015  0.24422687  1
  S  S189  1  0.68331547  0.40213490  0.19312686  1
  S  S190  1  0.55106200  0.07799287  0.20880522  1
  S  S191  1  0.25919176  0.12671804  0.16812165  1
  S  S192  1  0.96993559  0.35065496  0.23541606  1
  S  S193  1  0.12208101  0.90205149  0.18755243  1
  S  S194  1  0.11483860  0.57482162  0.21023927  1
  S  S195  1  0.71756908  0.62259476  0.24514410  1
  S  S196  1  0.18537515  0.73583216  0.25243727  1
  S  S197  1  0.33477159  0.28956103  0.20893384  1
  S  S198  1  0.89743579  0.18966269  0.19336990  1
  S  S199  1  0.43274524  0.65881191  0.18250607  1
  S  S200  1  0.81157583  0.82174938  0.21915220  1
  S  S201  1  0.69711419  0.27786885  0.25256890  1
  S  S202  1  0.21441595  0.07803199  0.24654775  1
  S  S203  1  0.08190908  0.39379483  0.34862815  1
  S  S204  1  0.17331616  0.70846296  0.34469206  1
  S  S205  1  0.35479817  0.28174543  0.29054345  1
  S  S206  1  0.22225264  0.95095687  0.30594500  1
  S  S207  1  0.94098271  0.00569990  0.26256517  1
  S  S208  1  0.65118437  0.22789664  0.32949316  1
  S  S209  1  0.78384749  0.78335560  0.28847682  1
  S  S210  1  0.78718305  0.45372619  0.30953226  1
  S  S211  1  0.38892943  0.49748574  0.34629663  1
  S  S212  1  0.86912962  0.60689316  0.35260692  1
  S  S213  1  0.01136778  0.16493459  0.30567940  1
  S  S214  1  0.56434236  0.06573162  0.29055502  1
  S  S215  1  0.09519858  0.53752767  0.27991429  1
  S  S216  1  0.47841557  0.69288464  0.31783507  1
  S  S217  1  0.37863413  0.16182616  0.35088478  1
  S  S218  1  0.88530769  0.94128429  0.34605803  1
  S  S219  1  0.75585608  0.27216956  0.45122783  1
  S  S220  1  0.85176109  0.57318667  0.44294540  1
  S  S221  1  0.02261525  0.14660835  0.38739969  1
  S  S222  1  0.89769997  0.82144883  0.40697242  1
  S  S223  1  0.61054948  0.87710442  0.36568501  1
  S  S224  1  0.32117852  0.09310196  0.42669517  1
  S  S225  1  0.45865774  0.65990188  0.38809091  1
  S  S226  1  0.47104268  0.31928969  0.40869781  1
  S  S227  1  0.06369761  0.35439080  0.43590374  1
  S  S228  1  0.51768774  0.47632372  0.45582672  1
  S  S229  1  0.69472752  0.04218272  0.40473262  1
  S  S230  1  0.23918662  0.93497293  0.38603301  1
  S  S231  1  0.77973241  0.40496189  0.37806945  1
  S  S232  1  0.15254752  0.56225735  0.41304633  1
  S  S233  1  0.05284067  0.01926799  0.44692723  1
  S  S234  1  0.69224718  0.95081910  0.48209847  1
  S  S235  1  0.66687998  0.75268398  0.51433967  1
  S  S236  1  0.47704717  0.81442909  0.45555958  1
  S  S237  1  0.12958719  0.51306471  0.48080337  1
  S  S238  1  0.41084706  0.95591280  0.51304664  1
  S  S239  1  0.44562178  0.27363606  0.47748971  1
  S  S240  1  0.57844885  0.50769928  0.55282085  1
  S  S241  1  0.49131419  0.18572326  0.55124316  1
  S  S242  1  0.34162769  0.63697891  0.50258145  1
  S  S243  1  0.02798258  0.67719632  0.53716501  1
  S  S244  1  0.85770373  0.45704221  0.51462612  1
  S  S245  1  0.27103444  0.39967369  0.54653779  1
  S  S246  1  0.79187888  0.29487864  0.55853857  1
  S  S247  1  0.09919520  0.84885334  0.49959399  1
  S  S248  1  0.18707759  0.20553585  0.52034294  1
  S  S249  1  0.27518957  0.76683610  0.55986183  1
  S  S250  1  0.76599323  0.96266468  0.55318411  1
  S  S251  1  0.89208262  0.63005783  0.65329814  1
  S  S252  1  0.80325999  0.31752407  0.64948242  1
  S  S253  1  0.61896382  0.74919086  0.59218087  1
  S  S254  1  0.75959153  0.07921523  0.61368655  1
  S  S255  1  0.04555857  0.02854653  0.57383976  1
  S  S256  1  0.34081145  0.80117245  0.63679122  1
  S  S257  1  0.19446902  0.24538387  0.59013387  1
  S  S258  1  0.18674009  0.57697526  0.61344535  1
  S  S259  1  0.58798582  0.53024439  0.64612056  1
  S  S260  1  0.10604792  0.41767708  0.65434156  1
  S  S261  1  0.96182890  0.86127941  0.61174010  1
  S  S262  1  0.41428786  0.96629350  0.59553442  1
  S  S263  1  0.87386236  0.49749519  0.58532861  1
  S  S264  1  0.50411986  0.32951802  0.61872534  1
  S  S265  1  0.61588886  0.86844249  0.65301829  1
  S  S266  1  0.09766519  0.07320705  0.64863197  1
  S  S267  1  0.22504856  0.75278248  0.75362723  1
  S  S268  1  0.12019377  0.43861858  0.74485238  1
  S  S269  1  0.94084200  0.87324344  0.69297314  1
  S  S270  1  0.06702963  0.19863965  0.70801660  1
  S  S271  1  0.36437890  0.14866678  0.66911113  1
  S  S272  1  0.65879104  0.92675091  0.73618618  1
  S  S273  1  0.50541717  0.37376589  0.68775582  1
  S  S274  1  0.50883604  0.70238438  0.71052700  1
  S  S275  1  0.90684034  0.65353884  0.74548850  1
  S  S276  1  0.43993257  0.54050330  0.75280072  1
  S  S277  1  0.28553118  0.98606101  0.70929372  1
  S  S278  1  0.72784873  0.08728763  0.69358839  1
  S  S279  1  0.19206460  0.61724585  0.68285593  1
  S  S280  1  0.81348887  0.45519988  0.71916466  1
  S  S281  1  0.93294554  0.99860784  0.75239264  1
  S  S282  1  0.41386777  0.19812760  0.74635903  1
  S  S283  1  0.54291315  0.88117737  0.84769844  1
  S  S284  1  0.45229306  0.56644918  0.84482987  1
  S  S285  1  0.26391130  0.99417848  0.78986202  1
  S  S286  1  0.40083335  0.32377609  0.80576536  1
  S  S287  1  0.68644228  0.27149494  0.76348348  1
  S  S288  1  0.97234746  0.04674483  0.83047341  1
  S  S289  1  0.84052165  0.49192731  0.78864306  1
  S  S290  1  0.84015538  0.81936565  0.80938585  1
  S  S291  1  0.23673154  0.77743276  0.84658402  1
  S  S292  1  0.75585044  0.66817876  0.85272342  1
  S  S293  1  0.61377168  0.11061307  0.80556652  1
  S  S294  1  0.05505441  0.20912280  0.79083419  1
  S  S295  1  0.52970673  0.73928681  0.78019801  1
  S  S296  1  0.14650920  0.58180555  0.81834336  1
  S  S297  1  0.24707102  0.11285909  0.85039649  1
  S  S298  1  0.73903806  0.33326952  0.84602731  1
  S  S299  1  0.86877012  0.00155782  0.95117024  1
  S  S300  1  0.77403404  0.70117974  0.94264817  1
  S  S301  1  0.60102693  0.12707632  0.88727483  1
  S  S302  1  0.72609810  0.45302692  0.90684721  1
  S  S303  1  0.01385824  0.39804794  0.86567488  1
  S  S304  1  0.30237777  0.18123568  0.92648271  1
  S  S305  1  0.16747198  0.61538566  0.88848648  1
  S  S306  1  0.15377497  0.95492192  0.90880532  1
  S  S307  1  0.56039735  0.91967464  0.93573796  1
  S  S308  1  0.10853209  0.79757915  0.95597827  1
  S  S309  1  0.92986652  0.23261866  0.90468933  1
  S  S310  1  0.38471546  0.33873806  0.88582589  1
  S  S311  1  0.84347522  0.87111418  0.87780127  1
  S  S312  1  0.47278411  0.71178566  0.91302488  1
  S  S313  1  0.57168076  0.25488079  0.94670883  1
  S  S314  1  0.93454224  0.32446507  0.98189360  1
  S  S315  1  0.96077458  0.52211446  0.01444394  1
  S  S316  1  0.15033419  0.46090525  0.95570638  1
  S  S317  1  0.49713487  0.76064219  0.98081834  1
  S  S318  1  0.21557526  0.31820280  0.01300488  1
  S  S319  1  0.17906248  0.00061867  0.97757127  1
