# generated using pymatgen
data_Li3PS4
_symmetry_space_group_name_H-M   'P 1'
_cell_length_a   10.24241400
_cell_length_b   18.09023381
_cell_length_c   50.19598142
_cell_angle_alpha   90.00000000
_cell_angle_beta   90.00000000
_cell_angle_gamma   64.97678698
_symmetry_Int_Tables_number   1
_chemical_formula_structural   Li3PS4
_chemical_formula_sum   'Li144 P48 S192'
_cell_volume   8427.70017283
_cell_formula_units_Z   48
loop_
 _symmetry_equiv_pos_site_id
 _symmetry_equiv_pos_as_xyz
  1  'x, y, z'
loop_
 _atom_site_type_symbol
 _atom_site_label
 _atom_site_symmetry_multiplicity
 _atom_site_fract_x
 _atom_site_fract_y
 _atom_site_fract_z
 _atom_site_occupancy
  Li  Li0  1  0.86860528  0.77633747  0.03902277  1
  Li  Li1  1  0.82056540  0.99369751  0.07898395  1
  Li  Li2  1  0.06096634  0.55425573  0.07099553  1
  Li  Li3  1  0.55827068  0.25057637  0.07263875  1
  Li  Li4  1  0.46187620  0.28267801  0.01630430  1
  Li  Li5  1  0.40060365  0.10903160  0.02912382  1
  Li  Li6  1  0.31795543  0.65539515  0.07470052  1
  Li  Li7  1  0.86096060  0.35610026  0.05488710  1
  Li  Li8  1  0.40004461  0.46402794  0.01581047  1
  Li  Li9  1  0.35291383  0.87390858  0.05784259  1
  Li  Li10  1  0.64079811  0.58178428  0.10876561  1
  Li  Li11  1  0.58737778  0.81905041  0.15185596  1
  Li  Li12  1  0.66235704  0.37495403  0.12711843  1
  Li  Li13  1  0.55570894  0.02557086  0.13483640  1
  Li  Li14  1  0.23408636  0.10246618  0.09798895  1
  Li  Li15  1  0.21013227  0.42014356  0.10256256  1
  Li  Li16  1  0.15262018  0.92329711  0.10778707  1
  Li  Li17  1  0.05841423  0.48119192  0.15804692  1
  Li  Li18  1  0.69133251  0.78745700  0.09298543  1
  Li  Li19  1  0.64591003  0.17372651  0.14006896  1
  Li  Li20  1  0.16827672  0.27610513  0.08999919  1
  Li  Li21  1  0.10044794  0.71090674  0.12214586  1
  Li  Li22  1  0.40743184  0.39589318  0.18754181  1
  Li  Li23  1  0.34448375  0.63683246  0.23106116  1
  Li  Li24  1  0.40605564  0.18711895  0.20845329  1
  Li  Li25  1  0.33777992  0.84095866  0.21016528  1
  Li  Li26  1  0.00298569  0.93073286  0.17696970  1
  Li  Li27  1  0.97466317  0.30057106  0.16345128  1
  Li  Li28  1  0.92197091  0.73652387  0.18480263  1
  Li  Li29  1  0.82846082  0.29343494  0.23625505  1
  Li  Li30  1  0.45946376  0.60998691  0.17163997  1
  Li  Li31  1  0.40053464  0.99265203  0.21830222  1
  Li  Li32  1  0.03613808  0.11819236  0.17110584  1
  Li  Li33  1  0.88871184  0.50505570  0.22023468  1
  Li  Li34  1  0.16760828  0.21806510  0.26672390  1
  Li  Li35  1  0.11126011  0.45482607  0.30747592  1
  Li  Li36  1  0.16700028  0.01325026  0.28928234  1
  Li  Li37  1  0.10810015  0.66496532  0.29115618  1
  Li  Li38  1  0.76700443  0.74217128  0.25609981  1
  Li  Li39  1  0.74349549  0.11340148  0.24193738  1
  Li  Li40  1  0.66232756  0.55501806  0.26701793  1
  Li  Li41  1  0.58788772  0.10825090  0.31411074  1
  Li  Li42  1  0.31669999  0.42140605  0.24815910  1
  Li  Li43  1  0.11682057  0.85740340  0.28209140  1
  Li  Li44  1  0.78306222  0.93083077  0.24942940  1
  Li  Li45  1  0.65884855  0.31496380  0.30007579  1
  Li  Li46  1  0.93662961  0.02600617  0.35440774  1
  Li  Li47  1  0.88419787  0.26705073  0.38764619  1
  Li  Li48  1  0.95160868  0.82765991  0.36371476  1
  Li  Li49  1  0.85871239  0.48530091  0.36713570  1
  Li  Li50  1  0.53375778  0.54976086  0.33890393  1
  Li  Li51  1  0.51265704  0.91986510  0.32080875  1
  Li  Li52  1  0.43383301  0.37238756  0.34673480  1
  Li  Li53  1  0.37832947  0.93018203  0.39186765  1
  Li  Li54  1  0.07504321  0.23824622  0.32750785  1
  Li  Li55  1  0.87534143  0.67789201  0.35846493  1
  Li  Li56  1  0.47695757  0.73418578  0.32592805  1
  Li  Li57  1  0.42842629  0.13341298  0.37960042  1
  Li  Li58  1  0.71167789  0.86158285  0.41878215  1
  Li  Li59  1  0.78321939  0.91000344  0.48263849  1
  Li  Li60  1  0.74331333  0.62678856  0.43434788  1
  Li  Li61  1  0.51109299  0.26332779  0.43116805  1
  Li  Li62  1  0.25931972  0.38721820  0.40957904  1
  Li  Li63  1  0.28414799  0.74204332  0.39467687  1
  Li  Li64  1  0.20970348  0.18437152  0.42565721  1
  Li  Li65  1  0.17745340  0.72493404  0.45444351  1
  Li  Li66  1  0.74527779  0.06377208  0.42175936  1
  Li  Li67  1  0.64193297  0.46490408  0.44034342  1
  Li  Li68  1  0.21728296  0.55742958  0.41035392  1
  Li  Li69  1  0.19051580  0.98127102  0.44279627  1
  Li  Li70  1  0.09601768  0.63758954  0.50778647  1
  Li  Li71  1  0.08393457  0.41170298  0.47851245  1
  Li  Li72  1  0.07862139  0.82286043  0.53895956  1
  Li  Li73  1  0.12764825  0.60642747  0.57853025  1
  Li  Li74  1  0.88919584  0.04631057  0.57116742  1
  Li  Li75  1  0.39153964  0.34962672  0.57282668  1
  Li  Li76  1  0.48946652  0.31789228  0.51637596  1
  Li  Li77  1  0.54672188  0.49163848  0.52920358  1
  Li  Li78  1  0.63286897  0.94427701  0.57501775  1
  Li  Li79  1  0.09140762  0.24326093  0.55478114  1
  Li  Li80  1  0.54926353  0.13561105  0.51592330  1
  Li  Li81  1  0.59485111  0.72637951  0.55830332  1
  Li  Li82  1  0.30968710  0.01738645  0.60872297  1
  Li  Li83  1  0.36231882  0.78278699  0.65198611  1
  Li  Li84  1  0.28450269  0.22574081  0.62690441  1
  Li  Li85  1  0.39380044  0.57487513  0.63447585  1
  Li  Li86  1  0.71490833  0.49645635  0.59713439  1
  Li  Li87  1  0.73911788  0.18068490  0.60261602  1
  Li  Li88  1  0.79748025  0.67683176  0.60823247  1
  Li  Li89  1  0.89249650  0.11836415  0.65827837  1
  Li  Li90  1  0.25829180  0.81208986  0.59297688  1
  Li  Li91  1  0.29951182  0.42703424  0.64064258  1
  Li  Li92  1  0.78402781  0.32262277  0.59009689  1
  Li  Li93  1  0.84975123  0.88922458  0.62264231  1
  Li  Li94  1  0.54224417  0.20455415  0.68740851  1
  Li  Li95  1  0.60701686  0.96165126  0.73094912  1
  Li  Li96  1  0.54510801  0.41246467  0.70868948  1
  Li  Li97  1  0.60954708  0.75743566  0.70993596  1
  Li  Li98  1  0.94922730  0.67090338  0.67849801  1
  Li  Li99  1  0.97418407  0.29899352  0.66341162  1
  Li  Li100  1  0.03055172  0.86378641  0.68508671  1
  Li  Li101  1  0.12239771  0.30712654  0.73616082  1
  Li  Li102  1  0.49166928  0.99086283  0.67154478  1
  Li  Li103  1  0.55625002  0.60471011  0.71657400  1
  Li  Li104  1  0.91086756  0.48149136  0.67115637  1
  Li  Li105  1  0.06048658  0.09636663  0.72029359  1
  Li  Li106  1  0.78219524  0.38051793  0.76660381  1
  Li  Li107  1  0.83648691  0.14475485  0.80682864  1
  Li  Li108  1  0.77829224  0.58509811  0.78862789  1
  Li  Li109  1  0.84380349  0.93363056  0.79133993  1
  Li  Li110  1  0.18073533  0.86332202  0.75658059  1
  Li  Li111  1  0.20420311  0.49230911  0.74225582  1
  Li  Li112  1  0.28895844  0.04539277  0.76671481  1
  Li  Li113  1  0.35826324  0.49088389  0.81405403  1
  Li  Li114  1  0.63229078  0.17747019  0.74789328  1
  Li  Li115  1  0.84085941  0.73825456  0.78033274  1
  Li  Li116  1  0.22191457  0.68139253  0.74903026  1
  Li  Li117  1  0.28750926  0.28516608  0.80022250  1
  Li  Li118  1  0.01214552  0.57444519  0.85417450  1
  Li  Li119  1  0.06565742  0.33266917  0.88747604  1
  Li  Li120  1  0.99742239  0.77146915  0.86350032  1
  Li  Li121  1  0.08823650  0.11424433  0.86720696  1
  Li  Li122  1  0.41628682  0.05043558  0.83913123  1
  Li  Li123  1  0.43903678  0.68092063  0.82234135  1
  Li  Li124  1  0.51601409  0.22822574  0.84647465  1
  Li  Li125  1  0.57245666  0.66990648  0.89266558  1
  Li  Li126  1  0.87321472  0.36207934  0.82776980  1
  Li  Li127  1  0.07355898  0.92182997  0.85885720  1
  Li  Li128  1  0.47335108  0.86632746  0.82609165  1
  Li  Li129  1  0.52030010  0.46684612  0.87974632  1
  Li  Li130  1  0.23719001  0.73825216  0.91837170  1
  Li  Li131  1  0.16688681  0.69012332  0.98255085  1
  Li  Li132  1  0.21035982  0.97133132  0.93506372  1
  Li  Li133  1  0.43648579  0.33671584  0.93144890  1
  Li  Li134  1  0.69016809  0.21319801  0.90986149  1
  Li  Li135  1  0.66582246  0.85749440  0.89467266  1
  Li  Li136  1  0.74027072  0.41458031  0.92578099  1
  Li  Li137  1  0.77147098  0.87497403  0.95434715  1
  Li  Li138  1  0.20257573  0.53542979  0.92166231  1
  Li  Li139  1  0.30721665  0.13540472  0.94025341  1
  Li  Li140  1  0.73236656  0.04295684  0.91052685  1
  Li  Li141  1  0.76541764  0.61708965  0.94286812  1
  Li  Li142  1  0.85058330  0.96195057  0.00825626  1
  Li  Li143  1  0.86607168  0.18804406  0.97839744  1
  P  P144  1  0.12305007  0.80738955  0.04875736  1
  P  P145  1  0.57577231  0.95149485  0.06166632  1
  P  P146  1  0.51466919  0.42566387  0.07315290  1
  P  P147  1  0.16427890  0.34065085  0.03249084  1
  P  P148  1  0.88293785  0.62260554  0.12366743  1
  P  P149  1  0.34434197  0.77143344  0.13736791  1
  P  P150  1  0.29369171  0.23820727  0.15197913  1
  P  P151  1  0.92143280  0.16215024  0.10984423  1
  P  P152  1  0.64386979  0.44315188  0.20368178  1
  P  P153  1  0.11031058  0.58822199  0.21705069  1
  P  P154  1  0.06191804  0.05578566  0.23172629  1
  P  P155  1  0.68742306  0.97669798  0.18889561  1
  P  P156  1  0.40845819  0.25984321  0.28268015  1
  P  P157  1  0.86731367  0.40636631  0.29619446  1
  P  P158  1  0.82773986  0.87468252  0.30944114  1
  P  P159  1  0.44622863  0.79673064  0.26597117  1
  P  P160  1  0.18290169  0.07834625  0.36266483  1
  P  P161  1  0.64056204  0.21998123  0.37492267  1
  P  P162  1  0.58963877  0.69696623  0.38567120  1
  P  P163  1  0.21777787  0.60948004  0.34733914  1
  P  P164  1  0.97573950  0.88962533  0.43434465  1
  P  P165  1  0.42912171  0.04369215  0.45522843  1
  P  P166  1  0.35192910  0.48953140  0.46935366  1
  P  P167  1  0.96090295  0.43176095  0.42407965  1
  P  P168  1  0.82465255  0.79260747  0.54886267  1
  P  P169  1  0.37207074  0.64878756  0.56131420  1
  P  P170  1  0.43572083  0.17397351  0.57323323  1
  P  P171  1  0.78637427  0.25920934  0.53264386  1
  P  P172  1  0.06676224  0.97751691  0.62375872  1
  P  P173  1  0.60621064  0.82877401  0.63765721  1
  P  P174  1  0.65478993  0.36174210  0.65188423  1
  P  P175  1  0.02720362  0.43786492  0.60982395  1
  P  P176  1  0.30676083  0.15691853  0.70359884  1
  P  P177  1  0.83999138  0.01204353  0.71717919  1
  P  P178  1  0.88658829  0.54315068  0.73188168  1
  P  P179  1  0.26535092  0.62461388  0.68876840  1
  P  P180  1  0.53981639  0.33995815  0.78253212  1
  P  P181  1  0.08154694  0.19342985  0.79618575  1
  P  P182  1  0.12465161  0.72560554  0.80937857  1
  P  P183  1  0.50356534  0.80237105  0.76627822  1
  P  P184  1  0.76653333  0.52185844  0.86294289  1
  P  P185  1  0.30860770  0.38015570  0.87496224  1
  P  P186  1  0.36028850  0.90337267  0.88580354  1
  P  P187  1  0.73284512  0.99055274  0.84728724  1
  P  P188  1  0.97382425  0.71006707  0.93418140  1
  P  P189  1  0.52013661  0.55596857  0.95519468  1
  P  P190  1  0.59788707  0.11029145  0.96946037  1
  P  P191  1  0.98893569  0.16756909  0.92411570  1
  S  S192  1  0.33849539  0.74946171  0.04359548  1
  S  S193  1  0.35466748  0.01323212  0.06097409  1
  S  S194  1  0.33508806  0.52444066  0.06031607  1
  S  S195  1  0.33905130  0.24145496  0.05053919  1
  S  S196  1  0.02421954  0.30185768  0.01714166  1
  S  S197  1  0.01903549  0.81707623  0.01252357  1
  S  S198  1  0.61605519  0.83901821  0.04550718  1
  S  S199  1  0.07075917  0.92457121  0.06238674  1
  S  S200  1  0.05928303  0.41590280  0.06508812  1
  S  S201  1  0.60667094  0.34729348  0.04151410  1
  S  S202  1  0.05012560  0.73824513  0.07267007  1
  S  S203  1  0.65675968  0.02116508  0.04116290  1
  S  S204  1  0.24068239  0.39434857  0.00443293  1
  S  S205  1  0.10566482  0.56278748  0.12113656  1
  S  S206  1  0.12399951  0.83206458  0.14068988  1
  S  S207  1  0.13049315  0.34292506  0.13602176  1
  S  S208  1  0.08636692  0.06021004  0.12606054  1
  S  S209  1  0.75970027  0.13388693  0.09535426  1
  S  S210  1  0.67683418  0.45336519  0.08737288  1
  S  S211  1  0.66963366  0.93046424  0.09891260  1
  S  S212  1  0.79673760  0.63715674  0.08594908  1
  S  S213  1  0.38377438  0.65660877  0.12247095  1
  S  S214  1  0.84207655  0.73867151  0.13790992  1
  S  S215  1  0.82991672  0.23791801  0.14263405  1
  S  S216  1  0.38633974  0.16280591  0.11991695  1
  S  S217  1  0.80495619  0.55892552  0.14688576  1
  S  S218  1  0.41732112  0.83964289  0.11405969  1
  S  S219  1  0.46413538  0.36479792  0.10349659  1
  S  S220  1  0.00294335  0.20818318  0.08047325  1
  S  S221  1  0.86531334  0.38305155  0.20261258  1
  S  S222  1  0.88955213  0.64594390  0.21913518  1
  S  S223  1  0.89954402  0.15680049  0.21532512  1
  S  S224  1  0.85911408  0.87655480  0.20366252  1
  S  S225  1  0.52450001  0.95195761  0.17347961  1
  S  S226  1  0.45358172  0.25947726  0.17044048  1
  S  S227  1  0.45205983  0.74973768  0.17306816  1
  S  S228  1  0.54699342  0.46162708  0.16680169  1
  S  S229  1  0.15529953  0.47125188  0.20319178  1
  S  S230  1  0.59941795  0.55825081  0.21881847  1
  S  S231  1  0.59411027  0.05093112  0.22183262  1
  S  S232  1  0.16334960  0.98197726  0.19938000  1
  S  S233  1  0.57118756  0.37336722  0.22610899  1
  S  S234  1  0.18123826  0.65506452  0.19301382  1
  S  S235  1  0.20227037  0.19345937  0.18030282  1
  S  S236  1  0.76456036  0.02759946  0.16000484  1
  S  S237  1  0.62934821  0.19722698  0.28095544  1
  S  S238  1  0.64709055  0.45934063  0.30043418  1
  S  S239  1  0.65753231  0.97263413  0.29345005  1
  S  S240  1  0.60971272  0.69540395  0.28200786  1
  S  S241  1  0.28643403  0.77381081  0.24795979  1
  S  S242  1  0.21885350  0.07930366  0.25060878  1
  S  S243  1  0.21316205  0.57035248  0.25341224  1
  S  S244  1  0.30851228  0.28411177  0.24610894  1
  S  S245  1  0.91664488  0.28925624  0.28199375  1
  S  S246  1  0.37079601  0.37373524  0.29839995  1
  S  S247  1  0.34759639  0.87089273  0.29845106  1
  S  S248  1  0.92471451  0.79960316  0.27678471  1
  S  S249  1  0.33199366  0.19210186  0.30499961  1
  S  S250  1  0.92751887  0.47852061  0.27231916  1
  S  S251  1  0.97351589  0.00655395  0.25959361  1
  S  S252  1  0.53462859  0.84546311  0.23829996  1
  S  S253  1  0.40282608  0.01959497  0.35715742  1
  S  S254  1  0.41869057  0.27621605  0.38087271  1
  S  S255  1  0.42378567  0.79796907  0.36999045  1
  S  S256  1  0.37176048  0.50879484  0.36551417  1
  S  S257  1  0.05948543  0.58902453  0.32778262  1
  S  S258  1  0.98778015  0.90107555  0.32538771  1
  S  S259  1  0.97981973  0.38876829  0.33133999  1
  S  S260  1  0.06431204  0.09978111  0.32821228  1
  S  S261  1  0.67644574  0.10828384  0.35910547  1
  S  S262  1  0.14421994  0.19350102  0.37738019  1
  S  S263  1  0.11506809  0.68791889  0.37885446  1
  S  S264  1  0.68222421  0.62113619  0.35296313  1
  S  S265  1  0.11938841  0.01159202  0.38787348  1
  S  S266  1  0.69964707  0.29401744  0.35186315  1
  S  S267  1  0.74915445  0.82342782  0.33790482  1
  S  S268  1  0.31053131  0.65583238  0.31971873  1
  S  S269  1  0.19723092  0.83687811  0.43154814  1
  S  S270  1  0.21302525  0.09933609  0.46219007  1
  S  S271  1  0.16890071  0.59521232  0.45991225  1
  S  S272  1  0.13439342  0.33075363  0.43829282  1
  S  S273  1  0.81215894  0.40615144  0.40335253  1
  S  S274  1  0.74955877  0.72324863  0.40197223  1
  S  S275  1  0.74767058  0.20128792  0.41068614  1
  S  S276  1  0.86197893  0.92779665  0.39909598  1
  S  S277  1  0.47248698  0.93243832  0.43694208  1
  S  S278  1  0.91784591  0.98849253  0.45863098  1
  S  S279  1  0.85987513  0.49926919  0.45709991  1
  S  S280  1  0.42509311  0.42470147  0.43387433  1
  S  S281  1  0.91718858  0.80222267  0.44951899  1
  S  S282  1  0.47838195  0.12167916  0.42972671  1
  S  S283  1  0.51608354  0.64318064  0.41404279  1
  S  S284  1  0.03441564  0.49437564  0.39806078  1
  S  S285  1  0.51793856  0.51408965  0.48158457  1
  S  S286  1  0.54467856  0.02139660  0.48963800  1
  S  S287  1  0.28401855  0.43050864  0.49741595  1
  S  S288  1  0.60908877  0.85101318  0.54396909  1
  S  S289  1  0.59319410  0.58702236  0.56060294  1
  S  S290  1  0.61547817  0.07526896  0.56041714  1
  S  S291  1  0.61182316  0.35858593  0.55073860  1
  S  S292  1  0.92644683  0.29785289  0.51722434  1
  S  S293  1  0.92767516  0.78275745  0.51250865  1
  S  S294  1  0.33187952  0.76133286  0.54526492  1
  S  S295  1  0.87661434  0.67547387  0.56251739  1
  S  S296  1  0.89144440  0.18403085  0.56526432  1
  S  S297  1  0.34385803  0.25236339  0.54158202  1
  S  S298  1  0.89885823  0.86131613  0.57275509  1
  S  S299  1  0.29067123  0.57930057  0.54077948  1
  S  S300  1  0.70955615  0.20552101  0.50468833  1
  S  S301  1  0.84406690  0.03737302  0.62134849  1
  S  S302  1  0.82637091  0.76768391  0.64121391  1
  S  S303  1  0.81824033  0.25661268  0.63611973  1
  S  S304  1  0.86077197  0.53930462  0.62584292  1
  S  S305  1  0.18908756  0.46647005  0.59561645  1
  S  S306  1  0.27362730  0.14597462  0.58731843  1
  S  S307  1  0.27871536  0.66955323  0.59858871  1
  S  S308  1  0.15263868  0.96271558  0.58601632  1
  S  S309  1  0.56673713  0.94346788  0.62265074  1
  S  S310  1  0.10823005  0.86145741  0.63809520  1
  S  S311  1  0.11829290  0.36224100  0.64269388  1
  S  S312  1  0.56304977  0.43689940  0.61977768  1
  S  S313  1  0.14537979  0.04110991  0.64687982  1
  S  S314  1  0.53313743  0.76055029  0.61432638  1
  S  S315  1  0.48507680  0.23511065  0.60361347  1
  S  S316  1  0.94792521  0.39090973  0.58033301  1
  S  S317  1  0.08527341  0.21708316  0.70262848  1
  S  S318  1  0.06103009  0.95530358  0.71911843  1
  S  S319  1  0.05119666  0.44349725  0.71536067  1
  S  S320  1  0.09732576  0.72479707  0.70436287  1
  S  S321  1  0.42767866  0.64877572  0.67269245  1
  S  S322  1  0.49466617  0.34106860  0.67047052  1
  S  S323  1  0.49788238  0.85117872  0.67330531  1
  S  S324  1  0.40244013  0.13907463  0.66663329  1
  S  S325  1  0.79377441  0.12910187  0.70334425  1
  S  S326  1  0.35189484  0.04160905  0.71865273  1
  S  S327  1  0.36086950  0.54987031  0.72151763  1
  S  S328  1  0.78661011  0.61749017  0.69938803  1
  S  S329  1  0.37941034  0.22655205  0.72607292  1
  S  S330  1  0.77022576  0.94476484  0.69309491  1
  S  S331  1  0.74686463  0.40611519  0.68024875  1
  S  S332  1  0.18464559  0.57445265  0.66029995  1
  S  S333  1  0.31896906  0.40230764  0.78054203  1
  S  S334  1  0.30171812  0.14055070  0.80064193  1
  S  S335  1  0.29814774  0.62727129  0.79431930  1
  S  S336  1  0.34221971  0.90495808  0.78216372  1
  S  S337  1  0.66255255  0.82405980  0.74746725  1
  S  S338  1  0.72859833  0.51838260  0.74990595  1
  S  S339  1  0.73790535  0.02876120  0.75356615  1
  S  S340  1  0.64102647  0.31505323  0.74608499  1
  S  S341  1  0.03261409  0.31051250  0.78198468  1
  S  S342  1  0.57726702  0.22604902  0.79825590  1
  S  S343  1  0.60279106  0.72845276  0.79854543  1
  S  S344  1  0.03029745  0.80018506  0.77651212  1
  S  S345  1  0.61573731  0.40789558  0.80488054  1
  S  S346  1  0.02283876  0.12095566  0.77213311  1
  S  S347  1  0.97183585  0.59261523  0.75983940  1
  S  S348  1  0.41200096  0.75426071  0.73855462  1
  S  S349  1  0.54642362  0.58082377  0.85797634  1
  S  S350  1  0.53027772  0.32398932  0.88098838  1
  S  S351  1  0.52582706  0.80211745  0.87009721  1
  S  S352  1  0.57911833  0.09144036  0.86542509  1
  S  S353  1  0.89141338  0.01073985  0.82775081  1
  S  S354  1  0.96399882  0.69870752  0.82468890  1
  S  S355  1  0.96771395  0.21104912  0.83115089  1
  S  S356  1  0.88291290  0.50133737  0.82823661  1
  S  S357  1  0.27252582  0.49195642  0.85918658  1
  S  S358  1  0.80559436  0.40640282  0.87742156  1
  S  S359  1  0.83511785  0.91196879  0.87881059  1
  S  S360  1  0.26750434  0.97896618  0.85311888  1
  S  S361  1  0.83176008  0.58796734  0.88809549  1
  S  S362  1  0.24974729  0.30610922  0.85185322  1
  S  S363  1  0.20012891  0.77741343  0.83821723  1
  S  S364  1  0.63967089  0.94422058  0.81973648  1
  S  S365  1  0.75239059  0.76276424  0.93147385  1
  S  S366  1  0.73639995  0.50045550  0.96202897  1
  S  S367  1  0.78051288  0.00434699  0.96015399  1
  S  S368  1  0.81606036  0.26881250  0.93844541  1
  S  S369  1  0.13707897  0.19328328  0.90323654  1
  S  S370  1  0.20067348  0.87718589  0.90230062  1
  S  S371  1  0.20089198  0.39865511  0.91067894  1
  S  S372  1  0.08733503  0.67149932  0.89893179  1
  S  S373  1  0.47575223  0.66767542  0.93718975  1
  S  S374  1  0.03137252  0.61128953  0.95854880  1
  S  S375  1  0.09014846  0.10007418  0.95710675  1
  S  S376  1  0.52514915  0.17493490  0.93392392  1
  S  S377  1  0.03249258  0.79746648  0.94924821  1
  S  S378  1  0.47094721  0.47765982  0.92978519  1
  S  S379  1  0.43476473  0.95701646  0.91409368  1
  S  S380  1  0.91398148  0.10546943  0.89817652  1
  S  S381  1  0.43107192  0.08635489  0.98160722  1
  S  S382  1  0.40497362  0.57788706  0.98965903  1
  S  S383  1  0.66638694  0.16909567  0.99749198  1
