# generated using pymatgen
data_Li20P6S25
_symmetry_space_group_name_H-M   'P 1'
_cell_length_a   10.24241400
_cell_length_b   18.09023381
_cell_length_c   51.26925249
_cell_angle_alpha   90.00000000
_cell_angle_beta   90.00000000
_cell_angle_gamma   64.97678698
_symmetry_Int_Tables_number   1
_chemical_formula_structural   Li20P6S25
_chemical_formula_sum   'Li160 P48 S200'
_cell_volume   8607.89799969
_cell_formula_units_Z   8
loop_
 _symmetry_equiv_pos_site_id
 _symmetry_equiv_pos_as_xyz
  1  'x, y, z'
loop_
 _atom_site_type_symbol
 _atom_site_label
 _atom_site_symmetry_multiplicity
 _atom_site_fract_x
 _atom_site_fract_y
 _atom_site_fract_z
 _atom_site_occupancy
  Li  Li0  1  0.88471663  0.67895690  0.04152356  1
  Li  Li1  1  0.05215748  0.15604446  0.03695755  1
  Li  Li2  1  0.82331091  0.51217610  0.00642228  1
  Li  Li3  1  0.75087554  0.32357730  0.06431439  1
  Li  Li4  1  0.32546701  0.30577815  0.02756812  1
  Li  Li5  1  0.55715258  0.66032006  0.00945216  1
  Li  Li6  1  0.32832057  0.10728362  0.01255063  1
  Li  Li7  1  0.64999369  0.78805020  0.00882582  1
  Li  Li8  1  0.82713399  0.94705919  0.02666039  1
  Li  Li9  1  0.68698006  0.50972535  0.06015107  1
  Li  Li10  1  0.42615497  0.48045280  0.02807311  1
  Li  Li11  1  0.27910123  0.85452174  0.06928956  1
  Li  Li12  1  0.53602550  0.57281545  0.11402126  1
  Li  Li13  1  0.69465513  0.00401164  0.07870920  1
  Li  Li14  1  0.54481004  0.36918974  0.13232549  1
  Li  Li15  1  0.47988782  0.02512947  0.13673325  1
  Li  Li16  1  0.14988534  0.08472828  0.10416415  1
  Li  Li17  1  0.09413254  0.46155531  0.08841165  1
  Li  Li18  1  0.03187174  0.91389241  0.11487613  1
  Li  Li19  1  0.20867399  0.64873824  0.08372567  1
  Li  Li20  1  0.67477040  0.78147439  0.09308462  1
  Li  Li21  1  0.48305306  0.21776387  0.12537423  1
  Li  Li22  1  0.08721305  0.26727118  0.09801513  1
  Li  Li23  1  0.01668782  0.68205577  0.13754369  1
  Li  Li24  1  0.30709656  0.38724178  0.19212891  1
  Li  Li25  1  0.48312026  0.81211026  0.15279473  1
  Li  Li26  1  0.32620435  0.18338536  0.20937068  1
  Li  Li27  1  0.24876319  0.84147698  0.21286976  1
  Li  Li28  1  0.90860417  0.90755420  0.18389290  1
  Li  Li29  1  0.88540007  0.27472881  0.16666937  1
  Li  Li30  1  0.80841202  0.72752282  0.18825828  1
  Li  Li31  1  0.96447564  0.46634098  0.15964793  1
  Li  Li32  1  0.44692436  0.59597601  0.17169989  1
  Li  Li33  1  0.25284452  0.03315913  0.20405402  1
  Li  Li34  1  0.84210950  0.09388081  0.17188340  1
  Li  Li35  1  0.79404424  0.49505836  0.21974779  1
  Li  Li36  1  0.07120686  0.20507364  0.27036082  1
  Li  Li37  1  0.25143171  0.62719801  0.22930334  1
  Li  Li38  1  0.08686958  0.00373053  0.28580071  1
  Li  Li39  1  0.01259122  0.65844067  0.28911949  1
  Li  Li40  1  0.67622369  0.72846378  0.25816185  1
  Li  Li41  1  0.64918422  0.09414828  0.24425228  1
  Li  Li42  1  0.58210740  0.55205752  0.26569900  1
  Li  Li43  1  0.74681220  0.27958532  0.23405739  1
  Li  Li44  1  0.13254645  0.41807031  0.25215367  1
  Li  Li45  1  0.02021441  0.85058576  0.28035492  1
  Li  Li46  1  0.61237138  0.91039076  0.25006288  1
  Li  Li47  1  0.52551361  0.33990281  0.27865133  1
  Li  Li48  1  0.83142068  0.02126553  0.34779962  1
  Li  Li49  1  0.01365115  0.44530060  0.31035697  1
  Li  Li50  1  0.86153897  0.81625362  0.36038955  1
  Li  Li51  1  0.77082335  0.47480416  0.36863662  1
  Li  Li52  1  0.44121138  0.54739414  0.33360021  1
  Li  Li53  1  0.41571097  0.91136247  0.32174981  1
  Li  Li54  1  0.35716354  0.36513475  0.34106388  1
  Li  Li55  1  0.51290811  0.10251945  0.31144547  1
  Li  Li56  1  0.86647904  0.23726743  0.32998964  1
  Li  Li57  1  0.79194865  0.66346498  0.36028111  1
  Li  Li58  1  0.37751064  0.73020504  0.32585257  1
  Li  Li59  1  0.28322235  0.15992442  0.35667252  1
  Li  Li60  1  0.60337927  0.83559728  0.41893196  1
  Li  Li61  1  0.77019293  0.26388553  0.39060368  1
  Li  Li62  1  0.59683258  0.58498279  0.43662329  1
  Li  Li63  1  0.46682692  0.32498231  0.49244947  1
  Li  Li64  1  0.21399673  0.37440994  0.41080392  1
  Li  Li65  1  0.17232402  0.74882888  0.39459337  1
  Li  Li66  1  0.10918033  0.18520590  0.41640624  1
  Li  Li67  1  0.27613578  0.92577590  0.38958888  1
  Li  Li68  1  0.63292649  0.05092411  0.40598826  1
  Li  Li69  1  0.60517757  0.41145440  0.44934153  1
  Li  Li70  1  0.23259813  0.56050723  0.40298406  1
  Li  Li71  1  0.03084229  0.98272263  0.43298506  1
  Li  Li72  1  0.53326453  0.46288077  0.50685698  1
  Li  Li73  1  0.45809124  0.18656811  0.44730304  1
  Li  Li74  1  0.73349457  0.19200784  0.48232103  1
  Li  Li75  1  0.90917962  0.60018298  0.46120910  1
  Li  Li76  1  0.60800276  0.04237340  0.48402142  1
  Li  Li77  1  0.06664910  0.74823515  0.47126283  1
  Li  Li78  1  0.52580130  0.89708731  0.47503897  1
  Li  Li79  1  0.89437295  0.35045548  0.47175687  1
  Li  Li80  1  0.76656566  0.59594101  0.54147619  1
  Li  Li81  1  0.59936006  0.11757015  0.53676884  1
  Li  Li82  1  0.83023444  0.76219116  0.50634311  1
  Li  Li83  1  0.89942753  0.95048400  0.56426792  1
  Li  Li84  1  0.32528335  0.96815022  0.52701687  1
  Li  Li85  1  0.09526836  0.61478027  0.50939769  1
  Li  Li86  1  0.32182801  0.16752019  0.51337079  1
  Li  Li87  1  0.00034109  0.48703144  0.50846014  1
  Li  Li88  1  0.82236476  0.32871578  0.52663190  1
  Li  Li89  1  0.96523691  0.76461386  0.55977855  1
  Li  Li90  1  0.22658479  0.79531704  0.52804893  1
  Li  Li91  1  0.36931366  0.42092398  0.56908377  1
  Li  Li92  1  0.11339187  0.70176087  0.61400707  1
  Li  Li93  1  0.95571217  0.27069737  0.57872325  1
  Li  Li94  1  0.10371022  0.90533232  0.63237617  1
  Li  Li95  1  0.17022438  0.24896270  0.63648867  1
  Li  Li96  1  0.50033893  0.18957411  0.60399129  1
  Li  Li97  1  0.55686391  0.81301012  0.58858341  1
  Li  Li98  1  0.61770899  0.36148321  0.61463363  1
  Li  Li99  1  0.44145874  0.62603333  0.58405462  1
  Li  Li100  1  0.97370990  0.49351696  0.59325134  1
  Li  Li101  1  0.16664040  0.05733922  0.62560640  1
  Li  Li102  1  0.56294233  0.00699889  0.59787727  1
  Li  Li103  1  0.63291274  0.59315603  0.63761572  1
  Li  Li104  1  0.34419619  0.88676868  0.69213210  1
  Li  Li105  1  0.16691152  0.46161287  0.65275966  1
  Li  Li106  1  0.32494818  0.09057317  0.70922152  1
  Li  Li107  1  0.40340266  0.43413180  0.71290762  1
  Li  Li108  1  0.74139368  0.36574602  0.68314590  1
  Li  Li109  1  0.76615331  0.00006900  0.66669094  1
  Li  Li110  1  0.84039706  0.54719289  0.68809543  1
  Li  Li111  1  0.68491032  0.80856041  0.65967811  1
  Li  Li112  1  0.20138359  0.67930258  0.67191753  1
  Li  Li113  1  0.39641197  0.24189509  0.70401825  1
  Li  Li114  1  0.80664417  0.18113177  0.67169007  1
  Li  Li115  1  0.85738630  0.77924568  0.71937086  1
  Li  Li116  1  0.57992233  0.06943595  0.76986175  1
  Li  Li117  1  0.40065915  0.64736726  0.73023605  1
  Li  Li118  1  0.56388158  0.27183344  0.78564921  1
  Li  Li119  1  0.64156505  0.61569346  0.79008969  1
  Li  Li120  1  0.97520843  0.54609757  0.75791920  1
  Li  Li121  1  0.00155521  0.17974522  0.74377425  1
  Li  Li122  1  0.06754221  0.72284307  0.76578994  1
  Li  Li123  1  0.90527686  0.99477011  0.73410684  1
  Li  Li124  1  0.51802050  0.85625297  0.75212305  1
  Li  Li125  1  0.63229687  0.42388099  0.78053290  1
  Li  Li126  1  0.03433142  0.36502364  0.74978123  1
  Li  Li127  1  0.12626695  0.93442233  0.77850387  1
  Li  Li128  1  0.81731290  0.25490450  0.84756572  1
  Li  Li129  1  0.63665898  0.82973862  0.81035976  1
  Li  Li130  1  0.79283238  0.46262583  0.86036209  1
  Li  Li131  1  0.87869456  0.80454715  0.86833390  1
  Li  Li132  1  0.20594901  0.72695759  0.83427764  1
  Li  Li133  1  0.23320571  0.36162912  0.82064211  1
  Li  Li134  1  0.29269750  0.90979905  0.84113732  1
  Li  Li135  1  0.13726070  0.17246275  0.81129356  1
  Li  Li136  1  0.78327694  0.03837255  0.82979927  1
  Li  Li137  1  0.82919272  0.63768379  0.86818922  1
  Li  Li138  1  0.26671373  0.54299870  0.82621349  1
  Li  Li139  1  0.36726734  0.11448825  0.85588065  1
  Li  Li140  1  0.04482411  0.43984850  0.91896643  1
  Li  Li141  1  0.87897856  0.01323806  0.89028996  1
  Li  Li142  1  0.05871707  0.68323809  0.93812447  1
  Li  Li143  1  0.18177213  0.95081710  0.99292570  1
  Li  Li144  1  0.43421501  0.89931026  0.91064978  1
  Li  Li145  1  0.47670555  0.52499429  0.89465533  1
  Li  Li146  1  0.53854501  0.08880217  0.91554392  1
  Li  Li147  1  0.37026265  0.34790963  0.88936149  1
  Li  Li148  1  0.01794633  0.22492281  0.90596748  1
  Li  Li149  1  0.04330135  0.86008460  0.94962938  1
  Li  Li150  1  0.41664337  0.71469978  0.90323863  1
  Li  Li151  1  0.61941250  0.29173483  0.93284020  1
  Li  Li152  1  0.11625893  0.81179407  0.00685522  1
  Li  Li153  1  0.18904074  0.08864043  0.94700899  1
  Li  Li154  1  0.91704465  0.08251762  0.98150932  1
  Li  Li155  1  0.74040818  0.67702286  0.96127885  1
  Li  Li156  1  0.04181328  0.23289525  0.98408090  1
  Li  Li157  1  0.58831048  0.52624797  0.97136369  1
  Li  Li158  1  0.12588606  0.37787715  0.97504092  1
  Li  Li159  1  0.75307036  0.92719537  0.97140765  1
  P  P160  1  0.99800437  0.80070334  0.05851402  1
  P  P161  1  0.47110129  0.94640001  0.06274056  1
  P  P162  1  0.02635921  0.33764602  0.04025377  1
  P  P163  1  0.77588393  0.61399271  0.12702348  1
  P  P164  1  0.24051133  0.76349957  0.14278010  1
  P  P165  1  0.41408081  0.41612184  0.07813748  1
  P  P166  1  0.82052300  0.15176150  0.11175232  1
  P  P167  1  0.55362332  0.43189862  0.20574035  1
  P  P168  1  0.00708352  0.58084103  0.21816679  1
  P  P169  1  0.20078690  0.22936140  0.15595211  1
  P  P170  1  0.59131183  0.96663061  0.19064037  1
  P  P171  1  0.31571433  0.25145362  0.28239663  1
  P  P172  1  0.77238448  0.39861107  0.29477012  1
  P  P173  1  0.96373819  0.04780268  0.23187630  1
  P  P174  1  0.35833920  0.78694812  0.26712758  1
  P  P175  1  0.07365839  0.07061688  0.35885502  1
  P  P176  1  0.53100309  0.21737900  0.37375341  1
  P  P177  1  0.73053696  0.86598935  0.30875459  1
  P  P178  1  0.12610411  0.60489399  0.34374212  1
  P  P179  1  0.83782741  0.88899637  0.43380357  1
  P  P180  1  0.28397840  0.04166488  0.44852811  1
  P  P181  1  0.49227338  0.68500943  0.38435293  1
  P  P182  1  0.90947100  0.41943808  0.42198965  1
  P  P183  1  0.29748107  0.51449620  0.46048933  1
  P  P184  1  0.65189895  0.47477962  0.55835617  1
  P  P185  1  0.17748668  0.32895695  0.56291814  1
  P  P186  1  0.62419056  0.93677929  0.54019001  1
  P  P187  1  0.87392566  0.66142627  0.62710606  1
  P  P188  1  0.40877320  0.51142859  0.64267645  1
  P  P189  1  0.23718125  0.85854773  0.57822943  1
  P  P190  1  0.82999290  0.12305948  0.61156175  1
  P  P191  1  0.09749263  0.84246249  0.70585122  1
  P  P192  1  0.64450344  0.69377350  0.71844159  1
  P  P193  1  0.45068915  0.04505303  0.65595008  1
  P  P194  1  0.05875483  0.30716591  0.69043008  1
  P  P195  1  0.33428629  0.02341746  0.78218846  1
  P  P196  1  0.87784204  0.87648133  0.79468296  1
  P  P197  1  0.68600315  0.22702741  0.73168257  1
  P  P198  1  0.29267984  0.48784089  0.76729603  1
  P  P199  1  0.57577715  0.20445933  0.85838792  1
  P  P200  1  0.11826609  0.05846197  0.87358921  1
  P  P201  1  0.92135706  0.40842178  0.80870629  1
  P  P202  1  0.52134094  0.67145020  0.84434215  1
  P  P203  1  0.81195848  0.38592961  0.93382254  1
  P  P204  1  0.36581337  0.23253244  0.94830775  1
  P  P205  1  0.15550794  0.59162057  0.88529551  1
  P  P206  1  0.74269448  0.85586030  0.92161979  1
  P  P207  1  0.35365876  0.75974532  0.96079793  1
  S  S208  1  0.21600580  0.74747478  0.05187459  1
  S  S209  1  0.25033391  0.00185130  0.06429702  1
  S  S210  1  0.24807028  0.51909712  0.06395783  1
  S  S211  1  0.20686648  0.23269544  0.05061404  1
  S  S212  1  0.88706819  0.30301820  0.02108843  1
  S  S213  1  0.79489049  0.64798190  0.00448301  1
  S  S214  1  0.89892714  0.80139648  0.02376849  1
  S  S215  1  0.52794856  0.82706396  0.05191535  1
  S  S216  1  0.94765154  0.91961244  0.07011207  1
  S  S217  1  0.93171206  0.39689203  0.07422761  1
  S  S218  1  0.50791110  0.34091612  0.04676269  1
  S  S219  1  0.94624991  0.72821698  0.08350666  1
  S  S220  1  0.54753991  0.00999898  0.03767184  1
  S  S221  1  0.58860907  0.52856835  0.01760291  1
  S  S222  1  0.08155995  0.41929891  0.02050350  1
  S  S223  1  0.99708760  0.55345524  0.12583356  1
  S  S224  1  0.02071645  0.81719995  0.14714177  1
  S  S225  1  0.02891995  0.32923783  0.14156989  1
  S  S226  1  0.97827799  0.05139253  0.12949540  1
  S  S227  1  0.65991415  0.13663370  0.09287727  1
  S  S228  1  0.58074527  0.43931564  0.09377797  1
  S  S229  1  0.56778374  0.93569147  0.09877379  1
  S  S230  1  0.67838122  0.63282998  0.09104930  1
  S  S231  1  0.28869009  0.64653887  0.12883759  1
  S  S232  1  0.73522508  0.72958516  0.14159975  1
  S  S233  1  0.72222499  0.22984876  0.14295049  1
  S  S234  1  0.29191474  0.15609491  0.12339007  1
  S  S235  1  0.70383541  0.54638834  0.15016257  1
  S  S236  1  0.29891535  0.83631824  0.11929693  1
  S  S237  1  0.33653703  0.36736856  0.10691848  1
  S  S238  1  0.92580656  0.19578777  0.08580260  1
  S  S239  1  0.77428871  0.37266694  0.20269942  1
  S  S240  1  0.78607100  0.63562157  0.22159196  1
  S  S241  1  0.79002910  0.14652468  0.21698419  1
  S  S242  1  0.74671509  0.86410811  0.20744342  1
  S  S243  1  0.43111317  0.94733942  0.17177991  1
  S  S244  1  0.36434362  0.25358433  0.17102370  1
  S  S245  1  0.35513033  0.74548354  0.17690381  1
  S  S246  1  0.44457201  0.45477538  0.17092407  1
  S  S247  1  0.05175318  0.46322448  0.20464656  1
  S  S248  1  0.51222277  0.54749924  0.22012921  1
  S  S249  1  0.48969927  0.04279577  0.22200796  1
  S  S250  1  0.05815912  0.97439756  0.19973874  1
  S  S251  1  0.48252305  0.36262657  0.22825378  1
  S  S252  1  0.07177319  0.64879559  0.19427028  1
  S  S253  1  0.12304450  0.17820747  0.18406783  1
  S  S254  1  0.68522382  0.01314721  0.16390957  1
  S  S255  1  0.53623651  0.19676635  0.27927018  1
  S  S256  1  0.55129317  0.45911204  0.29636073  1
  S  S257  1  0.55612194  0.96606466  0.29479625  1
  S  S258  1  0.51811916  0.68693976  0.28427207  1
  S  S259  1  0.20153614  0.76380320  0.24845096  1
  S  S260  1  0.12290169  0.07486047  0.24751837  1
  S  S261  1  0.11680437  0.56146102  0.25290934  1
  S  S262  1  0.20786550  0.26908453  0.24743230  1
  S  S263  1  0.81349006  0.28318822  0.28056457  1
  S  S264  1  0.26759851  0.36881442  0.29616514  1
  S  S265  1  0.25386849  0.86324158  0.29820558  1
  S  S266  1  0.82405093  0.79367261  0.27624893  1
  S  S267  1  0.24885719  0.18192187  0.30555143  1
  S  S268  1  0.84709571  0.46701365  0.27222210  1
  S  S269  1  0.88631396  0.99658162  0.26005312  1
  S  S270  1  0.44881545  0.83504289  0.24031968  1
  S  S271  1  0.29382853  0.01788039  0.35545409  1
  S  S272  1  0.31034331  0.27997365  0.37385627  1
  S  S273  1  0.33634776  0.79193496  0.36931670  1
  S  S274  1  0.28916811  0.50236431  0.35919931  1
  S  S275  1  0.96592603  0.58343359  0.32570775  1
  S  S276  1  0.89149984  0.89258713  0.32382602  1
  S  S277  1  0.87148340  0.37922876  0.33047186  1
  S  S278  1  0.96427352  0.08673449  0.32408444  1
  S  S279  1  0.57326577  0.10264014  0.35852138  1
  S  S280  1  0.02073043  0.18865359  0.37235782  1
  S  S281  1  0.02724585  0.68023071  0.37524822  1
  S  S282  1  0.59122553  0.61109093  0.35246813  1
  S  S283  1  0.01189257  0.99921135  0.38228688  1
  S  S284  1  0.61181638  0.28451016  0.35242671  1
  S  S285  1  0.65538706  0.81282558  0.33661832  1
  S  S286  1  0.21251373  0.65465354  0.31658899  1
  S  S287  1  0.05891991  0.83691615  0.43269988  1
  S  S288  1  0.06499123  0.10005546  0.44900158  1
  S  S289  1  0.12076936  0.61409696  0.44716171  1
  S  S290  1  0.07270956  0.31421383  0.43661975  1
  S  S291  1  0.73682572  0.40090270  0.40758759  1
  S  S292  1  0.65527502  0.69726353  0.40432528  1
  S  S293  1  0.61928736  0.19909900  0.41055396  1
  S  S294  1  0.73976186  0.90101677  0.39789191  1
  S  S295  1  0.34805905  0.92080517  0.43695631  1
  S  S296  1  0.77705149  0.00606273  0.44745874  1
  S  S297  1  0.83362799  0.49157127  0.45511745  1
  S  S298  1  0.37124888  0.42877910  0.43120103  1
  S  S299  1  0.77083172  0.81676781  0.45641802  1
  S  S300  1  0.36356628  0.10271672  0.42393412  1
  S  S301  1  0.39200615  0.63814097  0.40921582  1
  S  S302  1  0.98229796  0.47035386  0.39365254  1
  S  S303  1  0.51862844  0.18396110  0.49239539  1
  S  S304  1  0.45863234  0.54856916  0.47004322  1
  S  S305  1  0.36372008  0.03714163  0.48587996  1
  S  S306  1  0.25650247  0.46531747  0.49426420  1
  S  S307  1  0.70443068  0.32314207  0.48684304  1
  S  S308  1  0.43382977  0.52788483  0.55179961  1
  S  S309  1  0.39819981  0.27340562  0.56441497  1
  S  S310  1  0.40349403  0.75560344  0.56415987  1
  S  S311  1  0.44359005  0.04167950  0.55055816  1
  S  S312  1  0.76354815  0.97136005  0.52099598  1
  S  S313  1  0.85792046  0.62718708  0.50467605  1
  S  S314  1  0.75044129  0.47422196  0.52353733  1
  S  S315  1  0.12047889  0.44810174  0.55186585  1
  S  S316  1  0.70263596  0.35584562  0.56996918  1
  S  S317  1  0.71914209  0.87756918  0.57414676  1
  S  S318  1  0.14333383  0.93391172  0.54687709  1
  S  S319  1  0.70367272  0.54732281  0.58334471  1
  S  S320  1  0.10142397  0.26486915  0.53795955  1
  S  S321  1  0.06496629  0.74650823  0.51736218  1
  S  S322  1  0.56998659  0.85495801  0.52037666  1
  S  S323  1  0.65263292  0.72180457  0.62594812  1
  S  S324  1  0.62874912  0.45814637  0.64696673  1
  S  S325  1  0.62275006  0.94533297  0.64157772  1
  S  S326  1  0.67197427  0.22358638  0.62919948  1
  S  S327  1  0.99107393  0.13795526  0.59276749  1
  S  S328  1  0.07034505  0.83502507  0.59366670  1
  S  S329  1  0.08077429  0.33991569  0.59896039  1
  S  S330  1  0.97140932  0.64204603  0.59111732  1
  S  S331  1  0.36053966  0.62857097  0.62887987  1
  S  S332  1  0.91429857  0.54586318  0.64170242  1
  S  S333  1  0.92813314  0.04512647  0.64280922  1
  S  S334  1  0.35933982  0.11813469  0.62336281  1
  S  S335  1  0.94558288  0.72931360  0.65018550  1
  S  S336  1  0.35094574  0.43847811  0.61916045  1
  S  S337  1  0.31357417  0.90739603  0.60710856  1
  S  S338  1  0.72475441  0.07884244  0.58563485  1
  S  S339  1  0.87680547  0.90196924  0.70278771  1
  S  S340  1  0.86568945  0.63877676  0.72133416  1
  S  S341  1  0.85920517  0.12795984  0.71675690  1
  S  S342  1  0.90250575  0.40977073  0.70701931  1
  S  S343  1  0.21882518  0.32653358  0.67154281  1
  S  S344  1  0.28749395  0.02042997  0.67099408  1
  S  S345  1  0.29410647  0.52916323  0.67677950  1
  S  S346  1  0.20570130  0.81978223  0.67095050  1
  S  S347  1  0.59910692  0.81147583  0.70488547  1
  S  S348  1  0.13912767  0.72685125  0.72028978  1
  S  S349  1  0.16046414  0.23134135  0.72181460  1
  S  S350  1  0.59098961  0.30009978  0.69949787  1
  S  S351  1  0.16949885  0.91129678  0.72838063  1
  S  S352  1  0.57777845  0.62654223  0.69465935  1
  S  S353  1  0.52818988  0.09628595  0.68406941  1
  S  S354  1  0.96583284  0.25994872  0.66373012  1
  S  S355  1  0.11388751  0.07792857  0.77904233  1
  S  S356  1  0.09871145  0.81548810  0.79667554  1
  S  S357  1  0.09207217  0.30736363  0.79406988  1
  S  S358  1  0.13221918  0.58794256  0.78434470  1
  S  S359  1  0.45005403  0.51084316  0.74875878  1
  S  S360  1  0.52664278  0.20058075  0.74754947  1
  S  S361  1  0.53728674  0.71263634  0.75346602  1
  S  S362  1  0.44255831  0.00522605  0.74724784  1
  S  S363  1  0.83773206  0.99165618  0.78037684  1
  S  S364  1  0.38245235  0.90628790  0.79618882  1
  S  S365  1  0.39647638  0.41164516  0.79846295  1
  S  S366  1  0.82665043  0.48112180  0.77616878  1
  S  S367  1  0.40125946  0.09326166  0.80515454  1
  S  S368  1  0.80318914  0.80789438  0.77224083  1
  S  S369  1  0.76456834  0.27814013  0.75967461  1
  S  S370  1  0.20331466  0.43936072  0.74040756  1
  S  S371  1  0.35563498  0.25673033  0.85483250  1
  S  S372  1  0.33885433  0.99536580  0.87387582  1
  S  S373  1  0.30760892  0.48394280  0.87006658  1
  S  S374  1  0.35717883  0.77377093  0.85968741  1
  S  S375  1  0.68309911  0.69290524  0.82708319  1
  S  S376  1  0.75883476  0.38389201  0.82424566  1
  S  S377  1  0.77671644  0.89718556  0.83023921  1
  S  S378  1  0.68629815  0.18840302  0.82377412  1
  S  S379  1  0.07648834  0.17306291  0.85841686  1
  S  S380  1  0.62914988  0.08630664  0.87186701  1
  S  S381  1  0.61956356  0.59620229  0.87608108  1
  S  S382  1  0.05311317  0.66537084  0.85364169  1
  S  S383  1  0.63579432  0.27625029  0.88197451  1
  S  S384  1  0.03746087  0.99154671  0.85217767  1
  S  S385  1  0.99782122  0.46203994  0.83582850  1
  S  S386  1  0.43673631  0.62087446  0.81725754  1
  S  S387  1  0.59084932  0.43777068  0.93293755  1
  S  S388  1  0.58470921  0.17372783  0.94845572  1
  S  S389  1  0.53122590  0.66084123  0.94736679  1
  S  S390  1  0.57641740  0.96000930  0.93601382  1
  S  S391  1  0.91239443  0.87666018  0.90720335  1
  S  S392  1  0.99575686  0.57994623  0.90687135  1
  S  S393  1  0.02962616  0.07665642  0.91038811  1
  S  S394  1  0.90926196  0.37448274  0.89786997  1
  S  S395  1  0.30144447  0.35343453  0.93674084  1
  S  S396  1  0.87336935  0.26875400  0.94741313  1
  S  S397  1  0.82016641  0.78418677  0.95472695  1
  S  S398  1  0.27733756  0.84497970  0.93142473  1
  S  S399  1  0.87937415  0.45786747  0.95653075  1
  S  S400  1  0.28530132  0.17174396  0.92376463  1
  S  S401  1  0.25928063  0.63775860  0.90957822  1
  S  S402  1  0.66957816  0.80451728  0.89314590  1
  S  S403  1  0.13030979  0.09131386  0.99224012  1
  S  S404  1  0.19510885  0.72386665  0.97081916  1
  S  S405  1  0.28714654  0.23734059  0.98580156  1
  S  S406  1  0.39453752  0.80999879  0.99432637  1
  S  S407  1  0.94539489  0.95158395  0.98679566  1
