# generated using pymatgen
data_Li3PS4
_symmetry_space_group_name_H-M   'P 1'
_cell_length_a   10.24241400
_cell_length_b   18.09023381
_cell_length_c   49.16816096
_cell_angle_alpha   90.00000000
_cell_angle_beta   90.00000000
_cell_angle_gamma   64.97678698
_symmetry_Int_Tables_number   1
_chemical_formula_structural   Li3PS4
_chemical_formula_sum   'Li144 P48 S192'
_cell_volume   8255.13331713
_cell_formula_units_Z   48
loop_
 _symmetry_equiv_pos_site_id
 _symmetry_equiv_pos_as_xyz
  1  'x, y, z'
loop_
 _atom_site_type_symbol
 _atom_site_label
 _atom_site_symmetry_multiplicity
 _atom_site_fract_x
 _atom_site_fract_y
 _atom_site_fract_z
 _atom_site_occupancy
  Li  Li0  1  0.82372762  0.74158264  0.05672745  1
  Li  Li1  1  0.78258664  0.97745705  0.07184522  1
  Li  Li2  1  0.08991660  0.54945836  0.07332495  1
  Li  Li3  1  0.68378485  0.23592641  0.06752325  1
  Li  Li4  1  0.44051595  0.28823831  0.01784088  1
  Li  Li5  1  0.39978446  0.09269996  0.02845721  1
  Li  Li6  1  0.72156248  0.44884982  0.00179915  1
  Li  Li7  1  0.37646956  0.46929775  0.00955288  1
  Li  Li8  1  0.29840196  0.86749197  0.05011991  1
  Li  Li9  1  0.63208607  0.57088841  0.10704667  1
  Li  Li10  1  0.56549358  0.81083403  0.15362302  1
  Li  Li11  1  0.63812825  0.35895902  0.12577051  1
  Li  Li12  1  0.54370796  0.00961336  0.13211839  1
  Li  Li13  1  0.20831818  0.10441029  0.09341694  1
  Li  Li14  1  0.23735180  0.32382385  0.08714010  1
  Li  Li15  1  0.11046333  0.90638494  0.10873683  1
  Li  Li16  1  0.30683495  0.65254957  0.07628978  1
  Li  Li17  1  0.60185676  0.78280332  0.09285278  1
  Li  Li18  1  0.61865197  0.15911242  0.13932075  1
  Li  Li19  1  0.88889837  0.34472356  0.06195728  1
  Li  Li20  1  0.10049670  0.68492047  0.13350454  1
  Li  Li21  1  0.39008058  0.38903177  0.18581831  1
  Li  Li22  1  0.33364522  0.62827054  0.22752421  1
  Li  Li23  1  0.38462199  0.17963616  0.20756330  1
  Li  Li24  1  0.32414960  0.83344087  0.21232141  1
  Li  Li25  1  0.98287018  0.91813593  0.18091105  1
  Li  Li26  1  0.96013784  0.28627824  0.16073170  1
  Li  Li27  1  0.89181071  0.72712448  0.18812917  1
  Li  Li28  1  0.04706643  0.46231187  0.15583957  1
  Li  Li29  1  0.54087947  0.59181926  0.16812763  1
  Li  Li30  1  0.37479607  0.98925887  0.21629740  1
  Li  Li31  1  0.02481897  0.10390156  0.16961999  1
  Li  Li32  1  0.88270037  0.48757245  0.22088172  1
  Li  Li33  1  0.15495542  0.21100092  0.26732537  1
  Li  Li34  1  0.09907174  0.44672565  0.30968318  1
  Li  Li35  1  0.16347397  0.00398350  0.28990171  1
  Li  Li36  1  0.09410749  0.65563661  0.29152377  1
  Li  Li37  1  0.75647841  0.72749869  0.25877942  1
  Li  Li38  1  0.73138274  0.09741422  0.24329336  1
  Li  Li39  1  0.65045898  0.54662030  0.26787081  1
  Li  Li40  1  0.81400155  0.28051646  0.23660958  1
  Li  Li41  1  0.30524502  0.41330410  0.24813707  1
  Li  Li42  1  0.09903604  0.85097954  0.28317173  1
  Li  Li43  1  0.70819480  0.90972458  0.25109703  1
  Li  Li44  1  0.65116724  0.30478346  0.30237492  1
  Li  Li45  1  0.92925647  0.02046936  0.35508013  1
  Li  Li46  1  0.87713706  0.25639479  0.39175701  1
  Li  Li47  1  0.93457957  0.82767709  0.36960573  1
  Li  Li48  1  0.85367184  0.47303270  0.37357850  1
  Li  Li49  1  0.51733464  0.54412100  0.33869743  1
  Li  Li50  1  0.49995718  0.91157596  0.32402810  1
  Li  Li51  1  0.42680289  0.36562848  0.34860962  1
  Li  Li52  1  0.57956440  0.10235142  0.31633146  1
  Li  Li53  1  0.06726759  0.23039913  0.32944860  1
  Li  Li54  1  0.86503510  0.67225838  0.36243803  1
  Li  Li55  1  0.45073332  0.72770430  0.32953274  1
  Li  Li56  1  0.42648564  0.12480076  0.38168459  1
  Li  Li57  1  0.69988390  0.85746255  0.42133642  1
  Li  Li58  1  0.67105249  0.89326929  0.49096348  1
  Li  Li59  1  0.71667393  0.63400993  0.44240085  1
  Li  Li60  1  0.61950812  0.28494501  0.45087209  1
  Li  Li61  1  0.28495636  0.36434961  0.41606277  1
  Li  Li62  1  0.25199557  0.73948362  0.40967762  1
  Li  Li63  1  0.20033882  0.19501382  0.42645659  1
  Li  Li64  1  0.37352614  0.91496784  0.39390702  1
  Li  Li65  1  0.72671510  0.05549483  0.43220175  1
  Li  Li66  1  0.59728895  0.49345412  0.42944127  1
  Li  Li67  1  0.21169694  0.55428167  0.41067451  1
  Li  Li68  1  0.18005331  0.97313731  0.44024880  1
  Li  Li69  1  0.08225050  0.53150457  0.48204959  1
  Li  Li70  1  0.18660343  0.68351141  0.50277544  1
  Li  Li71  1  0.81917684  0.39719217  0.47770143  1
  Li  Li72  1  0.97469718  0.87139843  0.51420572  1
  Li  Li73  1  0.11111744  0.61373768  0.57447892  1
  Li  Li74  1  0.84272916  0.06320210  0.57321472  1
  Li  Li75  1  0.23354161  0.36285329  0.56753432  1
  Li  Li76  1  0.48193274  0.31181572  0.51790881  1
  Li  Li77  1  0.53647797  0.49767898  0.52880220  1
  Li  Li78  1  0.19899692  0.15785770  0.50180657  1
  Li  Li79  1  0.55270209  0.13369157  0.51027450  1
  Li  Li80  1  0.57579792  0.73496659  0.55851078  1
  Li  Li81  1  0.28742442  0.01860357  0.60473328  1
  Li  Li82  1  0.34237890  0.79334059  0.64703754  1
  Li  Li83  1  0.28313353  0.23709718  0.62495005  1
  Li  Li84  1  0.38046843  0.58664810  0.63196298  1
  Li  Li85  1  0.70472228  0.48785763  0.59272865  1
  Li  Li86  1  0.68902020  0.27335553  0.58710335  1
  Li  Li87  1  0.78431310  0.68272633  0.60961292  1
  Li  Li88  1  0.62433659  0.94278073  0.57020710  1
  Li  Li89  1  0.14762864  0.82349423  0.57992740  1
  Li  Li90  1  0.29834969  0.43952394  0.63993314  1
  Li  Li91  1  0.04823570  0.25193624  0.55995413  1
  Li  Li92  1  0.82519576  0.90499696  0.62337242  1
  Li  Li93  1  0.53428010  0.21068599  0.68554115  1
  Li  Li94  1  0.59300516  0.97556045  0.73080022  1
  Li  Li95  1  0.53213883  0.42312046  0.70724202  1
  Li  Li96  1  0.59516836  0.77112321  0.70895301  1
  Li  Li97  1  0.93681981  0.68343123  0.67782436  1
  Li  Li98  1  0.95763110  0.30808601  0.66049306  1
  Li  Li99  1  0.01801071  0.87368565  0.68393150  1
  Li  Li100  1  0.87142683  0.13135141  0.65399601  1
  Li  Li101  1  0.47330209  0.99908130  0.66947275  1
  Li  Li102  1  0.54676271  0.61525028  0.71518316  1
  Li  Li103  1  0.89611849  0.49140969  0.67033757  1
  Li  Li104  1  0.05010375  0.10553939  0.71788248  1
  Li  Li105  1  0.77233224  0.39336285  0.76650498  1
  Li  Li106  1  0.82943978  0.15816249  0.80808300  1
  Li  Li107  1  0.76657767  0.59869004  0.78917685  1
  Li  Li108  1  0.83872529  0.94661211  0.79144095  1
  Li  Li109  1  0.17094049  0.87555020  0.75677700  1
  Li  Li110  1  0.19400794  0.50450120  0.74165398  1
  Li  Li111  1  0.27625661  0.05663421  0.76647662  1
  Li  Li112  1  0.11301881  0.31856099  0.73518570  1
  Li  Li113  1  0.62511500  0.19025523  0.74710404  1
  Li  Li114  1  0.83209817  0.75100482  0.78106684  1
  Li  Li115  1  0.21145118  0.69337318  0.74939552  1
  Li  Li116  1  0.28007681  0.29721925  0.80091350  1
  Li  Li117  1  0.01282899  0.58157012  0.85251790  1
  Li  Li118  1  0.06226586  0.34750938  0.89035319  1
  Li  Li119  1  0.99334201  0.78399362  0.86663930  1
  Li  Li120  1  0.07404346  0.13037955  0.87184746  1
  Li  Li121  1  0.41092723  0.06007987  0.83796402  1
  Li  Li122  1  0.43236592  0.69081949  0.82315927  1
  Li  Li123  1  0.50840641  0.23892136  0.84743585  1
  Li  Li124  1  0.34927168  0.50194011  0.81527429  1
  Li  Li125  1  0.86755215  0.37333029  0.82842006  1
  Li  Li126  1  0.06804540  0.93295935  0.86075713  1
  Li  Li127  1  0.47707042  0.87468570  0.82815235  1
  Li  Li128  1  0.52483349  0.47660173  0.87997663  1
  Li  Li129  1  0.26036105  0.74892974  0.92481412  1
  Li  Li130  1  0.18877751  0.69083184  0.99494678  1
  Li  Li131  1  0.21709182  0.97136010  0.94119965  1
  Li  Li132  1  0.29754770  0.31756530  0.95089166  1
  Li  Li133  1  0.64807412  0.24524657  0.91719147  1
  Li  Li134  1  0.67419993  0.86897902  0.90491272  1
  Li  Li135  1  0.74278126  0.41333237  0.92639134  1
  Li  Li136  1  0.58343778  0.68208663  0.89529374  1
  Li  Li137  1  0.21191801  0.55015743  0.92307129  1
  Li  Li138  1  0.33669478  0.11289470  0.92876861  1
  Li  Li139  1  0.71542086  0.05672494  0.90947350  1
  Li  Li140  1  0.79553823  0.63443179  0.94813859  1
  Li  Li141  1  0.84675980  0.08602474  0.97839589  1
  Li  Li142  1  0.82381007  0.87139781  0.98172748  1
  Li  Li143  1  0.11686479  0.19858985  0.98532983  1
  P  P144  1  0.07296603  0.78714477  0.04990487  1
  P  P145  1  0.53964942  0.93244598  0.05650669  1
  P  P146  1  0.51212192  0.41714826  0.06785317  1
  P  P147  1  0.13341944  0.34586004  0.02674654  1
  P  P148  1  0.86174489  0.61934568  0.12491257  1
  P  P149  1  0.32727336  0.76075716  0.14072838  1
  P  P150  1  0.27474891  0.22726022  0.14926494  1
  P  P151  1  0.89806344  0.14354120  0.10804497  1
  P  P152  1  0.63385104  0.42998168  0.20286553  1
  P  P153  1  0.09231116  0.57840680  0.21720922  1
  P  P154  1  0.04771330  0.04748995  0.23280012  1
  P  P155  1  0.66558853  0.96700704  0.18937953  1
  P  P156  1  0.39635551  0.25211491  0.28379525  1
  P  P157  1  0.85505771  0.39745518  0.29818565  1
  P  P158  1  0.81348485  0.86667108  0.31268249  1
  P  P159  1  0.43586404  0.78655021  0.26890275  1
  P  P160  1  0.17704981  0.06879807  0.36550310  1
  P  P161  1  0.62838643  0.21211681  0.37834403  1
  P  P162  1  0.56741455  0.68763738  0.39017487  1
  P  P163  1  0.20200150  0.60618186  0.34923759  1
  P  P164  1  0.95029963  0.87154263  0.44272492  1
  P  P165  1  0.39084858  0.04442051  0.45718310  1
  P  P166  1  0.38519644  0.48108027  0.46881879  1
  P  P167  1  0.98461875  0.42448735  0.43145255  1
  P  P168  1  0.82296610  0.78509739  0.54370648  1
  P  P169  1  0.35220647  0.65384036  0.55693518  1
  P  P170  1  0.41441525  0.18011019  0.56775379  1
  P  P171  1  0.79127960  0.25716717  0.52572116  1
  P  P172  1  0.04158302  0.98304276  0.62151479  1
  P  P173  1  0.59117778  0.83664514  0.63500784  1
  P  P174  1  0.64196776  0.36996575  0.64965899  1
  P  P175  1  0.01620072  0.44877528  0.60888702  1
  P  P176  1  0.29478998  0.16731141  0.70203336  1
  P  P177  1  0.82836512  0.02267580  0.71635391  1
  P  P178  1  0.87551737  0.55554067  0.73172943  1
  P  P179  1  0.25391176  0.63609687  0.68792143  1
  P  P180  1  0.53138241  0.35192387  0.78282739  1
  P  P181  1  0.07429233  0.20506074  0.79672563  1
  P  P182  1  0.11706737  0.73782966  0.81094238  1
  P  P183  1  0.49279154  0.81485152  0.76708355  1
  P  P184  1  0.76804663  0.53508834  0.86438620  1
  P  P185  1  0.31135362  0.39074173  0.87734980  1
  P  P186  1  0.35983036  0.91640779  0.88929839  1
  P  P187  1  0.72643042  0.00029219  0.84842702  1
  P  P188  1  0.00360931  0.72421514  0.94286912  1
  P  P189  1  0.55155412  0.56256483  0.95605934  1
  P  P190  1  0.55189970  0.11851299  0.96934892  1
  P  P191  1  0.95453755  0.18211495  0.93009523  1
  S  S192  1  0.28251441  0.73738928  0.03649580  1
  S  S193  1  0.31974825  0.00501551  0.05633939  1
  S  S194  1  0.33750963  0.52119841  0.05673217  1
  S  S195  1  0.29090043  0.24329077  0.04443225  1
  S  S196  1  0.97246217  0.31869848  0.01127145  1
  S  S197  1  0.93829962  0.77890336  0.02072946  1
  S  S198  1  0.56216806  0.81921573  0.04370318  1
  S  S199  1  0.03443354  0.90473586  0.06169881  1
  S  S200  1  0.04034125  0.42763765  0.05757457  1
  S  S201  1  0.60178799  0.35241638  0.03234599  1
  S  S202  1  0.04867125  0.71659659  0.08089171  1
  S  S203  1  0.63708214  0.98593877  0.03245190  1
  S  S204  1  0.22521830  0.38905388  0.99624503  1
  S  S205  1  0.08201177  0.55559678  0.12266494  1
  S  S206  1  0.10809777  0.81482677  0.14579065  1
  S  S207  1  0.11366357  0.32915157  0.13209597  1
  S  S208  1  0.07643401  0.04669725  0.12257474  1
  S  S209  1  0.73731256  0.11289443  0.09449420  1
  S  S210  1  0.67160881  0.44022945  0.08643748  1
  S  S211  1  0.63878397  0.91242331  0.09430971  1
  S  S212  1  0.77038306  0.63739542  0.08637035  1
  S  S213  1  0.38102637  0.64598604  0.12415486  1
  S  S214  1  0.81576187  0.73258621  0.14111619  1
  S  S215  1  0.81008286  0.22061504  0.14128417  1
  S  S216  1  0.37708989  0.14927500  0.11771345  1
  S  S217  1  0.78913491  0.54688345  0.14643619  1
  S  S218  1  0.37814569  0.83828560  0.11711363  1
  S  S219  1  0.46832739  0.34216237  0.09379404  1
  S  S220  1  0.95622607  0.19637902  0.07615303  1
  S  S221  1  0.85491035  0.36786142  0.20166950  1
  S  S222  1  0.87183647  0.63116426  0.22172248  1
  S  S223  1  0.88288933  0.14551767  0.21543620  1
  S  S224  1  0.83030999  0.86668325  0.20615408  1
  S  S225  1  0.50227725  0.94443483  0.17263513  1
  S  S226  1  0.43031104  0.25210109  0.16884783  1
  S  S227  1  0.44260524  0.73922248  0.17633554  1
  S  S228  1  0.53656328  0.45309917  0.16525283  1
  S  S229  1  0.14019202  0.46113664  0.20286379  1
  S  S230  1  0.59354756  0.54434495  0.21879878  1
  S  S231  1  0.56969458  0.04351577  0.22235298  1
  S  S232  1  0.14804365  0.97141254  0.20000214  1
  S  S233  1  0.55727185  0.36150156  0.22531212  1
  S  S234  1  0.15301653  0.64826444  0.19229176  1
  S  S235  1  0.18576535  0.18128680  0.17856740  1
  S  S236  1  0.75039953  0.01383513  0.16008594  1
  S  S237  1  0.61762762  0.19001965  0.28186251  1
  S  S238  1  0.63442770  0.44947217  0.30150435  1
  S  S239  1  0.64143009  0.96554412  0.29698183  1
  S  S240  1  0.59762714  0.68537915  0.28568670  1
  S  S241  1  0.27815236  0.76269563  0.25020214  1
  S  S242  1  0.20567277  0.07344194  0.25071915  1
  S  S243  1  0.20435890  0.56184861  0.25327737  1
  S  S244  1  0.29561969  0.27656455  0.24658075  1
  S  S245  1  0.90627916  0.28003571  0.28381603  1
  S  S246  1  0.35848033  0.36586294  0.29993298  1
  S  S247  1  0.33510382  0.86228260  0.30153188  1
  S  S248  1  0.90529785  0.79198447  0.27908766  1
  S  S249  1  0.32157421  0.18328440  0.30646401  1
  S  S250  1  0.91626119  0.46920471  0.27392071  1
  S  S251  1  0.96473151  0.99811429  0.26176181  1
  S  S252  1  0.52464889  0.83589276  0.24057914  1
  S  S253  1  0.39768333  0.00960888  0.36126379  1
  S  S254  1  0.40717590  0.26767796  0.38098099  1
  S  S255  1  0.39034775  0.78457564  0.37551078  1
  S  S256  1  0.36049651  0.50499568  0.36709908  1
  S  S257  1  0.04465065  0.58294661  0.32994009  1
  S  S258  1  0.97512389  0.89246954  0.32840057  1
  S  S259  1  0.96433055  0.38149501  0.33453855  1
  S  S260  1  0.06279278  0.08949605  0.32988623  1
  S  S261  1  0.67220883  0.09935116  0.36198061  1
  S  S262  1  0.13455926  0.18559105  0.37949688  1
  S  S263  1  0.09968446  0.68266579  0.38186798  1
  S  S264  1  0.66536106  0.60844542  0.35822069  1
  S  S265  1  0.11090834  0.00049741  0.39022781  1
  S  S266  1  0.69339703  0.28639774  0.35597209  1
  S  S267  1  0.73576427  0.81691440  0.34250978  1
  S  S268  1  0.29290106  0.65167289  0.32035540  1
  S  S269  1  0.16474885  0.84471569  0.44533647  1
  S  S270  1  0.16784763  0.10109071  0.45793355  1
  S  S271  1  0.21955859  0.59286141  0.45940305  1
  S  S272  1  0.14643568  0.32580351  0.44810151  1
  S  S273  1  0.82682276  0.39328238  0.41546633  1
  S  S274  1  0.72255162  0.72004594  0.40570097  1
  S  S275  1  0.73897776  0.18931793  0.41508422  1
  S  S276  1  0.84871246  0.92985578  0.40699339  1
  S  S277  1  0.45627404  0.92617607  0.44260366  1
  S  S278  1  0.84114350  0.95562775  0.47315139  1
  S  S279  1  0.88677022  0.50734603  0.46286612  1
  S  S280  1  0.45141403  0.41507104  0.43288107  1
  S  S281  1  0.92310466  0.76735159  0.44389220  1
  S  S282  1  0.46056839  0.11660397  0.43458204  1
  S  S283  1  0.49906774  0.63815263  0.42186754  1
  S  S284  1  0.05605503  0.47459141  0.40079167  1
  S  S285  1  0.56437268  0.49800226  0.48035261  1
  S  S286  1  0.45540608  0.03764199  0.49687604  1
  S  S287  1  0.30493604  0.42488498  0.49542566  1
  S  S288  1  0.60452441  0.84911184  0.53727041  1
  S  S289  1  0.57445828  0.59729512  0.55848183  1
  S  S290  1  0.59609802  0.07948712  0.55643443  1
  S  S291  1  0.63121292  0.35497847  0.54498526  1
  S  S292  1  0.94694062  0.28681920  0.50923310  1
  S  S293  1  0.91370026  0.75900773  0.50568541  1
  S  S294  1  0.29462572  0.76099715  0.53587164  1
  S  S295  1  0.85895206  0.67845337  0.56346044  1
  S  S296  1  0.89527856  0.17426696  0.55565780  1
  S  S297  1  0.32100458  0.24627081  0.53240889  1
  S  S298  1  0.88922601  0.86664271  0.56312539  1
  S  S299  1  0.28320089  0.57657995  0.53707307  1
  S  S300  1  0.69797925  0.21280797  0.49579489  1
  S  S301  1  0.82013321  0.04425037  0.62121894  1
  S  S302  1  0.81137791  0.77972984  0.64005506  1
  S  S303  1  0.80188134  0.26746911  0.63253518  1
  S  S304  1  0.83401290  0.54322970  0.62338411  1
  S  S305  1  0.17451788  0.48202353  0.59603567  1
  S  S306  1  0.25851962  0.15285178  0.58563697  1
  S  S307  1  0.25607015  0.67928943  0.59467781  1
  S  S308  1  0.11721785  0.97022987  0.58215776  1
  S  S309  1  0.54880303  0.95048945  0.61845099  1
  S  S310  1  0.08726369  0.86627595  0.63575766  1
  S  S311  1  0.10753682  0.37176063  0.64179153  1
  S  S312  1  0.53806666  0.44653354  0.61781926  1
  S  S313  1  0.12716942  0.04584852  0.64401077  1
  S  S314  1  0.52270744  0.76672295  0.61144023  1
  S  S315  1  0.45282884  0.25706297  0.59360803  1
  S  S316  1  0.96044180  0.39722076  0.57635356  1
  S  S317  1  0.07381062  0.22840912  0.70100956  1
  S  S318  1  0.04952703  0.96551924  0.71850077  1
  S  S319  1  0.03952318  0.45573711  0.71482319  1
  S  S320  1  0.08599357  0.73577955  0.70419400  1
  S  S321  1  0.41394062  0.66123805  0.67101488  1
  S  S322  1  0.48542199  0.34759576  0.66974441  1
  S  S323  1  0.47849906  0.86064110  0.67093058  1
  S  S324  1  0.39238805  0.14651821  0.66437198  1
  S  S325  1  0.78395054  0.13890169  0.70171781  1
  S  S326  1  0.33866266  0.05209236  0.71756606  1
  S  S327  1  0.35185957  0.56120005  0.72118906  1
  S  S328  1  0.77497808  0.62978012  0.69855004  1
  S  S329  1  0.36926010  0.23619540  0.72486154  1
  S  S330  1  0.75784085  0.95431696  0.69244893  1
  S  S331  1  0.73344376  0.41564453  0.67853416  1
  S  S332  1  0.17208656  0.58553831  0.65925055  1
  S  S333  1  0.31029187  0.41431189  0.78090825  1
  S  S334  1  0.29492253  0.15244099  0.80020916  1
  S  S335  1  0.28881749  0.63853423  0.79550376  1
  S  S336  1  0.33232226  0.91678910  0.78383702  1
  S  S337  1  0.65049200  0.83692240  0.74756532  1
  S  S338  1  0.71695889  0.53146036  0.75013885  1
  S  S339  1  0.72626434  0.04135332  0.75356994  1
  S  S340  1  0.63210397  0.32757910  0.74563809  1
  S  S341  1  0.02383884  0.32238623  0.78234829  1
  S  S342  1  0.56944359  0.23765841  0.79860426  1
  S  S343  1  0.59438199  0.74069396  0.80000345  1
  S  S344  1  0.02239776  0.81191790  0.77732964  1
  S  S345  1  0.60722780  0.41972760  0.80576697  1
  S  S346  1  0.01199590  0.13394676  0.77236873  1
  S  S347  1  0.96213611  0.60476051  0.76013013  1
  S  S348  1  0.40151144  0.76609250  0.73903469  1
  S  S349  1  0.54736552  0.59561554  0.86068571  1
  S  S350  1  0.53248409  0.33438751  0.87983653  1
  S  S351  1  0.53457078  0.81814615  0.87456203  1
  S  S352  1  0.56735212  0.10132590  0.86613363  1
  S  S353  1  0.88377322  0.02312459  0.82908209  1
  S  S354  1  0.95597493  0.71232149  0.82705863  1
  S  S355  1  0.96477507  0.22200254  0.83303131  1
  S  S356  1  0.87825786  0.51284937  0.82822158  1
  S  S357  1  0.26839243  0.50511242  0.86209818  1
  S  S358  1  0.80696361  0.41840797  0.87845661  1
  S  S359  1  0.82982202  0.92408138  0.88091479  1
  S  S360  1  0.26349125  0.99440439  0.85693923  1
  S  S361  1  0.84119197  0.59986821  0.88910941  1
  S  S362  1  0.24382617  0.31864290  0.85436206  1
  S  S363  1  0.19560281  0.78910652  0.84007807  1
  S  S364  1  0.63681471  0.95281183  0.82002598  1
  S  S365  1  0.78184803  0.77998406  0.94372731  1
  S  S366  1  0.77366960  0.50285836  0.95964955  1
  S  S367  1  0.72503932  0.01280308  0.95712177  1
  S  S368  1  0.79648318  0.28022908  0.94779923  1
  S  S369  1  0.11075837  0.20974110  0.91191973  1
  S  S370  1  0.20184398  0.88728584  0.90515760  1
  S  S371  1  0.20113093  0.41285267  0.91395542  1
  S  S372  1  0.09720564  0.69280339  0.90482392  1
  S  S373  1  0.50683908  0.67880672  0.94241833  1
  S  S374  1  0.06383054  0.61689371  0.96398824  1
  S  S375  1  0.05326385  0.09848150  0.96153665  1
  S  S376  1  0.48545263  0.19085415  0.93459289  1
  S  S377  1  0.08064982  0.80176557  0.95999724  1
  S  S378  1  0.48273346  0.49358770  0.93148649  1
  S  S379  1  0.43210601  0.96648824  0.92022000  1
  S  S380  1  0.87492986  0.13267637  0.90048042  1
  S  S381  1  0.37390604  0.09823537  0.97883893  1
  S  S382  1  0.47032866  0.56751163  0.99463341  1
  S  S383  1  0.62579157  0.16886944  0.99910286  1
