# generated using pymatgen
data_Li20P6S25
_symmetry_space_group_name_H-M   'P 1'
_cell_length_a   10.24241400
_cell_length_b   18.09023381
_cell_length_c   51.25451511
_cell_angle_alpha   90.00000000
_cell_angle_beta   90.00000000
_cell_angle_gamma   64.97678698
_symmetry_Int_Tables_number   1
_chemical_formula_structural   Li20P6S25
_chemical_formula_sum   'Li160 P48 S200'
_cell_volume   8605.42365474
_cell_formula_units_Z   8
loop_
 _symmetry_equiv_pos_site_id
 _symmetry_equiv_pos_as_xyz
  1  'x, y, z'
loop_
 _atom_site_type_symbol
 _atom_site_label
 _atom_site_symmetry_multiplicity
 _atom_site_fract_x
 _atom_site_fract_y
 _atom_site_fract_z
 _atom_site_occupancy
  Li  Li0  1  0.85140363  0.68755091  0.04087356  1
  Li  Li1  1  0.02146226  0.15329751  0.03597834  1
  Li  Li2  1  0.81557340  0.50443087  0.00706117  1
  Li  Li3  1  0.74399195  0.31298440  0.06435446  1
  Li  Li4  1  0.31797630  0.29189074  0.02740420  1
  Li  Li5  1  0.55550066  0.65232023  0.01040686  1
  Li  Li6  1  0.31002574  0.07101046  0.02208361  1
  Li  Li7  1  0.63924970  0.78124536  0.99923994  1
  Li  Li8  1  0.82597854  0.92740936  0.02244644  1
  Li  Li9  1  0.67634230  0.50099081  0.06038566  1
  Li  Li10  1  0.42408479  0.46640562  0.02848784  1
  Li  Li11  1  0.28732473  0.84288562  0.06948143  1
  Li  Li12  1  0.52930603  0.56215955  0.11402891  1
  Li  Li13  1  0.71116411  0.98609433  0.07778906  1
  Li  Li14  1  0.53592102  0.35687324  0.13238381  1
  Li  Li15  1  0.47933423  0.01170061  0.13586183  1
  Li  Li16  1  0.14667377  0.07271472  0.10323571  1
  Li  Li17  1  0.08744976  0.44885392  0.08854466  1
  Li  Li18  1  0.03274904  0.90155825  0.11466218  1
  Li  Li19  1  0.20041170  0.62784171  0.08627951  1
  Li  Li20  1  0.67609686  0.76766583  0.09347575  1
  Li  Li21  1  0.47823437  0.20333632  0.12528786  1
  Li  Li22  1  0.08233293  0.25611638  0.09717548  1
  Li  Li23  1  0.01097120  0.67129562  0.13757100  1
  Li  Li24  1  0.29826713  0.37522655  0.19195707  1
  Li  Li25  1  0.48021370  0.80067246  0.15375713  1
  Li  Li26  1  0.31793222  0.17189364  0.20905670  1
  Li  Li27  1  0.23871656  0.82952420  0.21299081  1
  Li  Li28  1  0.90223905  0.89613809  0.18353432  1
  Li  Li29  1  0.88027613  0.26266754  0.16635448  1
  Li  Li30  1  0.80401773  0.71552920  0.18816016  1
  Li  Li31  1  0.95814394  0.45366904  0.15960450  1
  Li  Li32  1  0.44062862  0.58359670  0.17218158  1
  Li  Li33  1  0.24707769  0.02089509  0.20408090  1
  Li  Li34  1  0.83688114  0.08213966  0.17143989  1
  Li  Li35  1  0.78347749  0.48460964  0.21892950  1
  Li  Li36  1  0.06082101  0.19320210  0.27031892  1
  Li  Li37  1  0.24348875  0.61530548  0.23007011  1
  Li  Li38  1  0.07578314  0.99240296  0.28575714  1
  Li  Li39  1  0.00158944  0.64696802  0.28926900  1
  Li  Li40  1  0.66584141  0.71665600  0.25805887  1
  Li  Li41  1  0.64201101  0.08317087  0.24382340  1
  Li  Li42  1  0.57291458  0.54049853  0.26589864  1
  Li  Li43  1  0.73761975  0.26865766  0.23416112  1
  Li  Li44  1  0.12421181  0.40587777  0.25199732  1
  Li  Li45  1  0.01069274  0.83807915  0.28044506  1
  Li  Li46  1  0.60598546  0.89836655  0.25011745  1
  Li  Li47  1  0.51605597  0.32758798  0.27871959  1
  Li  Li48  1  0.81996459  0.00939300  0.34805278  1
  Li  Li49  1  0.00344246  0.43395308  0.31025680  1
  Li  Li50  1  0.85002894  0.80440873  0.36108492  1
  Li  Li51  1  0.76118689  0.46227945  0.36854773  1
  Li  Li52  1  0.43291986  0.53533747  0.33382992  1
  Li  Li53  1  0.40563796  0.90018565  0.32175597  1
  Li  Li54  1  0.34645385  0.35354569  0.34108582  1
  Li  Li55  1  0.50256944  0.09004053  0.31163959  1
  Li  Li56  1  0.85500220  0.22529626  0.33041139  1
  Li  Li57  1  0.78299958  0.65145773  0.36095269  1
  Li  Li58  1  0.36619512  0.71904774  0.32604656  1
  Li  Li59  1  0.27326880  0.14849318  0.35678594  1
  Li  Li60  1  0.59263191  0.82325492  0.41938065  1
  Li  Li61  1  0.75775297  0.25194708  0.39110081  1
  Li  Li62  1  0.58315121  0.57685957  0.43747550  1
  Li  Li63  1  0.45292132  0.31273018  0.49231100  1
  Li  Li64  1  0.20272858  0.36278254  0.41109675  1
  Li  Li65  1  0.16150830  0.73774877  0.39517124  1
  Li  Li66  1  0.09949644  0.17382457  0.41622881  1
  Li  Li67  1  0.26656250  0.91439436  0.38932999  1
  Li  Li68  1  0.61770741  0.03996376  0.40638257  1
  Li  Li69  1  0.59298510  0.40147998  0.44917063  1
  Li  Li70  1  0.21663831  0.54966924  0.40294276  1
  Li  Li71  1  0.01760398  0.97134178  0.43283426  1
  Li  Li72  1  0.51696587  0.45114885  0.50662920  1
  Li  Li73  1  0.44312830  0.17594596  0.44769969  1
  Li  Li74  1  0.71699048  0.18023161  0.48243157  1
  Li  Li75  1  0.89427606  0.58920783  0.46093896  1
  Li  Li76  1  0.59363401  0.03140341  0.48407351  1
  Li  Li77  1  0.05015355  0.73606677  0.47186732  1
  Li  Li78  1  0.51161695  0.88584074  0.47507419  1
  Li  Li79  1  0.88273343  0.33719805  0.47196729  1
  Li  Li80  1  0.75673668  0.58121709  0.54164272  1
  Li  Li81  1  0.58134609  0.10732136  0.53747878  1
  Li  Li82  1  0.81378719  0.75107453  0.50648477  1
  Li  Li83  1  0.88343031  0.93975586  0.56424074  1
  Li  Li84  1  0.31056616  0.95561616  0.52699328  1
  Li  Li85  1  0.07752291  0.60170013  0.51034119  1
  Li  Li86  1  0.30547322  0.15532347  0.51309699  1
  Li  Li87  1  0.98460353  0.47518132  0.50714993  1
  Li  Li88  1  0.80590931  0.31583570  0.52668739  1
  Li  Li89  1  0.94729835  0.75347678  0.56041407  1
  Li  Li90  1  0.20936530  0.78306539  0.52855821  1
  Li  Li91  1  0.35445136  0.40892616  0.56895640  1
  Li  Li92  1  0.09914789  0.69036191  0.61429529  1
  Li  Li93  1  0.93827708  0.26030545  0.57922844  1
  Li  Li94  1  0.08681524  0.89405431  0.63265270  1
  Li  Li95  1  0.15427687  0.23659215  0.63671285  1
  Li  Li96  1  0.48279711  0.17880584  0.60402126  1
  Li  Li97  1  0.53967922  0.80179334  0.58898064  1
  Li  Li98  1  0.60075796  0.34882808  0.61471294  1
  Li  Li99  1  0.42586069  0.61411478  0.58406970  1
  Li  Li100  1  0.95930142  0.48140757  0.59350102  1
  Li  Li101  1  0.15063172  0.04477102  0.62552231  1
  Li  Li102  1  0.54685965  0.99530298  0.59807358  1
  Li  Li103  1  0.61772757  0.58098415  0.63810405  1
  Li  Li104  1  0.32783379  0.87463456  0.69208978  1
  Li  Li105  1  0.15044983  0.44934605  0.65264581  1
  Li  Li106  1  0.30606514  0.07898672  0.70925239  1
  Li  Li107  1  0.38634847  0.42133300  0.71276834  1
  Li  Li108  1  0.72348966  0.35341623  0.68348094  1
  Li  Li109  1  0.74786443  0.98829258  0.66684304  1
  Li  Li110  1  0.82568648  0.53442383  0.68836786  1
  Li  Li111  1  0.67282631  0.79680427  0.65995502  1
  Li  Li112  1  0.18472232  0.66712031  0.67182450  1
  Li  Li113  1  0.37782498  0.22999974  0.70438589  1
  Li  Li114  1  0.79032219  0.16827996  0.67186666  1
  Li  Li115  1  0.84098445  0.76641012  0.71969865  1
  Li  Li116  1  0.56226491  0.05647004  0.76983104  1
  Li  Li117  1  0.38340228  0.63394496  0.72937942  1
  Li  Li118  1  0.54875484  0.25820805  0.78570335  1
  Li  Li119  1  0.62029634  0.60309155  0.78910645  1
  Li  Li120  1  0.95803747  0.53285422  0.75826651  1
  Li  Li121  1  0.98413146  0.16533724  0.74372308  1
  Li  Li122  1  0.05005862  0.70876309  0.76567635  1
  Li  Li123  1  0.88706463  0.98059664  0.73405849  1
  Li  Li124  1  0.50027476  0.84358102  0.75196258  1
  Li  Li125  1  0.61468616  0.41123994  0.78062755  1
  Li  Li126  1  0.01908395  0.35069248  0.75000070  1
  Li  Li127  1  0.10614529  0.92162000  0.77874756  1
  Li  Li128  1  0.80235544  0.23930509  0.84778966  1
  Li  Li129  1  0.61814181  0.81586505  0.81054425  1
  Li  Li130  1  0.77481106  0.44435671  0.86111396  1
  Li  Li131  1  0.85467349  0.78732153  0.86967003  1
  Li  Li132  1  0.19016980  0.71295845  0.83353810  1
  Li  Li133  1  0.21827986  0.34950119  0.82182791  1
  Li  Li134  1  0.27614031  0.89473560  0.84091951  1
  Li  Li135  1  0.11586507  0.16028248  0.81112513  1
  Li  Li136  1  0.76740185  0.02380285  0.82968934  1
  Li  Li137  1  0.83803477  0.59856067  0.86086599  1
  Li  Li138  1  0.25544502  0.53004893  0.82583745  1
  Li  Li139  1  0.34992206  0.09937494  0.85454307  1
  Li  Li140  1  0.03132276  0.42376514  0.91918812  1
  Li  Li141  1  0.86541168  0.99600287  0.89152326  1
  Li  Li142  1  0.02932712  0.67720318  0.93625036  1
  Li  Li143  1  0.13285105  0.93947056  0.99274188  1
  Li  Li144  1  0.41124469  0.88697661  0.91028796  1
  Li  Li145  1  0.46021979  0.51136352  0.89490099  1
  Li  Li146  1  0.50698994  0.07309210  0.91278580  1
  Li  Li147  1  0.35816446  0.33346734  0.88896179  1
  Li  Li148  1  0.99926083  0.20709540  0.90643982  1
  Li  Li149  1  0.99888375  0.85129244  0.95310716  1
  Li  Li150  1  0.39994340  0.70051951  0.90293550  1
  Li  Li151  1  0.60077091  0.27714355  0.93281754  1
  Li  Li152  1  0.19707166  0.74176464  0.01259341  1
  Li  Li153  1  0.18456929  0.06451799  0.94909626  1
  Li  Li154  1  0.89299976  0.08693100  0.98152628  1
  Li  Li155  1  0.73420393  0.65626576  0.95946732  1
  Li  Li156  1  0.03579227  0.21598808  0.98349628  1
  Li  Li157  1  0.57642711  0.51676787  0.97162987  1
  Li  Li158  1  0.11753557  0.36021770  0.97500729  1
  Li  Li159  1  0.66595501  0.01024080  0.96414508  1
  P  P160  1  0.01686004  0.78415422  0.05932254  1
  P  P161  1  0.48770186  0.92982861  0.06237122  1
  P  P162  1  0.01584041  0.32738185  0.03962641  1
  P  P163  1  0.77184431  0.60126831  0.12715762  1
  P  P164  1  0.23832633  0.75173002  0.14329508  1
  P  P165  1  0.40775765  0.40199057  0.07800181  1
  P  P166  1  0.81634841  0.13873616  0.11127881  1
  P  P167  1  0.54463003  0.41991138  0.20573968  1
  P  P168  1  0.99908793  0.56885736  0.21832100  1
  P  P169  1  0.19513864  0.21650961  0.15542093  1
  P  P170  1  0.58485311  0.95561292  0.19059346  1
  P  P171  1  0.30657446  0.23884578  0.28235098  1
  P  P172  1  0.76237321  0.38680088  0.29482826  1
  P  P173  1  0.95662222  0.03586662  0.23161959  1
  P  P174  1  0.34796985  0.77570030  0.26727235  1
  P  P175  1  0.06169713  0.05936915  0.35881008  1
  P  P176  1  0.51948913  0.20590050  0.37409492  1
  P  P177  1  0.72065855  0.85373363  0.30907413  1
  P  P178  1  0.11604587  0.59328965  0.34376046  1
  P  P179  1  0.82539980  0.87777547  0.43430450  1
  P  P180  1  0.27165287  0.03000748  0.44834216  1
  P  P181  1  0.48130798  0.67277315  0.38465696  1
  P  P182  1  0.89736566  0.40738171  0.42210106  1
  P  P183  1  0.28319458  0.50407194  0.46051473  1
  P  P184  1  0.63561254  0.46248914  0.55838128  1
  P  P185  1  0.16209053  0.31671028  0.56260266  1
  P  P186  1  0.60791086  0.92487110  0.54031776  1
  P  P187  1  0.85815247  0.64945682  0.62726907  1
  P  P188  1  0.39271927  0.49929953  0.64266093  1
  P  P189  1  0.22027742  0.84746215  0.57848610  1
  P  P190  1  0.81229780  0.11187183  0.61176945  1
  P  P191  1  0.08109313  0.82962016  0.70574274  1
  P  P192  1  0.62690330  0.68140896  0.71823331  1
  P  P193  1  0.43280993  0.03340239  0.65599198  1
  P  P194  1  0.04036034  0.29536472  0.69057394  1
  P  P195  1  0.31527278  0.01066562  0.78203353  1
  P  P196  1  0.86012583  0.86216976  0.79477400  1
  P  P197  1  0.66836084  0.21380792  0.73181609  1
  P  P198  1  0.27585556  0.47412431  0.76711951  1
  P  P199  1  0.56052613  0.18930773  0.85849431  1
  P  P200  1  0.10344603  0.04287569  0.87349083  1
  P  P201  1  0.90306006  0.39578973  0.80900962  1
  P  P202  1  0.50586887  0.65579756  0.84371731  1
  P  P203  1  0.79613460  0.37047277  0.93452901  1
  P  P204  1  0.34824815  0.21551587  0.94831487  1
  P  P205  1  0.13970162  0.57559834  0.88452189  1
  P  P206  1  0.71677809  0.84353244  0.92357171  1
  P  P207  1  0.33149773  0.74760607  0.95984682  1
  S  S208  1  0.23911920  0.72474439  0.05854622  1
  S  S209  1  0.26582460  0.98838075  0.06334692  1
  S  S210  1  0.24051219  0.50351495  0.06356625  1
  S  S211  1  0.19295458  0.22155072  0.05053615  1
  S  S212  1  0.87452259  0.29529255  0.01992899  1
  S  S213  1  0.78827337  0.63986118  0.00350466  1
  S  S214  1  0.94029635  0.78173048  0.02285229  1
  S  S215  1  0.54343404  0.81232414  0.04980426  1
  S  S216  1  0.96528649  0.90456094  0.06899714  1
  S  S217  1  0.92104654  0.38716511  0.07354261  1
  S  S218  1  0.50331087  0.32651129  0.04672073  1
  S  S219  1  0.56057179  0.99536706  0.03780460  1
  S  S220  1  0.57649391  0.52225060  0.01792953  1
  S  S221  1  0.07568092  0.40671843  0.01976070  1
  S  S222  1  0.99302637  0.54066553  0.12598615  1
  S  S223  1  0.01810169  0.80596284  0.14706155  1
  S  S224  1  0.02356360  0.31661379  0.14101526  1
  S  S225  1  0.97634887  0.03950092  0.12910601  1
  S  S226  1  0.65720663  0.12115083  0.09287228  1
  S  S227  1  0.57181262  0.42750489  0.09374942  1
  S  S228  1  0.58088956  0.91885545  0.09866462  1
  S  S229  1  0.67320163  0.62142799  0.09124674  1
  S  S230  1  0.28523352  0.63385831  0.13019006  1
  S  S231  1  0.73200993  0.71677372  0.14177956  1
  S  S232  1  0.71775220  0.21741315  0.14233143  1
  S  S233  1  0.28713911  0.14340462  0.12284890  1
  S  S234  1  0.94477408  0.71770259  0.08336281  1
  S  S235  1  0.29904073  0.82427078  0.12010035  1
  S  S236  1  0.33124391  0.35256027  0.10674976  1
  S  S237  1  0.92114464  0.18311266  0.08510336  1
  S  S238  1  0.76536672  0.36092954  0.20250958  1
  S  S239  1  0.77791607  0.62444380  0.22141571  1
  S  S240  1  0.78365634  0.13505515  0.21670204  1
  S  S241  1  0.73990881  0.85278483  0.20732098  1
  S  S242  1  0.42509945  0.93683337  0.17141471  1
  S  S243  1  0.35808087  0.24100247  0.17068586  1
  S  S244  1  0.35194864  0.73355053  0.17753797  1
  S  S245  1  0.43563482  0.44299920  0.17092611  1
  S  S246  1  0.04304547  0.45131072  0.20476202  1
  S  S247  1  0.50364090  0.53546048  0.22025859  1
  S  S248  1  0.48267184  0.03145579  0.22198772  1
  S  S249  1  0.05165133  0.96284601  0.19943980  1
  S  S250  1  0.69886596  0.53375243  0.15012546  1
  S  S251  1  0.06611799  0.63595918  0.19455066  1
  S  S252  1  0.11649244  0.16577161  0.18352564  1
  S  S253  1  0.67927576  0.00214508  0.16394175  1
  S  S254  1  0.52709269  0.18410462  0.27931692  1
  S  S255  1  0.54115937  0.44719262  0.29650149  1
  S  S256  1  0.54706653  0.95384911  0.29489206  1
  S  S257  1  0.50780663  0.67571142  0.28443305  1
  S  S258  1  0.19142944  0.75223261  0.24855124  1
  S  S259  1  0.11539794  0.06264819  0.24757799  1
  S  S260  1  0.10740045  0.54927087  0.25322326  1
  S  S261  1  0.19896680  0.25675291  0.24732142  1
  S  S262  1  0.80320062  0.27130192  0.28065371  1
  S  S263  1  0.25830531  0.35622676  0.29614066  1
  S  S264  1  0.24314082  0.85180389  0.29837603  1
  S  S265  1  0.81392846  0.78154148  0.27648880  1
  S  S266  1  0.47335765  0.35083136  0.22827604  1
  S  S267  1  0.83712942  0.45493341  0.27219528  1
  S  S268  1  0.87800356  0.98437107  0.25954924  1
  S  S269  1  0.43821575  0.82405336  0.24050240  1
  S  S270  1  0.28200836  0.00711084  0.35531855  1
  S  S271  1  0.29884939  0.26869519  0.37401565  1
  S  S272  1  0.32528592  0.77986519  0.36968410  1
  S  S273  1  0.27857286  0.49064309  0.35922662  1
  S  S274  1  0.95510255  0.57221997  0.32587665  1
  S  S275  1  0.88170047  0.88004455  0.32422558  1
  S  S276  1  0.86225156  0.36714776  0.33047835  1
  S  S277  1  0.95200301  0.07525342  0.32409031  1
  S  S278  1  0.56190450  0.09117536  0.35879500  1
  S  S279  1  0.00845242  0.17722333  0.37244837  1
  S  S280  1  0.01735955  0.66851053  0.37539608  1
  S  S281  1  0.58152411  0.59952712  0.35274392  1
  S  S282  1  0.23924119  0.16951590  0.30549476  1
  S  S283  1  0.60093857  0.27285801  0.35285485  1
  S  S284  1  0.64470919  0.80073444  0.33684789  1
  S  S285  1  0.20301678  0.64262743  0.31660603  1
  S  S286  1  0.04645268  0.82536478  0.43335184  1
  S  S287  1  0.05282831  0.08857383  0.44843667  1
  S  S288  1  0.10602275  0.60333428  0.44711847  1
  S  S289  1  0.06118977  0.30246556  0.43681242  1
  S  S290  1  0.72571523  0.38856735  0.40744378  1
  S  S291  1  0.64347314  0.68527205  0.40494637  1
  S  S292  1  0.60642519  0.18764894  0.41102667  1
  S  S293  1  0.72753200  0.88958059  0.39838318  1
  S  S294  1  0.33677755  0.90917291  0.43670752  1
  S  S295  1  0.76462668  0.99491776  0.44783156  1
  S  S296  1  0.82042666  0.47929669  0.45530127  1
  S  S297  1  0.35832754  0.41861271  0.43117713  1
  S  S298  1  0.00145610  0.98717812  0.38219445  1
  S  S299  1  0.35247467  0.09128812  0.42403863  1
  S  S300  1  0.38111499  0.62529491  0.40927931  1
  S  S301  1  0.97060007  0.45873121  0.39393893  1
  S  S302  1  0.50282253  0.17245846  0.49274567  1
  S  S303  1  0.44351319  0.53853272  0.47034349  1
  S  S304  1  0.34939343  0.02544777  0.48586805  1
  S  S305  1  0.75778975  0.80577083  0.45694195  1
  S  S306  1  0.24177761  0.45411538  0.49411904  1
  S  S307  1  0.68988055  0.31112111  0.48648585  1
  S  S308  1  0.41752571  0.51610538  0.55184522  1
  S  S309  1  0.38299341  0.26132818  0.56400694  1
  S  S310  1  0.38690474  0.74444939  0.56450982  1
  S  S311  1  0.42699564  0.02949734  0.55069552  1
  S  S312  1  0.74707279  0.95978694  0.52119152  1
  S  S313  1  0.84028684  0.61538435  0.50436394  1
  S  S314  1  0.73438939  0.46145981  0.52357921  1
  S  S315  1  0.10404036  0.43589042  0.55144024  1
  S  S316  1  0.68560706  0.34361649  0.57002941  1
  S  S317  1  0.70258153  0.86578703  0.57432397  1
  S  S318  1  0.12720733  0.92274221  0.54706813  1
  S  S319  1  0.08536168  0.25231598  0.53795259  1
  S  S320  1  0.04871538  0.73338394  0.51807551  1
  S  S321  1  0.55418140  0.84302549  0.52038675  1
  S  S322  1  0.63702396  0.71013483  0.62633495  1
  S  S323  1  0.61253806  0.44526076  0.64702543  1
  S  S324  1  0.60527072  0.93376313  0.64167338  1
  S  S325  1  0.65398173  0.21202441  0.62948327  1
  S  S326  1  0.97311732  0.12733499  0.59310157  1
  S  S327  1  0.05317291  0.82419995  0.59393078  1
  S  S328  1  0.06763607  0.32757204  0.59891939  1
  S  S329  1  0.95571620  0.63047160  0.59128881  1
  S  S330  1  0.34569238  0.61641699  0.62899318  1
  S  S331  1  0.89834273  0.53383161  0.64180775  1
  S  S332  1  0.91025872  0.03373269  0.64300407  1
  S  S333  1  0.34227611  0.10634561  0.62336190  1
  S  S334  1  0.68828217  0.53450366  0.58342697  1
  S  S335  1  0.33379576  0.42693040  0.61905203  1
  S  S336  1  0.29660540  0.89615177  0.60745862  1
  S  S337  1  0.70763340  0.06742706  0.58577215  1
  S  S338  1  0.86030219  0.88841264  0.70248546  1
  S  S339  1  0.84784698  0.62620079  0.72174399  1
  S  S340  1  0.84061601  0.11432908  0.71686010  1
  S  S341  1  0.88456702  0.39776191  0.70731294  1
  S  S342  1  0.20082859  0.31472242  0.67183158  1
  S  S343  1  0.26934392  0.00880248  0.67094853  1
  S  S344  1  0.27773298  0.51697862  0.67674808  1
  S  S345  1  0.18998358  0.80724909  0.67092783  1
  S  S346  1  0.58277531  0.79902456  0.70477383  1
  S  S347  1  0.12227808  0.71404165  0.72014763  1
  S  S348  1  0.14165037  0.21911566  0.72195682  1
  S  S349  1  0.57403073  0.28726155  0.69967655  1
  S  S350  1  0.93093710  0.71690265  0.65036373  1
  S  S351  1  0.56208382  0.61372750  0.69425966  1
  S  S352  1  0.50963949  0.08461775  0.68422317  1
  S  S353  1  0.94782658  0.24835903  0.66376124  1
  S  S354  1  0.09476733  0.06478405  0.77904153  1
  S  S355  1  0.08124626  0.80180162  0.79631800  1
  S  S356  1  0.07694593  0.29572176  0.79484321  1
  S  S357  1  0.11573417  0.57394115  0.78432835  1
  S  S358  1  0.43286360  0.49776211  0.74865933  1
  S  S359  1  0.50864190  0.18772943  0.74770249  1
  S  S360  1  0.51680438  0.70050727  0.75293243  1
  S  S361  1  0.42329538  0.99285848  0.74708607  1
  S  S362  1  0.81927523  0.97765024  0.78050691  1
  S  S363  1  0.36441699  0.89338777  0.79595660  1
  S  S364  1  0.38012391  0.39777075  0.79820686  1
  S  S365  1  0.80980140  0.46826808  0.77649403  1
  S  S366  1  0.15160891  0.89889767  0.72833632  1
  S  S367  1  0.78497183  0.79422636  0.77215375  1
  S  S368  1  0.74778909  0.26469717  0.75977430  1
  S  S369  1  0.18586679  0.42618874  0.74019742  1
  S  S370  1  0.34022042  0.24163374  0.85524384  1
  S  S371  1  0.32418752  0.98067892  0.87303274  1
  S  S372  1  0.29611593  0.46879928  0.86940615  1
  S  S373  1  0.34251738  0.75813023  0.85917317  1
  S  S374  1  0.66626931  0.67765923  0.82591980  1
  S  S375  1  0.74253162  0.36904518  0.82417968  1
  S  S376  1  0.76091073  0.88178457  0.83046652  1
  S  S377  1  0.66977941  0.17457724  0.82377883  1
  S  S378  1  0.05951434  0.15796184  0.85836864  1
  S  S379  1  0.61490619  0.07070062  0.87140103  1
  S  S380  1  0.60441662  0.58020581  0.87522689  1
  S  S381  1  0.03952472  0.65032138  0.85290464  1
  S  S382  1  0.38141395  0.08133395  0.80482519  1
  S  S383  1  0.02147477  0.97556799  0.85254484  1
  S  S384  1  0.97892378  0.44856768  0.83685617  1
  S  S385  1  0.41961189  0.60639797  0.81641836  1
  S  S386  1  0.57535043  0.42447410  0.93373958  1
  S  S387  1  0.56946783  0.15424501  0.94673941  1
  S  S388  1  0.51190196  0.64941341  0.94662982  1
  S  S389  1  0.54594410  0.94926309  0.93651762  1
  S  S390  1  0.88872652  0.86192363  0.90879889  1
  S  S391  1  0.97720795  0.56217634  0.90444455  1
  S  S392  1  0.01897657  0.05955480  0.91061483  1
  S  S393  1  0.89407154  0.35754714  0.89856999  1
  S  S394  1  0.29181162  0.33514275  0.93617972  1
  S  S395  1  0.85449319  0.25322290  0.94816170  1
  S  S396  1  0.79413207  0.77020538  0.95609221  1
  S  S397  1  0.25192658  0.83450257  0.93143456  1
  S  S398  1  0.62233641  0.26024040  0.88221080  1
  S  S399  1  0.26161305  0.15604420  0.92466226  1
  S  S400  1  0.23939792  0.62220595  0.90952620  1
  S  S401  1  0.64567019  0.79167832  0.89493028  1
  S  S402  1  0.11704882  0.07612244  0.99432023  1
  S  S403  1  0.17214473  0.71209697  0.96936102  1
  S  S404  1  0.27824384  0.21989407  0.98597372  1
  S  S405  1  0.86806784  0.44087655  0.95704547  1
  S  S406  1  0.37251630  0.79552288  0.99423717  1
  S  S407  1  0.88992509  0.96330647  0.98227837  1
