# generated using pymatgen
data_Li20P6S25
_symmetry_space_group_name_H-M   'P 1'
_cell_length_a   10.24241400
_cell_length_b   18.09023381
_cell_length_c   51.28042647
_cell_angle_alpha   90.00000000
_cell_angle_beta   90.00000000
_cell_angle_gamma   64.97678698
_symmetry_Int_Tables_number   1
_chemical_formula_structural   Li20P6S25
_chemical_formula_sum   'Li160 P48 S200'
_cell_volume   8609.77406555
_cell_formula_units_Z   8
loop_
 _symmetry_equiv_pos_site_id
 _symmetry_equiv_pos_as_xyz
  1  'x, y, z'
loop_
 _atom_site_type_symbol
 _atom_site_label
 _atom_site_symmetry_multiplicity
 _atom_site_fract_x
 _atom_site_fract_y
 _atom_site_fract_z
 _atom_site_occupancy
  Li  Li0  1  0.96592586  0.60007968  0.05280680  1
  Li  Li1  1  0.89163777  0.32427438  0.99326894  1
  Li  Li2  1  0.95818017  0.46279238  0.00698287  1
  Li  Li3  1  0.83627212  0.19336068  0.06202167  1
  Li  Li4  1  0.51665828  0.18923642  0.03832998  1
  Li  Li5  1  0.69143870  0.59451824  0.01804595  1
  Li  Li6  1  0.36521545  0.03872234  0.02857938  1
  Li  Li7  1  0.81629795  0.74464858  0.01602101  1
  Li  Li8  1  0.90332953  0.88822446  0.02514321  1
  Li  Li9  1  0.82279753  0.37329337  0.05088077  1
  Li  Li10  1  0.53253462  0.43624391  0.02894858  1
  Li  Li11  1  0.39685263  0.80248897  0.06700891  1
  Li  Li12  1  0.65650237  0.52398380  0.10982806  1
  Li  Li13  1  0.82316570  0.95037318  0.08107025  1
  Li  Li14  1  0.65895617  0.31500178  0.13198569  1
  Li  Li15  1  0.56950036  0.97504473  0.13955249  1
  Li  Li16  1  0.25531020  0.03776612  0.10479902  1
  Li  Li17  1  0.21478225  0.41020404  0.08980157  1
  Li  Li18  1  0.15084690  0.85947906  0.11048838  1
  Li  Li19  1  0.31823476  0.59988752  0.08419748  1
  Li  Li20  1  0.79828540  0.73560447  0.09420795  1
  Li  Li21  1  0.61032085  0.14723856  0.13257990  1
  Li  Li22  1  0.19879017  0.22578872  0.09704041  1
  Li  Li23  1  0.14376497  0.62624718  0.14410364  1
  Li  Li24  1  0.41342092  0.34211439  0.18996973  1
  Li  Li25  1  0.59437611  0.76725231  0.15229434  1
  Li  Li26  1  0.41694226  0.12845091  0.21021004  1
  Li  Li27  1  0.33963510  0.78444454  0.21427911  1
  Li  Li28  1  0.01043919  0.87437102  0.17883871  1
  Li  Li29  1  0.98355144  0.23745980  0.16652779  1
  Li  Li30  1  0.91365025  0.68532384  0.18871135  1
  Li  Li31  1  0.07015230  0.42176794  0.15918465  1
  Li  Li32  1  0.56319719  0.55000307  0.17036044  1
  Li  Li33  1  0.40726484  0.93729356  0.21934876  1
  Li  Li34  1  0.04189602  0.05553086  0.17373250  1
  Li  Li35  1  0.90281640  0.44731380  0.22156754  1
  Li  Li36  1  0.17673709  0.16141771  0.26987077  1
  Li  Li37  1  0.35674989  0.58212257  0.23021734  1
  Li  Li38  1  0.17829359  0.94829909  0.28705134  1
  Li  Li39  1  0.09973751  0.60440771  0.29101762  1
  Li  Li40  1  0.77631743  0.69287826  0.25606214  1
  Li  Li41  1  0.75059969  0.05901229  0.24220671  1
  Li  Li42  1  0.68334895  0.50788522  0.26613741  1
  Li  Li43  1  0.84396794  0.23543936  0.23458270  1
  Li  Li44  1  0.29670778  0.36966121  0.24805976  1
  Li  Li45  1  0.17057316  0.75610776  0.29576257  1
  Li  Li46  1  0.81597992  0.87662611  0.25002351  1
  Li  Li47  1  0.63382596  0.29253809  0.28106878  1
  Li  Li48  1  0.94159111  0.97479066  0.34752122  1
  Li  Li49  1  0.12104817  0.40026014  0.30820550  1
  Li  Li50  1  0.94494798  0.76274522  0.36336191  1
  Li  Li51  1  0.88018439  0.41906204  0.36753229  1
  Li  Li52  1  0.53732930  0.51483079  0.33327305  1
  Li  Li53  1  0.51606533  0.88066444  0.31605442  1
  Li  Li54  1  0.46189072  0.32244427  0.34052629  1
  Li  Li55  1  0.61705142  0.06038544  0.31209998  1
  Li  Li56  1  0.97800079  0.19268886  0.32823440  1
  Li  Li57  1  0.94166582  0.57075490  0.37417404  1
  Li  Li58  1  0.58232689  0.69542074  0.32842122  1
  Li  Li59  1  0.40792187  0.10677517  0.36256862  1
  Li  Li60  1  0.72946841  0.78449459  0.42081292  1
  Li  Li61  1  0.88829467  0.21576373  0.38600615  1
  Li  Li62  1  0.67360171  0.46453670  0.43578143  1
  Li  Li63  1  0.60021533  0.27431306  0.49313977  1
  Li  Li64  1  0.32870379  0.32739856  0.41176690  1
  Li  Li65  1  0.27503108  0.70351056  0.39580958  1
  Li  Li66  1  0.21515913  0.13968212  0.41616014  1
  Li  Li67  1  0.39481987  0.87432599  0.38458641  1
  Li  Li68  1  0.75009655  0.00653741  0.40662603  1
  Li  Li69  1  0.73693347  0.27843804  0.43973131  1
  Li  Li70  1  0.33755280  0.52098552  0.40218129  1
  Li  Li71  1  0.14985814  0.93192448  0.43065719  1
  Li  Li72  1  0.37157726  0.63257523  0.46296657  1
  Li  Li73  1  0.53847690  0.10843599  0.45899732  1
  Li  Li74  1  0.86795256  0.12698935  0.48999442  1
  Li  Li75  1  0.09807987  0.48230849  0.47275461  1
  Li  Li76  1  0.77514692  0.99872682  0.49104414  1
  Li  Li77  1  0.09572774  0.68026243  0.48718743  1
  Li  Li78  1  0.59715714  0.83986274  0.47307695  1
  Li  Li79  1  0.99734788  0.30788243  0.47170053  1
  Li  Li80  1  0.23351220  0.69899924  0.55261584  1
  Li  Li81  1  0.30730284  0.97443995  0.49316409  1
  Li  Li82  1  0.24329203  0.83706068  0.50816791  1
  Li  Li83  1  0.36599170  0.10558830  0.56222843  1
  Li  Li84  1  0.68486343  0.10952042  0.53883857  1
  Li  Li85  1  0.50746257  0.70529477  0.51833658  1
  Li  Li86  1  0.83288486  0.26170870  0.52846901  1
  Li  Li87  1  0.38404144  0.55480515  0.51608788  1
  Li  Li88  1  0.29793904  0.41022509  0.52495348  1
  Li  Li89  1  0.37980569  0.92660878  0.55069907  1
  Li  Li90  1  0.66992984  0.86257524  0.52856119  1
  Li  Li91  1  0.80487733  0.49581074  0.56720476  1
  Li  Li92  1  0.54487796  0.77365307  0.60964752  1
  Li  Li93  1  0.37651188  0.34862913  0.58101502  1
  Li  Li94  1  0.54130006  0.98170217  0.63192603  1
  Li  Li95  1  0.62969763  0.32485499  0.63983883  1
  Li  Li96  1  0.94628115  0.26170497  0.60500738  1
  Li  Li97  1  0.98814943  0.88981134  0.58995320  1
  Li  Li98  1  0.05045371  0.43969361  0.61076094  1
  Li  Li99  1  0.88308119  0.69911252  0.58374778  1
  Li  Li100  1  0.40222756  0.56339319  0.59426344  1
  Li  Li101  1  0.59453587  0.14693358  0.63152977  1
  Li  Li102  1  0.00682610  0.07402315  0.59702592  1
  Li  Li103  1  0.05753272  0.67332824  0.64403600  1
  Li  Li104  1  0.78798034  0.95803083  0.68954279  1
  Li  Li105  1  0.60541148  0.53288009  0.65191158  1
  Li  Li106  1  0.78209533  0.17217525  0.71007351  1
  Li  Li107  1  0.85954010  0.51579132  0.71422045  1
  Li  Li108  1  0.19045057  0.42589795  0.67901960  1
  Li  Li109  1  0.21597503  0.06161459  0.66631701  1
  Li  Li110  1  0.28768038  0.61518821  0.68875193  1
  Li  Li111  1  0.13266541  0.87753987  0.65930602  1
  Li  Li112  1  0.64158003  0.74976923  0.67017433  1
  Li  Li113  1  0.79104715  0.36350172  0.71958227  1
  Li  Li114  1  0.15570870  0.24460723  0.67381141  1
  Li  Li115  1  0.29783560  0.85303090  0.72152568  1
  Li  Li116  1  0.02318080  0.13992790  0.77029928  1
  Li  Li117  1  0.84501800  0.71722245  0.73014359  1
  Li  Li118  1  0.01986029  0.35264853  0.78689970  1
  Li  Li119  1  0.09915115  0.69628803  0.79098468  1
  Li  Li120  1  0.42264278  0.60729316  0.75577525  1
  Li  Li121  1  0.44940924  0.24114812  0.74178885  1
  Li  Li122  1  0.51956656  0.79287290  0.76603855  1
  Li  Li123  1  0.35644231  0.06396138  0.73409626  1
  Li  Li124  1  0.90518773  0.93107954  0.74778279  1
  Li  Li125  1  0.02880642  0.54428172  0.79577480  1
  Li  Li126  1  0.38380604  0.42289743  0.75017238  1
  Li  Li127  1  0.56624235  0.00750061  0.78047926  1
  Li  Li128  1  0.25799607  0.32435018  0.84721611  1
  Li  Li129  1  0.07934233  0.89973722  0.80789818  1
  Li  Li130  1  0.25116595  0.53791563  0.86339177  1
  Li  Li131  1  0.32079154  0.88216453  0.86747139  1
  Li  Li132  1  0.65968387  0.78630825  0.83323869  1
  Li  Li133  1  0.68186127  0.42131119  0.81669647  1
  Li  Li134  1  0.73533272  0.97821025  0.84018875  1
  Li  Li135  1  0.58058977  0.24054984  0.81150341  1
  Li  Li136  1  0.22152554  0.10795192  0.82812460  1
  Li  Li137  1  0.25840304  0.73005174  0.87430000  1
  Li  Li138  1  0.61709574  0.60581196  0.82814623  1
  Li  Li139  1  0.79226214  0.19340542  0.86140045  1
  Li  Li140  1  0.46765181  0.51600161  0.92116196  1
  Li  Li141  1  0.31051478  0.08550880  0.88609196  1
  Li  Li142  1  0.52655622  0.83705226  0.93605257  1
  Li  Li143  1  0.59967201  0.02456664  0.99319984  1
  Li  Li144  1  0.87147810  0.97388092  0.91132584  1
  Li  Li145  1  0.92223351  0.59798158  0.89652515  1
  Li  Li146  1  0.98313159  0.16180231  0.91625447  1
  Li  Li147  1  0.80559098  0.42696083  0.88511642  1
  Li  Li148  1  0.44909556  0.29334314  0.90648139  1
  Li  Li149  1  0.46182648  0.02268092  0.93974351  1
  Li  Li150  1  0.86047904  0.77999704  0.90205384  1
  Li  Li151  1  0.04997610  0.36729143  0.93064654  1
  Li  Li152  1  0.82674937  0.66819302  0.96327023  1
  Li  Li153  1  0.66561274  0.19030172  0.95884925  1
  Li  Li154  1  0.33262241  0.17281668  0.98972627  1
  Li  Li155  1  0.10112301  0.81858761  0.97245635  1
  Li  Li156  1  0.42611620  0.30027813  0.99056301  1
  Li  Li157  1  0.10348957  0.61943786  0.98713663  1
  Li  Li158  1  0.60273946  0.45953402  0.97356886  1
  Li  Li159  1  0.20070771  0.99357576  0.97197959  1
  P  P160  1  0.14387859  0.74320642  0.05143505  1
  P  P161  1  0.58958575  0.89707188  0.06620779  1
  P  P162  1  0.13067895  0.27184002  0.03932850  1
  P  P163  1  0.89532760  0.56954943  0.12650631  1
  P  P164  1  0.35339217  0.71584157  0.14146045  1
  P  P165  1  0.52194920  0.36614550  0.07863592  1
  P  P166  1  0.93483782  0.10263179  0.11481695  1
  P  P167  1  0.65544905  0.38879193  0.20557580  1
  P  P168  1  0.11082931  0.53634384  0.21792728  1
  P  P169  1  0.29860246  0.18334700  0.15595156  1
  P  P170  1  0.69763049  0.92124574  0.19129245  1
  P  P171  1  0.42133573  0.20694843  0.28168348  1
  P  P172  1  0.87413643  0.35598008  0.29439673  1
  P  P173  1  0.06857627  0.00107042  0.23272702  1
  P  P174  1  0.46096560  0.74040121  0.26826557  1
  P  P175  1  0.18391218  0.02490137  0.35724179  1
  P  P176  1  0.64838870  0.17509624  0.37306502  1
  P  P177  1  0.83331747  0.82144404  0.30942714  1
  P  P178  1  0.22413850  0.55928131  0.34429312  1
  P  P179  1  0.95399402  0.84129055  0.43711628  1
  P  P180  1  0.42655504  0.98733041  0.44159519  1
  P  P181  1  0.60485158  0.63639477  0.38817404  1
  P  P182  1  0.00946362  0.37289361  0.42185329  1
  P  P183  1  0.39753511  0.45040969  0.45978059  1
  P  P184  1  0.05694540  0.55536989  0.55152101  1
  P  P185  1  0.61007097  0.40231930  0.56640090  1
  P  P186  1  0.07063643  0.02796134  0.53929867  1
  P  P187  1  0.30495974  0.73000241  0.62643158  1
  P  P188  1  0.84751729  0.58369581  0.64141773  1
  P  P189  1  0.67990735  0.93212171  0.57860077  1
  P  P190  1  0.26672046  0.19596934  0.61481334  1
  P  P191  1  0.54681315  0.91059007  0.70535223  1
  P  P192  1  0.08989218  0.76404721  0.71772773  1
  P  P193  1  0.90118904  0.11639264  0.65579151  1
  P  P194  1  0.50143694  0.37953749  0.69137904  1
  P  P195  1  0.77848442  0.09339256  0.78160008  1
  P  P196  1  0.32554828  0.94476360  0.79429213  1
  P  P197  1  0.13158699  0.29912332  0.73264674  1
  P  P198  1  0.73846613  0.56000849  0.76822579  1
  P  P199  1  0.01450251  0.27597774  0.85737108  1
  P  P200  1  0.55079524  0.12541710  0.87277620  1
  P  P201  1  0.36530743  0.47972158  0.80952026  1
  P  P202  1  0.97386553  0.74165224  0.84424058  1
  P  P203  1  0.24434027  0.45832397  0.93711531  1
  P  P204  1  0.77152545  0.31327141  0.94164900  1
  P  P205  1  0.59375878  0.66424889  0.88834651  1
  P  P206  1  0.19025261  0.92860515  0.92185849  1
  P  P207  1  0.80309235  0.84961547  0.95984618  1
  S  S208  1  0.36292456  0.68460356  0.05116890  1
  S  S209  1  0.36852738  0.94893276  0.06687008  1
  S  S210  1  0.35554806  0.47031463  0.06425488  1
  S  S211  1  0.30839244  0.17264902  0.05264812  1
  S  S212  1  0.97067906  0.23695423  0.02954675  1
  S  S213  1  0.90542657  0.60330972  0.00768160  1
  S  S214  1  0.06397778  0.74833500  0.01406489  1
  S  S215  1  0.65143185  0.77954339  0.05289349  1
  S  S216  1  0.07988039  0.86398050  0.06312378  1
  S  S217  1  0.59869375  0.29455860  0.04554085  1
  S  S218  1  0.65720392  0.96875116  0.04344746  1
  S  S219  1  0.72187441  0.46333188  0.01338563  1
  S  S220  1  0.17091491  0.32178813  0.00565429  1
  S  S221  1  0.11612505  0.50703977  0.12632274  1
  S  S222  1  0.13314356  0.76855298  0.14487464  1
  S  S223  1  0.13332849  0.28535289  0.14079750  1
  S  S224  1  0.08878545  0.99535342  0.12988807  1
  S  S225  1  0.77508103  0.09038314  0.09343945  1
  S  S226  1  0.69141151  0.38718673  0.09303037  1
  S  S227  1  0.68621092  0.88597205  0.10221458  1
  S  S228  1  0.80699373  0.58757111  0.08973089  1
  S  S229  1  0.40650837  0.59756947  0.12819645  1
  S  S230  1  0.85312550  0.68431232  0.14168587  1
  S  S231  1  0.05678566  0.35686165  0.06878785  1
  S  S232  1  0.39733779  0.10889307  0.12403081  1
  S  S233  1  0.06448332  0.68200978  0.07606058  1
  S  S234  1  0.41477657  0.78675528  0.11773642  1
  S  S235  1  0.44933369  0.31468797  0.10714533  1
  S  S236  1  0.03622547  0.15040058  0.09064980  1
  S  S237  1  0.87630925  0.32769137  0.20375750  1
  S  S238  1  0.89038800  0.59084239  0.22096413  1
  S  S239  1  0.90785731  0.10101325  0.21573501  1
  S  S240  1  0.86955272  0.82015454  0.20564017  1
  S  S241  1  0.53542828  0.89643408  0.17575924  1
  S  S242  1  0.45991297  0.20498146  0.17331141  1
  S  S243  1  0.46291550  0.70078142  0.17614353  1
  S  S244  1  0.55533354  0.40864950  0.16995208  1
  S  S245  1  0.15949841  0.41891757  0.20414188  1
  S  S246  1  0.61502122  0.50416081  0.21976068  1
  S  S247  1  0.83198543  0.17568595  0.14664298  1
  S  S248  1  0.17220335  0.92465708  0.20161841  1
  S  S249  1  0.81528527  0.50222509  0.14791785  1
  S  S250  1  0.17823540  0.60564234  0.19481901  1
  S  S251  1  0.21546348  0.13135346  0.18285848  1
  S  S252  1  0.77370051  0.97506823  0.16413078  1
  S  S253  1  0.64246340  0.15178158  0.27878799  1
  S  S254  1  0.65346997  0.41546447  0.29752183  1
  S  S255  1  0.67876754  0.92398962  0.29258175  1
  S  S256  1  0.63404432  0.64163791  0.28338848  1
  S  S257  1  0.30199070  0.71345868  0.25249897  1
  S  S258  1  0.22569725  0.02457536  0.25119337  1
  S  S259  1  0.21829736  0.51886158  0.25293163  1
  S  S260  1  0.31418813  0.22615317  0.24666539  1
  S  S261  1  0.91550001  0.24037089  0.27999172  1
  S  S262  1  0.37588219  0.32462108  0.29533369  1
  S  S263  1  0.60349468  0.99338253  0.22389356  1
  S  S264  1  0.93527707  0.74480523  0.27819986  1
  S  S265  1  0.57973048  0.32099803  0.22816585  1
  S  S266  1  0.94631642  0.42466186  0.27187709  1
  S  S267  1  0.97939633  0.95266435  0.25968625  1
  S  S268  1  0.53963961  0.79104919  0.24015692  1
  S  S269  1  0.40378979  0.97189414  0.35269520  1
  S  S270  1  0.42732168  0.23576036  0.37424520  1
  S  S271  1  0.44641107  0.73684814  0.37056507  1
  S  S272  1  0.39653689  0.45954774  0.35853653  1
  S  S273  1  0.06143046  0.53438456  0.32913216  1
  S  S274  1  0.99363498  0.84040531  0.32835352  1
  S  S275  1  0.98293449  0.33300792  0.32923581  1
  S  S276  1  0.06830460  0.04285059  0.32326500  1
  S  S277  1  0.68881332  0.05934692  0.35857776  1
  S  S278  1  0.13574002  0.14187610  0.37122382  1
  S  S279  1  0.36604230  0.81420961  0.30030024  1
  S  S280  1  0.70252817  0.55842338  0.35696851  1
  S  S281  1  0.35430144  0.13966216  0.30536954  1
  S  S282  1  0.72101645  0.24227812  0.34983847  1
  S  S283  1  0.73908972  0.77525049  0.33620164  1
  S  S284  1  0.30103103  0.61107191  0.31625874  1
  S  S285  1  0.17485766  0.78526804  0.43562537  1
  S  S286  1  0.20857162  0.04040515  0.44818006  1
  S  S287  1  0.21709183  0.55533774  0.44944015  1
  S  S288  1  0.17536445  0.26954941  0.43591560  1
  S  S289  1  0.84283663  0.34979139  0.40619449  1
  S  S290  1  0.76571568  0.65172396  0.40686627  1
  S  S291  1  0.74642951  0.15589150  0.40898957  1
  S  S292  1  0.85733089  0.85265141  0.40102830  1
  S  S293  1  0.47678353  0.86871793  0.42963129  1
  S  S294  1  0.89796740  0.96043125  0.44798955  1
  S  S295  1  0.13282265  0.63199477  0.37689640  1
  S  S296  1  0.49206488  0.39113857  0.42581811  1
  S  S297  1  0.12702293  0.95148866  0.38071527  1
  S  S298  1  0.47856699  0.06016570  0.41678899  1
  S  S299  1  0.49966764  0.59240131  0.41420018  1
  S  S300  1  0.08725898  0.42163933  0.39316985  1
  S  S301  1  0.63095729  0.13869798  0.49567450  1
  S  S302  1  0.53702524  0.48496467  0.47889914  1
  S  S303  1  0.52540092  0.98563731  0.47643585  1
  S  S304  1  0.91608581  0.44760786  0.45334195  1
  S  S305  1  0.87692601  0.77746069  0.46197145  1
  S  S306  1  0.34240046  0.36874910  0.47953393  1
  S  S307  1  0.83488606  0.25936720  0.48222707  1
  S  S308  1  0.83792675  0.61386081  0.55111512  1
  S  S309  1  0.83122495  0.35015794  0.56714920  1
  S  S310  1  0.84727710  0.82880488  0.56410751  1
  S  S311  1  0.89331146  0.12698577  0.55277138  1
  S  S312  1  0.23037251  0.06279840  0.52937114  1
  S  S313  1  0.29374209  0.69661001  0.50770315  1
  S  S314  1  0.13691763  0.55050289  0.51417395  1
  S  S315  1  0.54923378  0.51966461  0.55302576  1
  S  S316  1  0.12068328  0.43468312  0.56322482  1
  S  S317  1  0.60256047  0.00411444  0.54559495  1
  S  S318  1  0.54320925  0.33051311  0.54352686  1
  S  S319  1  0.47959445  0.83594911  0.51328439  1
  S  S320  1  0.02996688  0.97782340  0.50571270  1
  S  S321  1  0.08431283  0.79311438  0.62642819  1
  S  S322  1  0.06769419  0.53104232  0.64495553  1
  S  S323  1  0.06596216  0.01406889  0.64063009  1
  S  S324  1  0.11333988  0.30338245  0.62996545  1
  S  S325  1  0.42617621  0.20830490  0.59331580  1
  S  S326  1  0.51096940  0.91022508  0.59283966  1
  S  S327  1  0.51238981  0.41352174  0.60230157  1
  S  S328  1  0.39232694  0.71177180  0.58957241  1
  S  S329  1  0.79484839  0.70156696  0.62782812  1
  S  S330  1  0.34679019  0.61536503  0.64163965  1
  S  S331  1  0.14563904  0.94239127  0.56861069  1
  S  S332  1  0.80292942  0.19103531  0.62395080  1
  S  S333  1  0.13632464  0.61664186  0.57608377  1
  S  S334  1  0.78680137  0.51210467  0.61782643  1
  S  S335  1  0.75132986  0.98365404  0.60730298  1
  S  S336  1  0.16431071  0.14933217  0.59044035  1
  S  S337  1  0.32585162  0.97112250  0.70327881  1
  S  S338  1  0.31031441  0.71000880  0.72077731  1
  S  S339  1  0.29184653  0.19905718  0.71559549  1
  S  S340  1  0.32997054  0.48059567  0.70584767  1
  S  S341  1  0.66336627  0.40449888  0.67581397  1
  S  S342  1  0.73940568  0.09509692  0.67311850  1
  S  S343  1  0.73693895  0.59954797  0.67600509  1
  S  S344  1  0.64812530  0.89005930  0.66981612  1
  S  S345  1  0.04102546  0.88146699  0.70390882  1
  S  S346  1  0.58710844  0.79560131  0.71975340  1
  S  S347  1  0.36940021  0.12215474  0.64642665  1
  S  S348  1  0.02811258  0.37572500  0.70159185  1
  S  S349  1  0.38676301  0.79658008  0.64777159  1
  S  S350  1  0.02299405  0.69434519  0.69471995  1
  S  S351  1  0.98512815  0.16763082  0.68282839  1
  S  S352  1  0.42575961  0.32524556  0.66437652  1
  S  S353  1  0.55744000  0.14828758  0.77843868  1
  S  S354  1  0.54623889  0.88568586  0.79757297  1
  S  S355  1  0.52123217  0.37751570  0.79272074  1
  S  S356  1  0.56511515  0.65905689  0.78307386  1
  S  S357  1  0.89829687  0.58624661  0.75245077  1
  S  S358  1  0.97412007  0.27596163  0.75109313  1
  S  S359  1  0.98232372  0.78168295  0.75272681  1
  S  S360  1  0.88686086  0.07483836  0.74673293  1
  S  S361  1  0.28458701  0.06006433  0.77968231  1
  S  S362  1  0.82399322  0.97561863  0.79509894  1
  S  S363  1  0.59644488  0.30711735  0.72394093  1
  S  S364  1  0.26348603  0.55599387  0.77823761  1
  S  S365  1  0.62072510  0.97955892  0.72775186  1
  S  S366  1  0.25486083  0.87526265  0.77180203  1
  S  S367  1  0.22112122  0.34698819  0.75971498  1
  S  S368  1  0.66004712  0.50911664  0.74012171  1
  S  S369  1  0.79462294  0.32951172  0.85310202  1
  S  S370  1  0.77190809  0.06485961  0.87374958  1
  S  S371  1  0.75249566  0.56410771  0.87070080  1
  S  S372  1  0.80132091  0.84148806  0.85845701  1
  S  S373  1  0.13700612  0.76640430  0.82919602  1
  S  S374  1  0.20552448  0.45971826  0.82827407  1
  S  S375  1  0.21624330  0.96782772  0.82905731  1
  S  S376  1  0.12880564  0.25796060  0.82319606  1
  S  S377  1  0.51022687  0.24098339  0.85817921  1
  S  S378  1  0.06289156  0.15886343  0.87120445  1
  S  S379  1  0.83266553  0.48666081  0.80036935  1
  S  S380  1  0.49592866  0.74198686  0.85704391  1
  S  S381  1  0.84434395  0.16104154  0.80544223  1
  S  S382  1  0.47733536  0.05810637  0.84978213  1
  S  S383  1  0.45776277  0.52679330  0.83636564  1
  S  S384  1  0.89720199  0.69005155  0.81608867  1
  S  S385  1  0.02339869  0.51406562  0.93591138  1
  S  S386  1  0.98956989  0.26013943  0.94831239  1
  S  S387  1  0.98291380  0.74456877  0.94942280  1
  S  S388  1  0.02344582  0.03155637  0.93590623  1
  S  S389  1  0.35662965  0.95195457  0.90621750  1
  S  S390  1  0.43311006  0.64875933  0.90704884  1
  S  S391  1  0.45370186  0.14478519  0.90878750  1
  S  S392  1  0.34028673  0.44778255  0.90102020  1
  S  S393  1  0.72088695  0.43212795  0.92995139  1
  S  S394  1  0.30093022  0.33897756  0.94780618  1
  S  S395  1  0.06480852  0.66891246  0.87687157  1
  S  S396  1  0.70801748  0.90942726  0.92595922  1
  S  S397  1  0.07315270  0.34879777  0.88078062  1
  S  S398  1  0.72031266  0.24060587  0.91670809  1
  S  S399  1  0.69816523  0.70881090  0.91435126  1
  S  S400  1  0.11323683  0.87963145  0.89308055  1
  S  S401  1  0.57033777  0.16011136  0.99517844  1
  S  S402  1  0.66308677  0.81532319  0.97896235  1
  S  S403  1  0.67328295  0.31411948  0.97652179  1
  S  S404  1  0.28346521  0.85376531  0.95332390  1
  S  S405  1  0.32157159  0.52171401  0.96208932  1
  S  S406  1  0.85836382  0.93093870  0.97975360  1
  S  S407  1  0.36452280  0.04068967  0.98234038  1
