# generated using pymatgen
data_Li3PS4
_symmetry_space_group_name_H-M   'P 1'
_cell_length_a   13.05789500
_cell_length_b   14.91536200
_cell_length_c   50.72081423
_cell_angle_alpha   90.00000000
_cell_angle_beta   90.00000000
_cell_angle_gamma   90.00000000
_symmetry_Int_Tables_number   1
_chemical_formula_structural   Li3PS4
_chemical_formula_sum   'Li168 P56 S224'
_cell_volume   9878.54965340
_cell_formula_units_Z   56
loop_
 _symmetry_equiv_pos_site_id
 _symmetry_equiv_pos_as_xyz
  1  'x, y, z'
loop_
 _atom_site_type_symbol
 _atom_site_label
 _atom_site_symmetry_multiplicity
 _atom_site_fract_x
 _atom_site_fract_y
 _atom_site_fract_z
 _atom_site_occupancy
  Li  Li0  1  0.11260644  0.32279380  0.11596658  1
  Li  Li1  1  0.13470482  0.67872448  0.04160502  1
  Li  Li2  1  0.79144407  0.57630188  0.04786882  1
  Li  Li3  1  0.80738232  0.18129042  0.13485587  1
  Li  Li4  1  0.27988880  0.46039890  0.07269540  1
  Li  Li5  1  0.62809440  0.44867336  0.09399020  1
  Li  Li6  1  0.60865070  0.71170916  0.03364933  1
  Li  Li7  1  0.63549498  0.91606855  0.07983327  1
  Li  Li8  1  0.29663282  0.37497793  0.00313545  1
  Li  Li9  1  0.28817326  0.00421649  0.07983398  1
  Li  Li10  1  0.79575380  0.74347196  0.12593798  1
  Li  Li11  1  0.72457873  0.23194465  0.08345022  1
  Li  Li12  1  0.12283797  0.79949582  0.10200115  1
  Li  Li13  1  0.95312928  0.48206594  0.08304717  1
  Li  Li14  1  0.95167242  0.75797932  0.00590122  1
  Li  Li15  1  0.43420798  0.60836464  0.06229575  1
  Li  Li16  1  0.47231862  0.29700611  0.10897885  1
  Li  Li17  1  0.46881293  0.81351978  0.11908351  1
  Li  Li18  1  0.49367760  0.18542622  0.05487468  1
  Li  Li19  1  0.99639927  0.30783154  0.03130515  1
  Li  Li20  1  0.96043390  0.95304153  0.08186764  1
  Li  Li21  1  0.12101062  0.63084427  0.24650813  1
  Li  Li22  1  0.13593188  0.97865611  0.17837662  1
  Li  Li23  1  0.78475109  0.88883334  0.18217412  1
  Li  Li24  1  0.79971347  0.53322973  0.25397666  1
  Li  Li25  1  0.28591461  0.78398017  0.20528499  1
  Li  Li26  1  0.29573240  0.14838362  0.13649595  1
  Li  Li27  1  0.63379917  0.73233564  0.22886796  1
  Li  Li28  1  0.61830887  0.07454873  0.16061608  1
  Li  Li29  1  0.61657422  0.56194019  0.15424243  1
  Li  Li30  1  0.62754361  0.20613709  0.22145269  1
  Li  Li31  1  0.29475486  0.65854455  0.14626217  1
  Li  Li32  1  0.29125493  0.30018537  0.21637546  1
  Li  Li33  1  0.79992568  0.05339029  0.26114200  1
  Li  Li34  1  0.78461330  0.41527187  0.19468394  1
  Li  Li35  1  0.13109085  0.45825282  0.17149342  1
  Li  Li36  1  0.11826479  0.11306085  0.23814513  1
  Li  Li37  1  0.94887509  0.79179295  0.21867125  1
  Li  Li38  1  0.97510075  0.05960493  0.14371167  1
  Li  Li39  1  0.44792999  0.92738795  0.19125993  1
  Li  Li40  1  0.46498393  0.58839765  0.24304691  1
  Li  Li41  1  0.45170032  0.05722026  0.24906389  1
  Li  Li42  1  0.45122607  0.40447785  0.18227327  1
  Li  Li43  1  0.96513422  0.60000899  0.15857283  1
  Li  Li44  1  0.95053931  0.26636832  0.20491315  1
  Li  Li45  1  0.10961880  0.98792780  0.36281806  1
  Li  Li46  1  0.13363255  0.27699934  0.31703941  1
  Li  Li47  1  0.77719019  0.18712429  0.32124404  1
  Li  Li48  1  0.79583074  0.84009705  0.38611042  1
  Li  Li49  1  0.30126922  0.08781501  0.33945409  1
  Li  Li50  1  0.29051902  0.43817628  0.27186029  1
  Li  Li51  1  0.61286917  0.01783887  0.36444680  1
  Li  Li52  1  0.62866266  0.38727668  0.29483692  1
  Li  Li53  1  0.62645967  0.86358560  0.28485811  1
  Li  Li54  1  0.62658730  0.51131798  0.35066801  1
  Li  Li55  1  0.28311981  0.95605821  0.28035198  1
  Li  Li56  1  0.29990877  0.60160874  0.34718091  1
  Li  Li57  1  0.79524962  0.36602256  0.39793612  1
  Li  Li58  1  0.78598748  0.71069959  0.32845154  1
  Li  Li59  1  0.13112419  0.74753903  0.30638571  1
  Li  Li60  1  0.12253588  0.41332485  0.37403206  1
  Li  Li61  1  0.93733676  0.10177764  0.35421273  1
  Li  Li62  1  0.96955855  0.37281497  0.28159903  1
  Li  Li63  1  0.46898351  0.24009597  0.30800778  1
  Li  Li64  1  0.44383742  0.86587351  0.39332060  1
  Li  Li65  1  0.46796856  0.39869607  0.38436401  1
  Li  Li66  1  0.46520544  0.76176700  0.31934061  1
  Li  Li67  1  0.96656748  0.90015789  0.29461708  1
  Li  Li68  1  0.95140126  0.56259905  0.34176860  1
  Li  Li69  1  0.12752792  0.59127770  0.44532997  1
  Li  Li70  1  0.76568503  0.46369749  0.45711107  1
  Li  Li71  1  0.29704417  0.46612957  0.45805988  1
  Li  Li72  1  0.27838525  0.72716038  0.40307598  1
  Li  Li73  1  0.67912512  0.74268744  0.43819863  1
  Li  Li74  1  0.60901259  0.16356771  0.41962109  1
  Li  Li75  1  0.48432094  0.71931170  0.50818628  1
  Li  Li76  1  0.28737031  0.24147189  0.42077766  1
  Li  Li77  1  0.16840281  0.93839988  0.41538360  1
  Li  Li78  1  0.00330786  0.53598465  0.48911099  1
  Li  Li79  1  0.95009278  0.66497320  0.41586060  1
  Li  Li80  1  0.50651007  0.56560723  0.43963534  1
  Li  Li81  1  0.40894109  0.98648359  0.44767086  1
  Li  Li82  1  0.95662401  0.21178323  0.41581537  1
  Li  Li83  1  0.80646235  0.02959110  0.46431488  1
  Li  Li84  1  0.76304178  0.22609621  0.61591127  1
  Li  Li85  1  0.73957937  0.87104214  0.54222090  1
  Li  Li86  1  0.08483889  0.97342617  0.54777722  1
  Li  Li87  1  0.06651181  0.36913119  0.63542600  1
  Li  Li88  1  0.59534846  0.09127119  0.57265099  1
  Li  Li89  1  0.24873973  0.10106986  0.59389039  1
  Li  Li90  1  0.26656251  0.83847674  0.53389977  1
  Li  Li91  1  0.23824749  0.63525426  0.57989530  1
  Li  Li92  1  0.57862646  0.17696949  0.50327040  1
  Li  Li93  1  0.58567619  0.54764529  0.58001178  1
  Li  Li94  1  0.07886887  0.80718006  0.62626800  1
  Li  Li95  1  0.15002577  0.31912534  0.58388068  1
  Li  Li96  1  0.75153348  0.75004748  0.60230821  1
  Li  Li97  1  0.92330577  0.06620222  0.58332431  1
  Li  Li98  1  0.92368849  0.79334667  0.50585181  1
  Li  Li99  1  0.44269003  0.94368964  0.56176942  1
  Li  Li100  1  0.40290210  0.25351340  0.60862425  1
  Li  Li101  1  0.40425152  0.73701993  0.61916055  1
  Li  Li102  1  0.38136777  0.36610133  0.55486066  1
  Li  Li103  1  0.87979288  0.24185388  0.53106335  1
  Li  Li104  1  0.91494431  0.59640658  0.58316019  1
  Li  Li105  1  0.75408923  0.91893687  0.74648738  1
  Li  Li106  1  0.73816037  0.57137803  0.67852740  1
  Li  Li107  1  0.09068629  0.66204373  0.68221349  1
  Li  Li108  1  0.07489140  0.01690350  0.75363242  1
  Li  Li109  1  0.58822891  0.76772336  0.70500926  1
  Li  Li110  1  0.57931146  0.40130246  0.63663446  1
  Li  Li111  1  0.24376522  0.81827398  0.72919539  1
  Li  Li112  1  0.25735028  0.47413353  0.66067247  1
  Li  Li113  1  0.25961471  0.98818548  0.65453353  1
  Li  Li114  1  0.24778350  0.34432834  0.72211685  1
  Li  Li115  1  0.57894843  0.89116788  0.64588710  1
  Li  Li116  1  0.58377325  0.24986392  0.71662236  1
  Li  Li117  1  0.07471408  0.49696694  0.76119318  1
  Li  Li118  1  0.09000318  0.13668281  0.69503039  1
  Li  Li119  1  0.74382467  0.09223659  0.67141925  1
  Li  Li120  1  0.75674794  0.43774025  0.73821194  1
  Li  Li121  1  0.92594263  0.75713385  0.71876868  1
  Li  Li122  1  0.89927263  0.48889663  0.64401468  1
  Li  Li123  1  0.42583572  0.62362636  0.69104724  1
  Li  Li124  1  0.41248692  0.96421805  0.74782278  1
  Li  Li125  1  0.42250731  0.49196728  0.74904313  1
  Li  Li126  1  0.42304349  0.14481031  0.68244944  1
  Li  Li127  1  0.91080979  0.95008645  0.65902293  1
  Li  Li128  1  0.92299599  0.28529209  0.70498122  1
  Li  Li129  1  0.76677076  0.56243195  0.86280892  1
  Li  Li130  1  0.74030249  0.27318076  0.81733665  1
  Li  Li131  1  0.09615823  0.36208860  0.82110017  1
  Li  Li132  1  0.07905824  0.71039584  0.88621041  1
  Li  Li133  1  0.57414241  0.46232183  0.83964037  1
  Li  Li134  1  0.58409008  0.11205271  0.77196784  1
  Li  Li135  1  0.26248949  0.53047192  0.86456902  1
  Li  Li136  1  0.24485654  0.16316524  0.79542862  1
  Li  Li137  1  0.24655190  0.68574786  0.78544595  1
  Li  Li138  1  0.24959789  0.03814562  0.85039427  1
  Li  Li139  1  0.58990465  0.59308050  0.78035578  1
  Li  Li140  1  0.57505948  0.94688296  0.84711841  1
  Li  Li141  1  0.08019977  0.18209843  0.89802458  1
  Li  Li142  1  0.08761504  0.83989180  0.82898099  1
  Li  Li143  1  0.74397418  0.80079115  0.80647485  1
  Li  Li144  1  0.75156619  0.13675209  0.87444050  1
  Li  Li145  1  0.93774523  0.44708741  0.85421677  1
  Li  Li146  1  0.90377698  0.17713106  0.78135649  1
  Li  Li147  1  0.40588491  0.31105295  0.80814990  1
  Li  Li148  1  0.43119922  0.68438544  0.89407514  1
  Li  Li149  1  0.40847549  0.15108414  0.88455927  1
  Li  Li150  1  0.40983501  0.78646660  0.81944382  1
  Li  Li151  1  0.90790778  0.65016628  0.79463984  1
  Li  Li152  1  0.92346582  0.98737080  0.84192113  1
  Li  Li153  1  0.74716311  0.95988489  0.94544808  1
  Li  Li154  1  0.10999010  0.08669247  0.95741538  1
  Li  Li155  1  0.57753082  0.08328789  0.95818745  1
  Li  Li156  1  0.59686240  0.82227921  0.90311433  1
  Li  Li157  1  0.19643985  0.80721446  0.93794681  1
  Li  Li158  1  0.26621163  0.38622642  0.91977142  1
  Li  Li159  1  0.39142329  0.83065667  0.00827040  1
  Li  Li160  1  0.58815020  0.30921246  0.92150682  1
  Li  Li161  1  0.70845171  0.60981142  0.91533975  1
  Li  Li162  1  0.87251944  0.01393063  0.98920153  1
  Li  Li163  1  0.92467518  0.88551396  0.91643842  1
  Li  Li164  1  0.36838511  0.98302224  0.93949626  1
  Li  Li165  1  0.46749656  0.56346772  0.94813088  1
  Li  Li166  1  0.91884693  0.33698402  0.91495518  1
  Li  Li167  1  0.06847493  0.51816248  0.96427420  1
  P  P168  1  0.04531451  0.49485761  0.02613705  1
  P  P169  1  0.04944628  0.14791013  0.09141333  1
  P  P170  1  0.86951468  0.75478708  0.06928471  1
  P  P171  1  0.36483303  0.47381895  0.12809684  1
  P  P172  1  0.37798498  0.82626767  0.06292599  1
  P  P173  1  0.54422745  0.43412508  0.03614660  1
  P  P174  1  0.55586638  0.09145877  0.10320672  1
  P  P175  1  0.04642202  0.80194770  0.15985012  1
  P  P176  1  0.04696189  0.45043109  0.22641373  1
  P  P177  1  0.86421454  0.41278683  0.13899600  1
  P  P178  1  0.87235100  0.06319543  0.20384773  1
  P  P179  1  0.36992219  0.77960087  0.26045640  1
  P  P180  1  0.37030648  0.12822065  0.19376458  1
  P  P181  1  0.54745205  0.74043655  0.17456773  1
  P  P182  1  0.54954231  0.38745822  0.23997163  1
  P  P183  1  0.04440039  0.10353603  0.29557789  1
  P  P184  1  0.04568082  0.75187261  0.36206102  1
  P  P185  1  0.87188695  0.71431977  0.27366712  1
  P  P186  1  0.87003128  0.36155605  0.33981802  1
  P  P187  1  0.35277220  0.06765715  0.39614695  1
  P  P188  1  0.36966576  0.42620890  0.32665548  1
  P  P189  1  0.54560947  0.03555037  0.30650941  1
  P  P190  1  0.55035048  0.68535029  0.37362208  1
  P  P191  1  0.04388297  0.40558316  0.43077253  1
  P  P192  1  0.85970948  0.01559458  0.40608972  1
  P  P193  1  0.84056106  0.64334767  0.47060244  1
  P  P194  1  0.36346748  0.72885365  0.45954091  1
  P  P195  1  0.53217861  0.33908613  0.44211888  1
  P  P196  1  0.82972696  0.05468871  0.52623706  1
  P  P197  1  0.82544969  0.40183787  0.59175641  1
  P  P198  1  0.00497559  0.79521961  0.56952564  1
  P  P199  1  0.51039832  0.07663768  0.62813459  1
  P  P200  1  0.49618378  0.72434004  0.56306639  1
  P  P201  1  0.33105371  0.11725916  0.53599428  1
  P  P202  1  0.31894973  0.45903610  0.60326155  1
  P  P203  1  0.82861424  0.74798267  0.66001309  1
  P  P204  1  0.82692312  0.09994578  0.72646408  1
  P  P205  1  0.01153272  0.13686385  0.63931222  1
  P  P206  1  0.00308823  0.48738559  0.70395850  1
  P  P207  1  0.50504417  0.77006292  0.76067268  1
  P  P208  1  0.50434535  0.42169702  0.69391947  1
  P  P209  1  0.32713042  0.81044924  0.67477295  1
  P  P210  1  0.32551171  0.16245448  0.74048887  1
  P  P211  1  0.82959203  0.44673160  0.79561157  1
  P  P212  1  0.82947915  0.79802295  0.86227383  1
  P  P213  1  0.00316823  0.83556571  0.77388495  1
  P  P214  1  0.00413225  0.18755318  0.83988213  1
  P  P215  1  0.52352965  0.48238091  0.89647966  1
  P  P216  1  0.50459696  0.12336029  0.82669178  1
  P  P217  1  0.32872970  0.51376342  0.80665592  1
  P  P218  1  0.32467273  0.86418271  0.87364633  1
  P  P219  1  0.83137274  0.14443085  0.93106669  1
  P  P220  1  0.01583259  0.53419150  0.90590294  1
  P  P221  1  0.03529603  0.90677055  0.97059136  1
  P  P222  1  0.51183400  0.82116447  0.95954902  1
  P  P223  1  0.34362096  0.21036592  0.94216027  1
  S  S224  1  0.11125019  0.39399646  0.00383511  1
  S  S225  1  0.10970189  0.04415006  0.07068276  1
  S  S226  1  0.80729775  0.85846163  0.09111220  1
  S  S227  1  0.30302536  0.84800808  0.09818298  1
  S  S228  1  0.60504392  0.40639215  0.00202458  1
  S  S229  1  0.63017909  0.08312417  0.06762257  1
  S  S230  1  0.60637529  0.54752170  0.05576751  1
  S  S231  1  0.61993542  0.19523929  0.12513928  1
  S  S232  1  0.29937750  0.36292698  0.11072208  1
  S  S233  1  0.32161784  0.72068824  0.04092061  1
  S  S234  1  0.80217843  0.38876845  0.10261320  1
  S  S235  1  0.79744732  0.73628350  0.03349935  1
  S  S236  1  0.11703240  0.52602345  0.06125462  1
  S  S237  1  0.11028651  0.16433260  0.12903252  1
  S  S238  1  0.01488987  0.45232027  0.13231792  1
  S  S239  1  0.01759460  0.79637936  0.06079306  1
  S  S240  1  0.90060721  0.44841404  0.03510014  1
  S  S241  1  0.89569693  0.11207070  0.09722504  1
  S  S242  1  0.38862042  0.46558499  0.03432832  1
  S  S243  1  0.40608317  0.13346044  0.09568785  1
  S  S244  1  0.52603051  0.78452841  0.07253964  1
  S  S245  1  0.06902789  0.26817759  0.07293882  1
  S  S246  1  0.04854121  0.60817679  0.00335176  1
  S  S247  1  0.85590686  0.64012122  0.09132892  1
  S  S248  1  0.34169870  0.58349078  0.10477049  1
  S  S249  1  0.37586052  0.94140238  0.04183371  1
  S  S250  1  0.56643954  0.32988459  0.06449052  1
  S  S251  1  0.56955378  0.97550963  0.12395387  1
  S  S252  1  0.10953363  0.69467338  0.14055237  1
  S  S253  1  0.11440635  0.34579813  0.20622042  1
  S  S254  1  0.79912625  0.52061706  0.15840597  1
  S  S255  1  0.81230231  0.16753454  0.22502227  1
  S  S256  1  0.30841248  0.50276149  0.16484246  1
  S  S257  1  0.30341296  0.14294931  0.23028282  1
  S  S258  1  0.61066240  0.71799067  0.13824551  1
  S  S259  1  0.61297876  0.35893591  0.20381854  1
  S  S260  1  0.61202896  0.84603598  0.19489853  1
  S  S261  1  0.61424975  0.49546725  0.25886626  1
  S  S262  1  0.30378128  0.67498376  0.24024834  1
  S  S263  1  0.31232180  0.02643701  0.17096796  1
  S  S264  1  0.81154519  0.68979355  0.23700778  1
  S  S265  1  0.80566716  0.04461338  0.16677515  1
  S  S266  1  0.11010296  0.82899411  0.19623897  1
  S  S267  1  0.10883534  0.47404254  0.26295215  1
  S  S268  1  0.02190608  0.75501279  0.26662420  1
  S  S269  1  0.02231453  0.09895389  0.19594794  1
  S  S270  1  0.89588993  0.76491343  0.16766129  1
  S  S271  1  0.89737909  0.40897875  0.23378979  1
  S  S272  1  0.39770146  0.78134220  0.16657624  1
  S  S273  1  0.39928827  0.42611102  0.23192613  1
  S  S274  1  0.51790403  0.43898645  0.13428369  1
  S  S275  1  0.52017060  0.08702694  0.20198534  1
  S  S276  1  0.06040889  0.56492844  0.20444354  1
  S  S277  1  0.06595183  0.91296345  0.13634551  1
  S  S278  1  0.85113151  0.94819220  0.22505524  1
  S  S279  1  0.84886014  0.30304710  0.16318113  1
  S  S280  1  0.35349517  0.89491322  0.23818656  1
  S  S281  1  0.35762199  0.24498687  0.17309789  1
  S  S282  1  0.56052833  0.62635315  0.19672946  1
  S  S283  1  0.56495596  0.27483861  0.26279896  1
  S  S284  1  0.10272831  0.99853921  0.27433055  1
  S  S285  1  0.11485096  0.64455239  0.34340316  1
  S  S286  1  0.80431263  0.82016658  0.29321279  1
  S  S287  1  0.80689130  0.46832605  0.35931061  1
  S  S288  1  0.30414345  0.80410491  0.29654057  1
  S  S289  1  0.30448031  0.44608159  0.36299851  1
  S  S290  1  0.61556451  0.01911289  0.27030894  1
  S  S291  1  0.61036759  0.66778810  0.33641611  1
  S  S292  1  0.60173610  0.13843662  0.32908448  1
  S  S293  1  0.61491220  0.79181291  0.39361210  1
  S  S294  1  0.29110384  0.96385564  0.37386278  1
  S  S295  1  0.30609694  0.32143469  0.30558674  1
  S  S296  1  0.79920630  0.99449707  0.36906478  1
  S  S297  1  0.80549205  0.33618089  0.30348464  1
  S  S298  1  0.11191581  0.12158340  0.33248539  1
  S  S299  1  0.10144714  0.77574531  0.39912678  1
  S  S300  1  0.01272756  0.05396990  0.40024989  1
  S  S301  1  0.02089239  0.39839444  0.33229336  1
  S  S302  1  0.89406746  0.06817613  0.30354553  1
  S  S303  1  0.89469905  0.71230026  0.36795920  1
  S  S304  1  0.39600977  0.07497553  0.29764799  1
  S  S305  1  0.39951357  0.72687417  0.36609627  1
  S  S306  1  0.51932584  0.74046651  0.26805338  1
  S  S307  1  0.51995157  0.38504701  0.33447909  1
  S  S308  1  0.06341886  0.86039780  0.33744078  1
  S  S309  1  0.06610145  0.21820053  0.27433128  1
  S  S310  1  0.85043929  0.25043456  0.36333265  1
  S  S311  1  0.85665133  0.60082445  0.29594978  1
  S  S312  1  0.34940695  0.18422413  0.37607250  1
  S  S313  1  0.35875118  0.54048531  0.30500175  1
  S  S314  1  0.55850460  0.91935886  0.32756963  1
  S  S315  1  0.56511372  0.56668477  0.39304142  1
  S  S316  1  0.11508282  0.30364283  0.41047572  1
  S  S317  1  0.79660781  0.12474113  0.42521372  1
  S  S318  1  0.76106986  0.75167873  0.48309720  1
  S  S319  1  0.27303639  0.07723139  0.43090484  1
  S  S320  1  0.29648985  0.73101837  0.49530398  1
  S  S321  1  0.61548129  0.32407076  0.40741007  1
  S  S322  1  0.58143265  0.43860821  0.46631337  1
  S  S323  1  0.31098841  0.61840005  0.43774827  1
  S  S324  1  0.78749075  0.60871069  0.43360075  1
  S  S325  1  0.11714602  0.43502327  0.46634072  1
  S  S326  1  0.99525225  0.68253499  0.46831636  1
  S  S327  1  0.89906621  0.35778222  0.43845852  1
  S  S328  1  0.38745051  0.37501246  0.42842716  1
  S  S329  1  0.50216552  0.02521048  0.40551569  1
  S  S330  1  0.51848380  0.71202259  0.46332854  1
  S  S331  1  0.05315658  0.51750770  0.40701374  1
  S  S332  1  0.82836844  0.53802727  0.49616969  1
  S  S333  1  0.84391064  0.90577556  0.42924695  1
  S  S334  1  0.33126053  0.84090504  0.43634498  1
  S  S335  1  0.52454354  0.21529985  0.45934783  1
  S  S336  1  0.76413063  0.15542320  0.50382425  1
  S  S337  1  0.76493284  0.50668148  0.57154775  1
  S  S338  1  0.06736731  0.69201832  0.59152134  1
  S  S339  1  0.57095614  0.70338989  0.59838644  1
  S  S340  1  0.27008217  0.14520066  0.50193211  1
  S  S341  1  0.24469469  0.46760236  0.56769414  1
  S  S342  1  0.26948867  0.00337133  0.55554596  1
  S  S343  1  0.25498206  0.35499605  0.62513193  1
  S  S344  1  0.57586783  0.18771148  0.61084503  1
  S  S345  1  0.55286974  0.82941275  0.54086347  1
  S  S346  1  0.07433253  0.16060910  0.60301595  1
  S  S347  1  0.07745817  0.81328216  0.53375063  1
  S  S348  1  0.75809159  0.02452983  0.56142966  1
  S  S349  1  0.76506496  0.38397593  0.62936501  1
  S  S350  1  0.86102970  0.09694252  0.63247011  1
  S  S351  1  0.85703145  0.75340095  0.56118380  1
  S  S352  1  0.97471600  0.10081796  0.53508741  1
  S  S353  1  0.97927384  0.43754740  0.59763835  1
  S  S354  1  0.48682093  0.08575175  0.53418118  1
  S  S355  1  0.46880749  0.41716263  0.59572099  1
  S  S356  1  0.34819181  0.76603182  0.57263535  1
  S  S357  1  0.80645829  0.28222604  0.57287508  1
  S  S358  1  0.82538451  0.94085272  0.50364063  1
  S  S359  1  0.01965259  0.91020761  0.59138471  1
  S  S360  1  0.53307674  0.96747570  0.60457956  1
  S  S361  1  0.49867761  0.60898536  0.54204462  1
  S  S362  1  0.30886343  0.22114967  0.56442242  1
  S  S363  1  0.30491668  0.57466359  0.62413610  1
  S  S364  1  0.76569601  0.85527759  0.64072162  1
  S  S365  1  0.75967849  0.20460759  0.70628534  1
  S  S366  1  0.07682978  0.02997454  0.65905313  1
  S  S367  1  0.06282878  0.38287570  0.72510745  1
  S  S368  1  0.56675802  0.04679833  0.66480398  1
  S  S369  1  0.57149865  0.40702616  0.73041145  1
  S  S370  1  0.26361596  0.83241750  0.63842900  1
  S  S371  1  0.26214886  0.19124431  0.70436484  1
  S  S372  1  0.26273679  0.70467980  0.69511979  1
  S  S373  1  0.25961268  0.05521336  0.75954976  1
  S  S374  1  0.57040832  0.87518041  0.74055384  1
  S  S375  1  0.56201294  0.52351215  0.67109030  1
  S  S376  1  0.06438441  0.85919982  0.73728091  1
  S  S377  1  0.06958727  0.50582689  0.66689818  1
  S  S378  1  0.76442588  0.72102700  0.69636397  1
  S  S379  1  0.76516261  0.07581119  0.76300332  1
  S  S380  1  0.85312269  0.79486984  0.76665065  1
  S  S381  1  0.85293434  0.45142743  0.69610341  1
  S  S382  1  0.97895811  0.78532626  0.66795285  1
  S  S383  1  0.97637224  0.14162711  0.73395986  1
  S  S384  1  0.47666699  0.76890459  0.66648927  1
  S  S385  1  0.47546881  0.12333687  0.73235575  1
  S  S386  1  0.35733497  0.11143752  0.63440800  1
  S  S387  1  0.35452066  0.46299488  0.70219411  1
  S  S388  1  0.81365368  0.98553635  0.70445167  1
  S  S389  1  0.80948174  0.63683007  0.63649992  1
  S  S390  1  0.02436159  0.60239519  0.72515160  1
  S  S391  1  0.02536407  0.24709330  0.66341440  1
  S  S392  1  0.52119213  0.65533955  0.73821461  1
  S  S393  1  0.51695831  0.30485836  0.67329714  1
  S  S394  1  0.31587291  0.92403840  0.69697776  1
  S  S395  1  0.31046092  0.27518317  0.76330579  1
  S  S396  1  0.77088520  0.55203639  0.77457114  1
  S  S397  1  0.76017975  0.90494448  0.84347773  1
  S  S398  1  0.06977400  0.72982534  0.79376656  1
  S  S399  1  0.06840364  0.08077581  0.85914922  1
  S  S400  1  0.57094004  0.74509486  0.79674434  1
  S  S401  1  0.57034267  0.10244524  0.86291024  1
  S  S402  1  0.25894493  0.53079603  0.77046889  1
  S  S403  1  0.26454007  0.88119767  0.83645390  1
  S  S404  1  0.27186762  0.41085279  0.82911778  1
  S  S405  1  0.26000540  0.75785946  0.89367897  1
  S  S406  1  0.58489937  0.58626288  0.87421930  1
  S  S407  1  0.56834838  0.22826074  0.80575496  1
  S  S408  1  0.07631979  0.55574538  0.86892798  1
  S  S409  1  0.06786691  0.21321858  0.80348714  1
  S  S410  1  0.76284942  0.42846447  0.83259422  1
  S  S411  1  0.77347337  0.77362600  0.89926836  1
  S  S412  1  0.86274713  0.49585098  0.90004755  1
  S  S413  1  0.85310815  0.15111673  0.83251393  1
  S  S414  1  0.98015424  0.48170335  0.80341643  1
  S  S415  1  0.98007234  0.83835858  0.86838278  1
  S  S416  1  0.47825003  0.47398985  0.79780739  1
  S  S417  1  0.47539827  0.82227597  0.86620562  1
  S  S418  1  0.35558160  0.80887708  0.76862438  1
  S  S419  1  0.35481161  0.16479188  0.83476618  1
  S  S420  1  0.81292029  0.68947649  0.83759665  1
  S  S421  1  0.80723601  0.33214774  0.77438307  1
  S  S422  1  0.02442858  0.29848246  0.86348120  1
  S  S423  1  0.01837461  0.94932311  0.79604963  1
  S  S424  1  0.52759704  0.36582839  0.87640704  1
  S  S425  1  0.51513326  0.00906941  0.80489058  1
  S  S426  1  0.31659229  0.62960538  0.82787087  1
  S  S427  1  0.30993565  0.98304562  0.89297122  1
  S  S428  1  0.75985007  0.24624346  0.91073763  1
  S  S429  1  0.07866445  0.42447569  0.92480064  1
  S  S430  1  0.11406732  0.79778508  0.98290153  1
  S  S431  1  0.60300385  0.47291597  0.93131310  1
  S  S432  1  0.57921263  0.81963236  0.99526210  1
  S  S433  1  0.26017850  0.22545094  0.90749365  1
  S  S434  1  0.29483247  0.11049305  0.96628710  1
  S  S435  1  0.56354822  0.93179909  0.93769105  1
  S  S436  1  0.08848425  0.94171689  0.93365336  1
  S  S437  1  0.75804785  0.11529320  0.96664872  1
  S  S438  1  0.88029711  0.86817760  0.96823330  1
  S  S439  1  0.97638691  0.19205442  0.93855869  1
  S  S440  1  0.48876529  0.17542347  0.92855184  1
  S  S441  1  0.37386854  0.52445030  0.90579907  1
  S  S442  1  0.35666670  0.83673942  0.96343000  1
  S  S443  1  0.82205732  0.03256908  0.90727371  1
  S  S444  1  0.04762499  0.01158239  0.99634423  1
  S  S445  1  0.03149948  0.64347214  0.92925875  1
  S  S446  1  0.54475449  0.70908206  0.93648573  1
  S  S447  1  0.35079938  0.33415298  0.95943361  1
