# generated using pymatgen
data_Li3PS4
_symmetry_space_group_name_H-M   'P 1'
_cell_length_a   13.05789500
_cell_length_b   14.91536200
_cell_length_c   54.29539404
_cell_angle_alpha   90.00000000
_cell_angle_beta   90.00000000
_cell_angle_gamma   90.00000000
_symmetry_Int_Tables_number   1
_chemical_formula_structural   Li3PS4
_chemical_formula_sum   'Li168 P56 S224'
_cell_volume   10574.74636595
_cell_formula_units_Z   56
loop_
 _symmetry_equiv_pos_site_id
 _symmetry_equiv_pos_as_xyz
  1  'x, y, z'
loop_
 _atom_site_type_symbol
 _atom_site_label
 _atom_site_symmetry_multiplicity
 _atom_site_fract_x
 _atom_site_fract_y
 _atom_site_fract_z
 _atom_site_occupancy
  Li  Li0  1  0.14963700  0.30826612  0.12442179  1
  Li  Li1  1  0.17893203  0.65333011  0.05954444  1
  Li  Li2  1  0.82922396  0.56210866  0.06711191  1
  Li  Li3  1  0.83368287  0.16913134  0.14531616  1
  Li  Li4  1  0.30957064  0.45125216  0.08373091  1
  Li  Li5  1  0.65975928  0.42488320  0.10524716  1
  Li  Li6  1  0.65098050  0.68824843  0.05438482  1
  Li  Li7  1  0.65843508  0.90801283  0.08869769  1
  Li  Li8  1  0.31289153  0.41656884  0.01479346  1
  Li  Li9  1  0.32119183  0.99105340  0.08603312  1
  Li  Li10  1  0.83589695  0.40505419  0.01369641  1
  Li  Li11  1  0.77843149  0.19819585  0.09597894  1
  Li  Li12  1  0.15664760  0.79407290  0.11081360  1
  Li  Li13  1  0.99626555  0.40171891  0.09201733  1
  Li  Li14  1  0.00178473  0.71054855  0.03297730  1
  Li  Li15  1  0.46255952  0.60788309  0.07548087  1
  Li  Li16  1  0.50100570  0.28029103  0.11876432  1
  Li  Li17  1  0.49126451  0.80353472  0.12450111  1
  Li  Li18  1  0.51883592  0.17035590  0.06700120  1
  Li  Li19  1  0.99031519  0.95003873  0.09532917  1
  Li  Li20  1  0.14703340  0.61900310  0.24638312  1
  Li  Li21  1  0.16386279  0.96898536  0.18177543  1
  Li  Li22  1  0.81520028  0.87580247  0.18727306  1
  Li  Li23  1  0.82799547  0.52600905  0.25273539  1
  Li  Li24  1  0.31274849  0.77379852  0.20771618  1
  Li  Li25  1  0.32462666  0.13153720  0.14344905  1
  Li  Li26  1  0.66248143  0.72441282  0.22895643  1
  Li  Li27  1  0.64296546  0.05788373  0.16611190  1
  Li  Li28  1  0.64636930  0.55225361  0.15843170  1
  Li  Li29  1  0.65640625  0.19633451  0.22343585  1
  Li  Li30  1  0.32208052  0.64318073  0.15374892  1
  Li  Li31  1  0.31887870  0.28868431  0.21784227  1
  Li  Li32  1  0.81460100  0.75282387  0.13328661  1
  Li  Li33  1  0.81655187  0.40777867  0.19849111  1
  Li  Li34  1  0.15535744  0.44694685  0.17655768  1
  Li  Li35  1  0.14769735  0.09933667  0.23918048  1
  Li  Li36  1  0.98085715  0.77962211  0.22045243  1
  Li  Li37  1  0.00363963  0.05071206  0.15161183  1
  Li  Li38  1  0.47494608  0.91604156  0.19549970  1
  Li  Li39  1  0.49530976  0.57894062  0.23909113  1
  Li  Li40  1  0.48087635  0.04323029  0.24904794  1
  Li  Li41  1  0.48123453  0.38722074  0.18600974  1
  Li  Li42  1  0.97924764  0.59917735  0.14758099  1
  Li  Li43  1  0.98036653  0.25370080  0.20956740  1
  Li  Li44  1  0.14030791  0.97691143  0.35472403  1
  Li  Li45  1  0.15953925  0.26822180  0.31178595  1
  Li  Li46  1  0.81131730  0.17876376  0.31602483  1
  Li  Li47  1  0.82273626  0.83399252  0.37598474  1
  Li  Li48  1  0.32954070  0.08682494  0.33340589  1
  Li  Li49  1  0.32156339  0.43147639  0.27027966  1
  Li  Li50  1  0.65701480  0.02674420  0.35589405  1
  Li  Li51  1  0.65899841  0.38346281  0.29206121  1
  Li  Li52  1  0.65057525  0.84567434  0.28594962  1
  Li  Li53  1  0.65365749  0.49532674  0.34901603  1
  Li  Li54  1  0.31490268  0.94041252  0.28021561  1
  Li  Li55  1  0.32166212  0.58683835  0.34381311  1
  Li  Li56  1  0.82768993  0.03855232  0.26091348  1
  Li  Li57  1  0.82649136  0.69060041  0.32376400  1
  Li  Li58  1  0.15883822  0.73324287  0.30208978  1
  Li  Li59  1  0.16087127  0.38764864  0.36557169  1
  Li  Li60  1  0.96917645  0.09150304  0.34813869  1
  Li  Li61  1  0.99567105  0.37181665  0.27981180  1
  Li  Li62  1  0.49764696  0.23250975  0.30243017  1
  Li  Li63  1  0.48947219  0.87709690  0.36412994  1
  Li  Li64  1  0.47895091  0.33381803  0.37527356  1
  Li  Li65  1  0.48107640  0.68356403  0.31035674  1
  Li  Li66  1  0.99554796  0.88828501  0.29150221  1
  Li  Li67  1  0.99554759  0.54400453  0.35455244  1
  Li  Li68  1  0.14176118  0.57890393  0.43271578  1
  Li  Li69  1  0.79815301  0.48827656  0.43700891  1
  Li  Li70  1  0.32477833  0.44980816  0.44639555  1
  Li  Li71  1  0.32378697  0.72047474  0.39621676  1
  Li  Li72  1  0.65639184  0.69863569  0.41699584  1
  Li  Li73  1  0.65328079  0.14972227  0.41348469  1
  Li  Li74  1  0.65941513  0.68880960  0.48912101  1
  Li  Li75  1  0.31729710  0.23074225  0.41158825  1
  Li  Li76  1  0.81618879  0.33996917  0.38804925  1
  Li  Li77  1  0.19910004  0.94005837  0.40450818  1
  Li  Li78  1  0.15102388  0.69672972  0.48736363  1
  Li  Li79  1  0.97636547  0.42132719  0.46520284  1
  Li  Li80  1  0.97743860  0.74414294  0.40979043  1
  Li  Li81  1  0.51053078  0.53946074  0.42635247  1
  Li  Li82  1  0.46094985  0.96290837  0.43110657  1
  Li  Li83  1  0.98831210  0.18993158  0.40527718  1
  Li  Li84  1  0.57457442  0.74265146  0.62491068  1
  Li  Li85  1  0.54329580  0.39638454  0.55943115  1
  Li  Li86  1  0.89683021  0.48755990  0.56672562  1
  Li  Li87  1  0.88965009  0.88213159  0.64565888  1
  Li  Li88  1  0.41552496  0.60150528  0.58361523  1
  Li  Li89  1  0.07224802  0.63526366  0.60442110  1
  Li  Li90  1  0.07322359  0.36122533  0.55490859  1
  Li  Li91  1  0.06483881  0.13682541  0.58797695  1
  Li  Li92  1  0.41087248  0.62847142  0.51447196  1
  Li  Li93  1  0.40180433  0.05744541  0.58659805  1
  Li  Li94  1  0.89076800  0.64219269  0.51353680  1
  Li  Li95  1  0.94380170  0.84899705  0.59590827  1
  Li  Li96  1  0.56701724  0.25338558  0.61099658  1
  Li  Li97  1  0.72836171  0.64934485  0.59132797  1
  Li  Li98  1  0.72247102  0.33782745  0.53300933  1
  Li  Li99  1  0.26308952  0.44511713  0.57506389  1
  Li  Li100  1  0.24044105  0.78550415  0.63385043  1
  Li  Li101  1  0.22957967  0.24248661  0.62416500  1
  Li  Li102  1  0.21050289  0.86736159  0.56966120  1
  Li  Li103  1  0.73546839  0.09942154  0.59531511  1
  Li  Li104  1  0.57951899  0.43322789  0.74771014  1
  Li  Li105  1  0.56150241  0.08337352  0.68280623  1
  Li  Li106  1  0.90977874  0.17426452  0.68759670  1
  Li  Li107  1  0.89864080  0.52615881  0.75376384  1
  Li  Li108  1  0.41611765  0.28300004  0.70796029  1
  Li  Li109  1  0.40474997  0.92889467  0.64413223  1
  Li  Li110  1  0.06468573  0.32732173  0.72881171  1
  Li  Li111  1  0.08074258  0.99413483  0.66694497  1
  Li  Li112  1  0.07863196  0.49734847  0.65788877  1
  Li  Li113  1  0.06065793  0.85029020  0.72147949  1
  Li  Li114  1  0.40350684  0.40506035  0.65307909  1
  Li  Li115  1  0.40862439  0.75676771  0.71591760  1
  Li  Li116  1  0.91270452  0.29635996  0.63323566  1
  Li  Li117  1  0.90648865  0.63737826  0.69836628  1
  Li  Li118  1  0.57670568  0.59683026  0.67623174  1
  Li  Li119  1  0.57641610  0.94974386  0.73942662  1
  Li  Li120  1  0.74651817  0.27775007  0.72010979  1
  Li  Li121  1  0.72170861  0.00040048  0.65202585  1
  Li  Li122  1  0.25184151  0.13860090  0.69842891  1
  Li  Li123  1  0.22936264  0.47208628  0.73968266  1
  Li  Li124  1  0.22941348  0.95497755  0.75150355  1
  Li  Li125  1  0.24336298  0.64882077  0.68623896  1
  Li  Li126  1  0.74739919  0.45024011  0.64522623  1
  Li  Li127  1  0.74650986  0.79592731  0.70945849  1
  Li  Li128  1  0.58370199  0.07401722  0.85465164  1
  Li  Li129  1  0.56434612  0.78307956  0.81152045  1
  Li  Li130  1  0.91205145  0.87406203  0.81562816  1
  Li  Li131  1  0.90242987  0.21763871  0.87601896  1
  Li  Li132  1  0.39694006  0.96400526  0.83369942  1
  Li  Li133  1  0.40307018  0.61847868  0.76987239  1
  Li  Li134  1  0.06680464  0.02511446  0.85604137  1
  Li  Li135  1  0.06660256  0.67415039  0.79209877  1
  Li  Li136  1  0.07628166  0.20246082  0.78490284  1
  Li  Li137  1  0.07098154  0.55542994  0.84840530  1
  Li  Li138  1  0.40293841  0.10755326  0.77874232  1
  Li  Li139  1  0.40399248  0.46419793  0.84345994  1
  Li  Li140  1  0.89784132  0.01383690  0.76114125  1
  Li  Li141  1  0.90121144  0.35709740  0.82376774  1
  Li  Li142  1  0.56646817  0.31312045  0.80159893  1
  Li  Li143  1  0.56505444  0.66159976  0.86535603  1
  Li  Li144  1  0.75575923  0.96044754  0.84821588  1
  Li  Li145  1  0.73068123  0.68269064  0.77966437  1
  Li  Li146  1  0.22757257  0.81808025  0.80429508  1
  Li  Li147  1  0.23546540  0.17454367  0.86398746  1
  Li  Li148  1  0.24584281  0.71440059  0.87528516  1
  Li  Li149  1  0.24500681  0.36608286  0.80982805  1
  Li  Li150  1  0.72904601  0.16239851  0.79061169  1
  Li  Li151  1  0.73070890  0.50639338  0.85180101  1
  Li  Li152  1  0.58314549  0.47352102  0.93265882  1
  Li  Li153  1  0.92646824  0.56390429  0.93752430  1
  Li  Li154  1  0.39887893  0.60155200  0.94677882  1
  Li  Li155  1  0.40135718  0.33245912  0.89565283  1
  Li  Li156  1  0.06669027  0.35275726  0.91656547  1
  Li  Li157  1  0.07327974  0.90256059  0.91324816  1
  Li  Li158  1  0.06472193  0.36119650  0.98900523  1
  Li  Li159  1  0.40835373  0.81878376  0.91105916  1
  Li  Li160  1  0.90947550  0.70928909  0.88762595  1
  Li  Li161  1  0.52508319  0.11298354  0.90362044  1
  Li  Li162  1  0.57054686  0.34282781  0.98603730  1
  Li  Li163  1  0.74773717  0.63051724  0.96472477  1
  Li  Li164  1  0.74720757  0.30850047  0.90911800  1
  Li  Li165  1  0.21334021  0.51192967  0.92603074  1
  Li  Li166  1  0.26519995  0.08740122  0.93091763  1
  Li  Li167  1  0.73746405  0.86108977  0.90570207  1
  P  P168  1  0.08191280  0.48049833  0.04288491  1
  P  P169  1  0.07882721  0.14040790  0.10328368  1
  P  P170  1  0.89929114  0.74791554  0.08170289  1
  P  P171  1  0.40359724  0.81602316  0.06951428  1
  P  P172  1  0.57531667  0.43064830  0.05198125  1
  P  P173  1  0.58451829  0.07917552  0.11225693  1
  P  P174  1  0.07374456  0.79195965  0.16408899  1
  P  P175  1  0.07816872  0.44001754  0.22835545  1
  P  P176  1  0.89401977  0.39699746  0.14617092  1
  P  P177  1  0.89968016  0.05043871  0.20748366  1
  P  P178  1  0.39496420  0.46099858  0.13556920  1
  P  P179  1  0.39974362  0.11620734  0.19742519  1
  P  P180  1  0.57390608  0.73145477  0.17780278  1
  P  P181  1  0.57893834  0.37818096  0.24034545  1
  P  P182  1  0.07442876  0.09260630  0.29264750  1
  P  P183  1  0.08152759  0.74483443  0.35512631  1
  P  P184  1  0.90000880  0.70364376  0.27161478  1
  P  P185  1  0.90115549  0.35241279  0.33519782  1
  P  P186  1  0.39895564  0.76542133  0.25933458  1
  P  P187  1  0.40065165  0.41561361  0.32283878  1
  P  P188  1  0.57466303  0.02845738  0.30328548  1
  P  P189  1  0.58026911  0.67998495  0.36461898  1
  P  P190  1  0.07757274  0.39149802  0.41705934  1
  P  P191  1  0.89619706  0.00204483  0.39717245  1
  P  P192  1  0.89123279  0.65851403  0.45958241  1
  P  P193  1  0.39171655  0.06205177  0.38690533  1
  P  P194  1  0.39403966  0.71250740  0.45078002  1
  P  P195  1  0.57217925  0.32550305  0.42945472  1
  P  P196  1  0.64210606  0.56868606  0.54280998  1
  P  P197  1  0.64580586  0.91021295  0.60363769  1
  P  P198  1  0.82576346  0.30088572  0.58168526  1
  P  P199  1  0.31942789  0.23179949  0.56983594  1
  P  P200  1  0.14419157  0.61237622  0.55070600  1
  P  P201  1  0.13987025  0.96872223  0.61328437  1
  P  P202  1  0.65314627  0.25909469  0.66427925  1
  P  P203  1  0.64935723  0.60990001  0.72851798  1
  P  P204  1  0.83244525  0.65298401  0.64581032  1
  P  P205  1  0.82323595  0.00078168  0.70794779  1
  P  P206  1  0.33227590  0.58911310  0.63550331  1
  P  P207  1  0.32298696  0.93315715  0.69738761  1
  P  P208  1  0.15301486  0.31939057  0.67793138  1
  P  P209  1  0.14761087  0.67361941  0.74001207  1
  P  P210  1  0.64939556  0.95871559  0.79265595  1
  P  P211  1  0.64384279  0.30557180  0.85441659  1
  P  P212  1  0.82730696  0.34743438  0.77175871  1
  P  P213  1  0.82438456  0.69970725  0.83497432  1
  P  P214  1  0.32865077  0.28774273  0.75914004  1
  P  P215  1  0.32472665  0.63502285  0.82255848  1
  P  P216  1  0.14920979  0.02047674  0.80344314  1
  P  P217  1  0.14490077  0.37111010  0.86423133  1
  P  P218  1  0.64790029  0.65960604  0.91656070  1
  P  P219  1  0.82847065  0.05001130  0.89712466  1
  P  P220  1  0.83200350  0.39305906  0.95935094  1
  P  P221  1  0.33295976  0.98847455  0.88673161  1
  P  P222  1  0.32841827  0.33783836  0.95027970  1
  P  P223  1  0.15275208  0.72581921  0.92936248  1
  S  S224  1  0.14922814  0.36960807  0.02779482  1
  S  S225  1  0.13829705  0.03526468  0.08406206  1
  S  S226  1  0.83580886  0.85793211  0.09855545  1
  S  S227  1  0.33162631  0.83906496  0.10329952  1
  S  S228  1  0.64595747  0.42434305  0.01883947  1
  S  S229  1  0.65922306  0.07334930  0.07894719  1
  S  S230  1  0.63938805  0.53536563  0.07269990  1
  S  S231  1  0.33200584  0.35109791  0.11836188  1
  S  S232  1  0.35113568  0.70518897  0.05131293  1
  S  S233  1  0.83021242  0.36442434  0.11263415  1
  S  S234  1  0.83102295  0.71683841  0.04808221  1
  S  S235  1  0.13967692  0.50818368  0.07746070  1
  S  S236  1  0.04909802  0.78149617  0.07273207  1
  S  S237  1  0.93008060  0.44595542  0.04959887  1
  S  S238  1  0.92543410  0.10016170  0.11016231  1
  S  S239  1  0.42381817  0.46426592  0.04820982  1
  S  S240  1  0.43492297  0.12116340  0.10506634  1
  S  S241  1  0.55268388  0.77750764  0.08110716  1
  S  S242  1  0.09374549  0.25595991  0.08446445  1
  S  S243  1  0.10625357  0.58909585  0.02053410  1
  S  S244  1  0.88130734  0.63979970  0.10448356  1
  S  S245  1  0.37231863  0.57278575  0.11458448  1
  S  S246  1  0.40208515  0.92870745  0.04963507  1
  S  S247  1  0.59816101  0.31725029  0.07361672  1
  S  S248  1  0.14031508  0.68684876  0.14560554  1
  S  S249  1  0.14316798  0.33401940  0.20945556  1
  S  S250  1  0.82889055  0.50807114  0.16238754  1
  S  S251  1  0.84012289  0.15433241  0.22748538  1
  S  S252  1  0.33664390  0.48650792  0.16988356  1
  S  S253  1  0.33290697  0.13169461  0.23145701  1
  S  S254  1  0.63557757  0.70972591  0.14361636  1
  S  S255  1  0.64386544  0.34906669  0.20674987  1
  S  S256  1  0.63880457  0.83683156  0.19682324  1
  S  S257  1  0.64854916  0.18097041  0.13326706  1
  S  S258  1  0.33170988  0.66279909  0.23978488  1
  S  S259  1  0.34224424  0.01350654  0.17634934  1
  S  S260  1  0.83946419  0.68283715  0.23704999  1
  S  S261  1  0.83241682  0.03216173  0.17292657  1
  S  S262  1  0.13747266  0.81849329  0.19808677  1
  S  S263  1  0.14076957  0.15436625  0.13846814  1
  S  S264  1  0.04393379  0.43530564  0.13902465  1
  S  S265  1  0.04966813  0.08628013  0.19998395  1
  S  S266  1  0.92334932  0.75449645  0.17091206  1
  S  S267  1  0.92781029  0.39898136  0.23548919  1
  S  S268  1  0.42328157  0.77044016  0.17106571  1
  S  S269  1  0.42806650  0.41414449  0.23266178  1
  S  S270  1  0.54778763  0.42540818  0.14171771  1
  S  S271  1  0.54960881  0.07555133  0.20525138  1
  S  S272  1  0.08957995  0.55258200  0.20760727  1
  S  S273  1  0.09319409  0.90424745  0.14243544  1
  S  S274  1  0.87932724  0.93457655  0.22697072  1
  S  S275  1  0.87880172  0.29192566  0.17033041  1
  S  S276  1  0.38076318  0.88270167  0.23941547  1
  S  S277  1  0.38658979  0.23191746  0.17762330  1
  S  S278  1  0.59178446  0.61689625  0.19818855  1
  S  S279  1  0.59710176  0.96171934  0.13093502  1
  S  S280  1  0.13520535  0.98695756  0.27344118  1
  S  S281  1  0.14376804  0.63373203  0.33823671  1
  S  S282  1  0.83313362  0.80705639  0.29113570  1
  S  S283  1  0.83652954  0.45503618  0.35510653  1
  S  S284  1  0.33708016  0.78473029  0.29363633  1
  S  S285  1  0.33872950  0.43115683  0.35727768  1
  S  S286  1  0.64296989  0.00229281  0.26984932  1
  S  S287  1  0.64414954  0.64886627  0.33103339  1
  S  S288  1  0.63214536  0.13671630  0.32209085  1
  S  S289  1  0.64131386  0.48806732  0.25750221  1
  S  S290  1  0.32491833  0.96212429  0.36558604  1
  S  S291  1  0.33479083  0.31416750  0.30241116  1
  S  S292  1  0.83539655  0.98748412  0.36192135  1
  S  S293  1  0.83508035  0.33146712  0.30121990  1
  S  S294  1  0.14088662  0.11316211  0.32718157  1
  S  S295  1  0.13992863  0.46273991  0.26267172  1
  S  S296  1  0.05013445  0.74617645  0.26478146  1
  S  S297  1  0.05143752  0.38957943  0.32825654  1
  S  S298  1  0.92442058  0.05635317  0.30010335  1
  S  S299  1  0.93105818  0.70767266  0.36225160  1
  S  S300  1  0.42442548  0.06545072  0.29480180  1
  S  S301  1  0.42764901  0.71305893  0.35753865  1
  S  S302  1  0.54902935  0.72559413  0.26557876  1
  S  S303  1  0.55077739  0.37535208  0.32904667  1
  S  S304  1  0.09795248  0.84976170  0.33087184  1
  S  S305  1  0.09388072  0.20677688  0.27252925  1
  S  S306  1  0.88180112  0.23763795  0.35587732  1
  S  S307  1  0.89036826  0.58915154  0.29162221  1
  S  S308  1  0.37549921  0.18060353  0.36876869  1
  S  S309  1  0.38333242  0.53201882  0.30320372  1
  S  S310  1  0.58960023  0.91631810  0.32460465  1
  S  S311  1  0.59670940  0.26705083  0.26218032  1
  S  S312  1  0.14121076  0.28215533  0.40002781  1
  S  S313  1  0.83695072  0.10837782  0.41590434  1
  S  S314  1  0.82961840  0.75269128  0.48204780  1
  S  S315  1  0.32027032  0.06489670  0.42057591  1
  S  S316  1  0.33222741  0.72559988  0.48501510  1
  S  S317  1  0.64071911  0.30034030  0.39534484  1
  S  S318  1  0.62793543  0.43677430  0.44686851  1
  S  S319  1  0.63984262  0.79287319  0.38083251  1
  S  S320  1  0.33091970  0.60618399  0.43032957  1
  S  S321  1  0.82815288  0.64450458  0.42500514  1
  S  S322  1  0.14452499  0.42064164  0.45084706  1
  S  S323  1  0.14665106  0.77427824  0.38869911  1
  S  S324  1  0.05035753  0.03978200  0.39064597  1
  S  S325  1  0.04246980  0.69400053  0.45221469  1
  S  S326  1  0.92682943  0.35799445  0.42550154  1
  S  S327  1  0.42171890  0.36269589  0.41890003  1
  S  S328  1  0.54190115  0.02103577  0.39304924  1
  S  S329  1  0.54728503  0.68229623  0.45291721  1
  S  S330  1  0.09579281  0.50132287  0.39493129  1
  S  S331  1  0.86866180  0.53776506  0.47781962  1
  S  S332  1  0.87774316  0.88672474  0.41609194  1
  S  S333  1  0.36530731  0.82401013  0.42968395  1
  S  S334  1  0.57656627  0.21425953  0.44994236  1
  S  S335  1  0.60173335  0.57180358  0.38710997  1
  S  S336  1  0.57332780  0.67883097  0.52776232  1
  S  S337  1  0.58579211  0.01548795  0.58462609  1
  S  S338  1  0.88943525  0.19113588  0.59871984  1
  S  S339  1  0.39123318  0.21007558  0.60379896  1
  S  S340  1  0.07710211  0.59907430  0.51714790  1
  S  S341  1  0.06869681  0.96965716  0.57957795  1
  S  S342  1  0.08573346  0.51249097  0.57401999  1
  S  S343  1  0.39262983  0.70033746  0.61859501  1
  S  S344  1  0.37111610  0.34306788  0.55165026  1
  S  S345  1  0.89588752  0.68529735  0.61227495  1
  S  S346  1  0.89357641  0.33128637  0.54803705  1
  S  S347  1  0.58458570  0.54141678  0.57746392  1
  S  S348  1  0.67566393  0.26781927  0.57300417  1
  S  S349  1  0.79396131  0.60368141  0.54937257  1
  S  S350  1  0.79957532  0.94979441  0.61030222  1
  S  S351  1  0.29883320  0.58667021  0.54844970  1
  S  S352  1  0.29063138  0.92789971  0.60713292  1
  S  S353  1  0.16947730  0.26792550  0.58107070  1
  S  S354  1  0.62986695  0.79478840  0.58484050  1
  S  S355  1  0.61773834  0.45952749  0.52064913  1
  S  S356  1  0.84571355  0.40930494  0.60433593  1
  S  S357  1  0.35387147  0.47812622  0.61427148  1
  S  S358  1  0.32352833  0.11901472  0.55004898  1
  S  S359  1  0.10996105  0.73138698  0.56819661  1
  S  S360  1  0.58618191  0.36329105  0.64547235  1
  S  S361  1  0.58521922  0.71379379  0.70866604  1
  S  S362  1  0.89618994  0.54072846  0.66180585  1
  S  S363  1  0.88258606  0.89699024  0.72809905  1
  S  S364  1  0.39245020  0.56204577  0.66965949  1
  S  S365  1  0.39219552  0.91068274  0.73089697  1
  S  S366  1  0.09155905  0.34036126  0.64369900  1
  S  S367  1  0.08103526  0.69784143  0.70637359  1
  S  S368  1  0.08659880  0.21445945  0.69696398  1
  S  S369  1  0.07480365  0.86903357  0.63489155  1
  S  S370  1  0.39537822  0.39308640  0.74055102  1
  S  S371  1  0.38089277  0.03915004  0.67775636  1
  S  S372  1  0.88876756  0.37037506  0.73739935  1
  S  S373  1  0.89146843  0.01839222  0.67349785  1
  S  S374  1  0.58969566  0.23434611  0.69840902  1
  S  S375  1  0.58503303  0.89630900  0.63898951  1
  S  S376  1  0.68232875  0.61545384  0.63861547  1
  S  S377  1  0.67374392  0.96418558  0.70026285  1
  S  S378  1  0.80364563  0.29623955  0.67091242  1
  S  S379  1  0.79939555  0.65191119  0.73570414  1
  S  S380  1  0.30346103  0.28043085  0.67164609  1
  S  S381  1  0.29768493  0.63591706  0.73229867  1
  S  S382  1  0.17931790  0.62458441  0.64217281  1
  S  S383  1  0.17361007  0.97138062  0.70583247  1
  S  S384  1  0.63991574  0.49545556  0.70854440  1
  S  S385  1  0.63241480  0.14586802  0.64306357  1
  S  S386  1  0.84317959  0.11665780  0.72737259  1
  S  S387  1  0.84836147  0.75701377  0.67033693  1
  S  S388  1  0.34742359  0.17265809  0.73886649  1
  S  S389  1  0.33752870  0.81913529  0.67637754  1
  S  S390  1  0.13438009  0.43467195  0.69814095  1
  S  S391  1  0.12405045  0.08768853  0.63112357  1
  S  S392  1  0.58650300  0.06321376  0.77344331  1
  S  S393  1  0.58110030  0.41561897  0.83713171  1
  S  S394  1  0.89377388  0.24265364  0.79077718  1
  S  S395  1  0.88878929  0.59597742  0.85445270  1
  S  S396  1  0.38840615  0.26496176  0.79351177  1
  S  S397  1  0.38683733  0.61939372  0.85697868  1
  S  S398  1  0.08351782  0.04383954  0.76962582  1
  S  S399  1  0.08174272  0.40183355  0.83055986  1
  S  S400  1  0.09041430  0.91373681  0.82270370  1
  S  S401  1  0.08536936  0.56693939  0.75852094  1
  S  S402  1  0.39920422  0.08867653  0.86531161  1
  S  S403  1  0.38979260  0.73630591  0.80200227  1
  S  S404  1  0.88913901  0.06476800  0.86185318  1
  S  S405  1  0.89006710  0.72145245  0.80094826  1
  S  S406  1  0.58409415  0.93724424  0.82727578  1
  S  S407  1  0.58599295  0.59080822  0.76282413  1
  S  S408  1  0.67736133  0.30497237  0.76463653  1
  S  S409  1  0.67410787  0.66255809  0.82796955  1
  S  S410  1  0.79908135  0.99636884  0.80003095  1
  S  S411  1  0.79395738  0.34352277  0.86174250  1
  S  S412  1  0.29944967  0.98146867  0.79534249  1
  S  S413  1  0.29760789  0.33812354  0.85726908  1
  S  S414  1  0.17756394  0.32606628  0.76538020  1
  S  S415  1  0.17472232  0.67591765  0.82902883  1
  S  S416  1  0.62899732  0.19941766  0.83053732  1
  S  S417  1  0.63109855  0.84395558  0.77262724  1
  S  S418  1  0.84408146  0.81381534  0.85581129  1
  S  S419  1  0.83630619  0.46092510  0.79222412  1
  S  S420  1  0.34849344  0.86978808  0.86860652  1
  S  S421  1  0.34163617  0.51866216  0.80295867  1
  S  S422  1  0.13490576  0.13396593  0.82414364  1
  S  S423  1  0.13111908  0.78792932  0.76114139  1
  S  S424  1  0.58456397  0.76879310  0.89942936  1
  S  S425  1  0.88862700  0.94390092  0.91580074  1
  S  S426  1  0.89479763  0.29791819  0.98131254  1
  S  S427  1  0.40562094  0.98554310  0.92021412  1
  S  S428  1  0.38907677  0.32092312  0.98450045  1
  S  S429  1  0.08447684  0.75124514  0.89522198  1
  S  S430  1  0.09695098  0.61465402  0.94684423  1
  S  S431  1  0.08521932  0.25834006  0.88050324  1
  S  S432  1  0.39316104  0.44502996  0.93047931  1
  S  S433  1  0.89536078  0.40921979  0.92486426  1
  S  S434  1  0.57992257  0.63114792  0.95032691  1
  S  S435  1  0.57799578  0.27728110  0.88801144  1
  S  S436  1  0.67451193  0.01135898  0.89065759  1
  S  S437  1  0.68126056  0.35683576  0.95161107  1
  S  S438  1  0.79844884  0.69362611  0.92524888  1
  S  S439  1  0.30291714  0.68754382  0.91881649  1
  S  S440  1  0.18305483  0.03012009  0.89300556  1
  S  S441  1  0.17550585  0.36900972  0.95252339  1
  S  S442  1  0.63150712  0.54940098  0.89458539  1
  S  S443  1  0.85184243  0.51288081  0.97818540  1
  S  S444  1  0.84631158  0.16548756  0.91602596  1
  S  S445  1  0.35718210  0.22787437  0.92857168  1
  S  S446  1  0.14873771  0.83707366  0.94982228  1
  S  S447  1  0.12254919  0.47943293  0.88662797  1
