# generated using pymatgen
data_Li3PS4
_symmetry_space_group_name_H-M   'P 1'
_cell_length_a   13.05789500
_cell_length_b   14.91536200
_cell_length_c   54.13717309
_cell_angle_alpha   90.00000000
_cell_angle_beta   90.00000000
_cell_angle_gamma   90.00000000
_symmetry_Int_Tables_number   1
_chemical_formula_structural   Li3PS4
_chemical_formula_sum   'Li168 P56 S224'
_cell_volume   10543.93074242
_cell_formula_units_Z   56
loop_
 _symmetry_equiv_pos_site_id
 _symmetry_equiv_pos_as_xyz
  1  'x, y, z'
loop_
 _atom_site_type_symbol
 _atom_site_label
 _atom_site_symmetry_multiplicity
 _atom_site_fract_x
 _atom_site_fract_y
 _atom_site_fract_z
 _atom_site_occupancy
  Li  Li0  1  0.14364020  0.30570414  0.12718904  1
  Li  Li1  1  0.14659447  0.65049081  0.05234954  1
  Li  Li2  1  0.82885576  0.55926725  0.06217692  1
  Li  Li3  1  0.31074378  0.44988416  0.08327664  1
  Li  Li4  1  0.65252434  0.42762532  0.10554767  1
  Li  Li5  1  0.65382586  0.69026427  0.05346166  1
  Li  Li6  1  0.65204533  0.89972591  0.08761724  1
  Li  Li7  1  0.27890167  0.42837424  0.01220443  1
  Li  Li8  1  0.31136478  0.98775015  0.08495832  1
  Li  Li9  1  0.83157185  0.37728345  0.01391629  1
  Li  Li10  1  0.76460639  0.19743792  0.09683538  1
  Li  Li11  1  0.12433740  0.19640557  0.05319049  1
  Li  Li12  1  0.15196666  0.78181034  0.11077058  1
  Li  Li13  1  0.98001433  0.42408593  0.09371896  1
  Li  Li14  1  0.45856810  0.60463670  0.07343406  1
  Li  Li15  1  0.49431198  0.27947738  0.11731839  1
  Li  Li16  1  0.48371541  0.80031419  0.12338233  1
  Li  Li17  1  0.51856419  0.16948328  0.06680220  1
  Li  Li18  1  0.98900170  0.93464922  0.09071172  1
  Li  Li19  1  0.15003640  0.61397411  0.24763986  1
  Li  Li20  1  0.15172006  0.96027633  0.18451510  1
  Li  Li21  1  0.81545110  0.86821769  0.18904379  1
  Li  Li22  1  0.82490038  0.16163821  0.14654506  1
  Li  Li23  1  0.30326348  0.77250095  0.20712452  1
  Li  Li24  1  0.32281483  0.12472830  0.14327397  1
  Li  Li25  1  0.65081102  0.72533969  0.22859695  1
  Li  Li26  1  0.63567686  0.04928547  0.16632424  1
  Li  Li27  1  0.63795203  0.54777799  0.15858409  1
  Li  Li28  1  0.64686735  0.19369474  0.22295096  1
  Li  Li29  1  0.31773378  0.63999509  0.15310216  1
  Li  Li30  1  0.30539741  0.28389613  0.21757564  1
  Li  Li31  1  0.80806192  0.74452415  0.13089900  1
  Li  Li32  1  0.80839744  0.40553401  0.19877021  1
  Li  Li33  1  0.14228226  0.45562936  0.17653357  1
  Li  Li34  1  0.13791088  0.09076700  0.24004204  1
  Li  Li35  1  0.98397398  0.70858294  0.21529402  1
  Li  Li36  1  0.99587296  0.04131244  0.15271222  1
  Li  Li37  1  0.46711500  0.91202654  0.19540981  1
  Li  Li38  1  0.48822896  0.57470989  0.23875317  1
  Li  Li39  1  0.47249146  0.04169015  0.24952099  1
  Li  Li40  1  0.47100543  0.38350290  0.18597129  1
  Li  Li41  1  0.96703234  0.59851631  0.14429488  1
  Li  Li42  1  0.97129563  0.25271118  0.21100818  1
  Li  Li43  1  0.13103161  0.97263618  0.35481390  1
  Li  Li44  1  0.14342611  0.26721150  0.31075458  1
  Li  Li45  1  0.80773249  0.17802501  0.31396102  1
  Li  Li46  1  0.80623527  0.52109492  0.25197880  1
  Li  Li47  1  0.31873473  0.08583844  0.33402640  1
  Li  Li48  1  0.31586439  0.42363338  0.27083088  1
  Li  Li49  1  0.64138517  0.02886879  0.35657584  1
  Li  Li50  1  0.64966463  0.37486463  0.29278967  1
  Li  Li51  1  0.64231952  0.84097340  0.28662555  1
  Li  Li52  1  0.64174367  0.49069634  0.34843586  1
  Li  Li53  1  0.30802164  0.93603510  0.28039805  1
  Li  Li54  1  0.31053625  0.58045463  0.34442194  1
  Li  Li55  1  0.81661411  0.03833222  0.26092941  1
  Li  Li56  1  0.81649206  0.67758879  0.32375049  1
  Li  Li57  1  0.15104912  0.72959399  0.30125831  1
  Li  Li58  1  0.14888231  0.38094757  0.36823159  1
  Li  Li59  1  0.95899272  0.09240181  0.34843526  1
  Li  Li60  1  0.97419844  0.42675047  0.28462167  1
  Li  Li61  1  0.48724584  0.22735697  0.30255884  1
  Li  Li62  1  0.47904061  0.87143841  0.36497689  1
  Li  Li63  1  0.47326632  0.32964950  0.37668460  1
  Li  Li64  1  0.46875572  0.67574353  0.31042715  1
  Li  Li65  1  0.98472802  0.88126764  0.29008115  1
  Li  Li66  1  0.99102616  0.53548662  0.35595006  1
  Li  Li67  1  0.12731561  0.56901992  0.43576371  1
  Li  Li68  1  0.81245984  0.47543477  0.44342110  1
  Li  Li69  1  0.81164957  0.82887051  0.37209468  1
  Li  Li70  1  0.30357896  0.43981598  0.44613333  1
  Li  Li71  1  0.31515598  0.70871598  0.39639513  1
  Li  Li72  1  0.65167649  0.68544762  0.41573024  1
  Li  Li73  1  0.64990169  0.14364684  0.41608114  1
  Li  Li74  1  0.67386000  0.65352050  0.48838192  1
  Li  Li75  1  0.30806988  0.23013418  0.41311005  1
  Li  Li76  1  0.80843796  0.34442930  0.38865940  1
  Li  Li77  1  0.83714086  0.91614081  0.45145918  1
  Li  Li78  1  0.19800054  0.93074722  0.40401159  1
  Li  Li79  1  0.16079527  0.70058145  0.48500063  1
  Li  Li80  1  0.97958004  0.71881129  0.40713056  1
  Li  Li81  1  0.50090525  0.52880154  0.42732874  1
  Li  Li82  1  0.44880322  0.95764092  0.43123886  1
  Li  Li83  1  0.97339258  0.19022094  0.41294076  1
  Li  Li84  1  0.58099407  0.74321703  0.62712253  1
  Li  Li85  1  0.57873782  0.40006881  0.55219131  1
  Li  Li86  1  0.89520854  0.49075688  0.56157686  1
  Li  Li87  1  0.41435987  0.59936154  0.58296282  1
  Li  Li88  1  0.07171812  0.62182000  0.60497105  1
  Li  Li89  1  0.07117905  0.36025261  0.55328959  1
  Li  Li90  1  0.07189885  0.14925105  0.58729979  1
  Li  Li91  1  0.44551165  0.62358641  0.51165535  1
  Li  Li92  1  0.41217193  0.06093629  0.58494297  1
  Li  Li93  1  0.89387766  0.67250850  0.51388893  1
  Li  Li94  1  0.95762465  0.85299110  0.59682453  1
  Li  Li95  1  0.59975505  0.85238726  0.55313051  1
  Li  Li96  1  0.57252853  0.26794738  0.61011236  1
  Li  Li97  1  0.74449803  0.62799650  0.59366754  1
  Li  Li98  1  0.26616066  0.44357349  0.57338218  1
  Li  Li99  1  0.22907186  0.77031711  0.61724946  1
  Li  Li100  1  0.23972452  0.24963010  0.62277741  1
  Li  Li101  1  0.20627927  0.87863129  0.56649313  1
  Li  Li102  1  0.73391308  0.11459726  0.59063344  1
  Li  Li103  1  0.57496412  0.43556728  0.74763729  1
  Li  Li104  1  0.57228070  0.08882443  0.68419277  1
  Li  Li105  1  0.90851188  0.18135967  0.68903604  1
  Li  Li106  1  0.89973778  0.88756542  0.64653087  1
  Li  Li107  1  0.42050647  0.27824537  0.70707511  1
  Li  Li108  1  0.40122423  0.92394841  0.64329428  1
  Li  Li109  1  0.07395729  0.32588680  0.72829229  1
  Li  Li110  1  0.08861649  0.00009242  0.66617853  1
  Li  Li111  1  0.08581026  0.50140983  0.65835032  1
  Li  Li112  1  0.07744508  0.85685968  0.72294921  1
  Li  Li113  1  0.40778493  0.40860603  0.65258528  1
  Li  Li114  1  0.41875127  0.76515375  0.71757325  1
  Li  Li115  1  0.91674110  0.30340576  0.63084819  1
  Li  Li116  1  0.91650496  0.64554071  0.69861978  1
  Li  Li117  1  0.58146906  0.59198386  0.67637114  1
  Li  Li118  1  0.58604510  0.95843974  0.74007869  1
  Li  Li119  1  0.74013687  0.33944343  0.71525791  1
  Li  Li120  1  0.72773810  0.00724623  0.65286921  1
  Li  Li121  1  0.25657628  0.13728494  0.69531006  1
  Li  Li122  1  0.23747827  0.47482133  0.73827876  1
  Li  Li123  1  0.25341339  0.00907358  0.74940282  1
  Li  Li124  1  0.25340039  0.66590506  0.68572057  1
  Li  Li125  1  0.75821298  0.45113682  0.64376201  1
  Li  Li126  1  0.75146450  0.79750345  0.71126941  1
  Li  Li127  1  0.59421486  0.07732934  0.85469702  1
  Li  Li128  1  0.58325850  0.78295934  0.81082912  1
  Li  Li129  1  0.92029066  0.87196281  0.81399618  1
  Li  Li130  1  0.91849702  0.52767690  0.75173527  1
  Li  Li131  1  0.40811020  0.96434994  0.83400323  1
  Li  Li132  1  0.40934527  0.62642226  0.77061697  1
  Li  Li133  1  0.08379787  0.02383956  0.85642209  1
  Li  Li134  1  0.07691137  0.67471270  0.79230931  1
  Li  Li135  1  0.08130548  0.20841915  0.78610681  1
  Li  Li136  1  0.08368576  0.56036320  0.84823207  1
  Li  Li137  1  0.41724127  0.11462387  0.78035482  1
  Li  Li138  1  0.41472743  0.47040459  0.84425653  1
  Li  Li139  1  0.90798166  0.01202939  0.76091988  1
  Li  Li140  1  0.90831281  0.37241141  0.82347291  1
  Li  Li141  1  0.57492409  0.32113507  0.80132346  1
  Li  Li142  1  0.57669893  0.66978154  0.86842645  1
  Li  Li143  1  0.76661665  0.95676446  0.84847181  1
  Li  Li144  1  0.75124042  0.62480263  0.78424818  1
  Li  Li145  1  0.23797033  0.82270120  0.80254536  1
  Li  Li146  1  0.24682248  0.17939980  0.86485969  1
  Li  Li147  1  0.25174752  0.72200865  0.87648405  1
  Li  Li148  1  0.25623452  0.37287532  0.81032984  1
  Li  Li149  1  0.73981218  0.16784469  0.79012509  1
  Li  Li150  1  0.73534550  0.51543735  0.85602419  1
  Li  Li151  1  0.59648414  0.48103731  0.93540516  1
  Li  Li152  1  0.91344082  0.57461690  0.94366645  1
  Li  Li153  1  0.91353277  0.22088299  0.87196213  1
  Li  Li154  1  0.42035833  0.61147160  0.94591936  1
  Li  Li155  1  0.40985922  0.34059869  0.89660828  1
  Li  Li156  1  0.07370610  0.36327968  0.91573527  1
  Li  Li157  1  0.07584260  0.90805088  0.91605508  1
  Li  Li158  1  0.05233211  0.39711177  0.98875017  1
  Li  Li159  1  0.41794856  0.81979143  0.91250700  1
  Li  Li160  1  0.91848188  0.70584923  0.88880324  1
  Li  Li161  1  0.88916201  0.13494035  0.95132943  1
  Li  Li162  1  0.52843650  0.11967898  0.90409531  1
  Li  Li163  1  0.56599460  0.35254204  0.98530890  1
  Li  Li164  1  0.74694545  0.33269788  0.90693992  1
  Li  Li165  1  0.22325064  0.52209528  0.92691033  1
  Li  Li166  1  0.27784994  0.09386487  0.93136433  1
  Li  Li167  1  0.75339400  0.86004209  0.91304343  1
  P  P168  1  0.08195481  0.44765778  0.04182367  1
  P  P169  1  0.06307569  0.13826104  0.10380623  1
  P  P170  1  0.89634515  0.74126735  0.07927212  1
  P  P171  1  0.38732675  0.81094991  0.06905023  1
  P  P172  1  0.57158317  0.42689085  0.05196073  1
  P  P173  1  0.57721210  0.07374735  0.11193368  1
  P  P174  1  0.06735923  0.78449637  0.16423033  1
  P  P175  1  0.06671128  0.44120954  0.22926886  1
  P  P176  1  0.88398600  0.39425232  0.14670128  1
  P  P177  1  0.89027514  0.04812010  0.20830771  1
  P  P178  1  0.38743582  0.45742740  0.13540041  1
  P  P179  1  0.38851472  0.11183704  0.19774392  1
  P  P180  1  0.56692551  0.72845980  0.17710726  1
  P  P181  1  0.56669358  0.37336668  0.24067795  1
  P  P182  1  0.06548668  0.08518133  0.29282591  1
  P  P183  1  0.07463593  0.73963395  0.35371435  1
  P  P184  1  0.89127143  0.69399928  0.27106220  1
  P  P185  1  0.88936063  0.35110686  0.33529406  1
  P  P186  1  0.39262067  0.76182111  0.25911119  1
  P  P187  1  0.38938543  0.40911950  0.32380708  1
  P  P188  1  0.56778004  0.02447113  0.30356712  1
  P  P189  1  0.56964227  0.67397931  0.36430236  1
  P  P190  1  0.06343531  0.38577752  0.41995627  1
  P  P191  1  0.89294695  0.99238800  0.39885946  1
  P  P192  1  0.88533083  0.67167489  0.45890705  1
  P  P193  1  0.38275572  0.05910927  0.38764160  1
  P  P194  1  0.39326498  0.70541725  0.45055142  1
  P  P195  1  0.57121827  0.32018853  0.43069153  1
  P  P196  1  0.64291755  0.60276434  0.54155816  1
  P  P197  1  0.66094225  0.91092916  0.60377760  1
  P  P198  1  0.82897286  0.30780473  0.57911283  1
  P  P199  1  0.33781746  0.23865530  0.56880000  1
  P  P200  1  0.15409780  0.62257421  0.55143679  1
  P  P201  1  0.14682944  0.97562361  0.61155256  1
  P  P202  1  0.65723666  0.26466822  0.66392511  1
  P  P203  1  0.65808164  0.60809411  0.72914978  1
  P  P204  1  0.84026369  0.65581031  0.64678277  1
  P  P205  1  0.83377458  0.00142119  0.70834420  1
  P  P206  1  0.33701342  0.59151702  0.63512525  1
  P  P207  1  0.33568718  0.93738788  0.69760199  1
  P  P208  1  0.15798331  0.32117047  0.67688018  1
  P  P209  1  0.15814353  0.67630107  0.74037116  1
  P  P210  1  0.66009517  0.96423603  0.79275362  1
  P  P211  1  0.65068478  0.31138453  0.85370825  1
  P  P212  1  0.83309786  0.35562726  0.77082551  1
  P  P213  1  0.83682288  0.69881250  0.83533259  1
  P  P214  1  0.33256808  0.28815385  0.75892101  1
  P  P215  1  0.33591848  0.64152333  0.82359752  1
  P  P216  1  0.15806503  0.02627388  0.80340859  1
  P  P217  1  0.15509857  0.37669525  0.86409218  1
  P  P218  1  0.66230122  0.66431475  0.92002673  1
  P  P219  1  0.83240564  0.05833713  0.89881955  1
  P  P220  1  0.83988137  0.37880964  0.95890048  1
  P  P221  1  0.34271253  0.99185411  0.88763044  1
  P  P222  1  0.33177444  0.34680658  0.95078054  1
  P  P223  1  0.15473891  0.73140617  0.93051676  1
  S  S224  1  0.14262739  0.32932472  0.02752865  1
  S  S225  1  0.12722162  0.05211978  0.07811859  1
  S  S226  1  0.82921940  0.85012102  0.09695515  1
  S  S227  1  0.32181267  0.84010548  0.10348049  1
  S  S228  1  0.64806566  0.41430965  0.01963813  1
  S  S229  1  0.65371160  0.06806352  0.07875642  1
  S  S230  1  0.63705637  0.53275434  0.07189538  1
  S  S231  1  0.32388999  0.34727930  0.11815233  1
  S  S232  1  0.33057970  0.69776119  0.05294968  1
  S  S233  1  0.81986671  0.36236016  0.11320230  1
  S  S234  1  0.83278406  0.71168359  0.04582121  1
  S  S235  1  0.13750685  0.49326336  0.07504090  1
  S  S236  1  0.04682233  0.77842668  0.07351847  1
  S  S237  1  0.92736121  0.42685021  0.04895792  1
  S  S238  1  0.91642576  0.08929097  0.11057516  1
  S  S239  1  0.42076303  0.45916047  0.04700244  1
  S  S240  1  0.42805064  0.11661852  0.10422222  1
  S  S241  1  0.53865555  0.77272811  0.07939539  1
  S  S242  1  0.06433953  0.26288296  0.08871744  1
  S  S243  1  0.11901108  0.53862068  0.01523793  1
  S  S244  1  0.87692148  0.63080347  0.10221196  1
  S  S245  1  0.36779590  0.56833658  0.11392267  1
  S  S246  1  0.38322236  0.92199097  0.04824610  1
  S  S247  1  0.59284632  0.31504137  0.07490108  1
  S  S248  1  0.13438872  0.67874732  0.14603115  1
  S  S249  1  0.13164418  0.33896723  0.20907893  1
  S  S250  1  0.82011560  0.50578097  0.16290511  1
  S  S251  1  0.82983996  0.15438762  0.22741415  1
  S  S252  1  0.32759449  0.48323634  0.16965642  1
  S  S253  1  0.32229427  0.12864393  0.23188762  1
  S  S254  1  0.62730793  0.70414129  0.14285111  1
  S  S255  1  0.63425576  0.34768954  0.20709843  1
  S  S256  1  0.63280282  0.83486698  0.19563428  1
  S  S257  1  0.63987919  0.17548365  0.13333611  1
  S  S258  1  0.32695924  0.65985694  0.23895503  1
  S  S259  1  0.32967615  0.00861995  0.17698718  1
  S  S260  1  0.82483835  0.67416229  0.23692018  1
  S  S261  1  0.82403775  0.02639331  0.17356637  1
  S  S262  1  0.12383824  0.80710481  0.19919888  1
  S  S263  1  0.13607445  0.14257351  0.13749887  1
  S  S264  1  0.03429916  0.43355668  0.13950596  1
  S  S265  1  0.04047692  0.08455250  0.20032076  1
  S  S266  1  0.91565019  0.74678296  0.16958313  1
  S  S267  1  0.91741380  0.40090106  0.23630307  1
  S  S268  1  0.41631509  0.76781188  0.17054053  1
  S  S269  1  0.41615280  0.40870779  0.23256409  1
  S  S270  1  0.53958144  0.42072143  0.14202382  1
  S  S271  1  0.53905492  0.07217603  0.20525869  1
  S  S272  1  0.08084920  0.55634969  0.20878492  1
  S  S273  1  0.09077396  0.89825768  0.14364704  1
  S  S274  1  0.87407790  0.93408850  0.22814787  1
  S  S275  1  0.87072390  0.28854621  0.17078281  1
  S  S276  1  0.37428148  0.87946124  0.23938172  1
  S  S277  1  0.37513086  0.22703583  0.17758817  1
  S  S278  1  0.58445581  0.61489647  0.19808930  1
  S  S279  1  0.58887006  0.95615487  0.13052761  1
  S  S280  1  0.12737354  0.97798304  0.27425578  1
  S  S281  1  0.13545889  0.62856132  0.33664210  1
  S  S282  1  0.82502128  0.79548828  0.29126901  1
  S  S283  1  0.82486064  0.45483664  0.35478817  1
  S  S284  1  0.32943537  0.77954128  0.29341954  1
  S  S285  1  0.32803103  0.42528248  0.35832281  1
  S  S286  1  0.63412626  0.99623394  0.26995377  1
  S  S287  1  0.63277449  0.64384738  0.33043191  1
  S  S288  1  0.62775513  0.13367017  0.32158566  1
  S  S289  1  0.62601362  0.48244665  0.25887769  1
  S  S290  1  0.31669459  0.95926832  0.36590151  1
  S  S291  1  0.32344658  0.30776149  0.30325899  1
  S  S292  1  0.82199020  0.99335184  0.36475315  1
  S  S293  1  0.82930304  0.33317830  0.30048986  1
  S  S294  1  0.13046425  0.10914814  0.32756689  1
  S  S295  1  0.13413488  0.46128453  0.26321061  1
  S  S296  1  0.04051662  0.73473637  0.26406001  1
  S  S297  1  0.04138804  0.38763642  0.32974738  1
  S  S298  1  0.91509645  0.04847450  0.30055351  1
  S  S299  1  0.92414505  0.70177870  0.36106131  1
  S  S300  1  0.41701013  0.06120176  0.29550375  1
  S  S301  1  0.41714786  0.70786272  0.35746555  1
  S  S302  1  0.54222471  0.72187549  0.26560128  1
  S  S303  1  0.53964004  0.36848085  0.32983952  1
  S  S304  1  0.08861416  0.84624072  0.32995493  1
  S  S305  1  0.08192964  0.19777096  0.27240207  1
  S  S306  1  0.86643105  0.23560848  0.35517118  1
  S  S307  1  0.87700561  0.57815925  0.29113784  1
  S  S308  1  0.36748974  0.17779587  0.36966043  1
  S  S309  1  0.37236836  0.52523706  0.30385281  1
  S  S310  1  0.58346668  0.91373106  0.32551588  1
  S  S311  1  0.58529219  0.26131610  0.26214832  1
  S  S312  1  0.13088436  0.27640854  0.40279925  1
  S  S313  1  0.83147465  0.07609867  0.42520309  1
  S  S314  1  0.82019649  0.77882068  0.47764103  1
  S  S315  1  0.30996349  0.06055917  0.42123340  1
  S  S316  1  0.33995089  0.72145723  0.48550411  1
  S  S317  1  0.63647802  0.28959424  0.39630270  1
  S  S318  1  0.62987047  0.43322003  0.44647921  1
  S  S319  1  0.63136672  0.78633989  0.38048435  1
  S  S320  1  0.32134429  0.60018172  0.43136909  1
  S  S321  1  0.82641341  0.64120989  0.42470915  1
  S  S322  1  0.12537650  0.41756474  0.45343857  1
  S  S323  1  0.14167822  0.76801303  0.38723026  1
  S  S324  1  0.04145789  0.03761644  0.39233091  1
  S  S325  1  0.03889179  0.70119759  0.45172773  1
  S  S326  1  0.91317083  0.34741394  0.42574469  1
  S  S327  1  0.42011142  0.35900687  0.42041730  1
  S  S328  1  0.53275997  0.01726469  0.39398849  1
  S  S329  1  0.54600437  0.67361229  0.45215348  1
  S  S330  1  0.08286110  0.49561492  0.39690725  1
  S  S331  1  0.85618956  0.56485875  0.48119012  1
  S  S332  1  0.88193510  0.86500770  0.41249871  1
  S  S333  1  0.36334550  0.81564031  0.42863092  1
  S  S334  1  0.57461523  0.21046213  0.45194690  1
  S  S335  1  0.59050602  0.56531165  0.38664118  1
  S  S336  1  0.58290916  0.72117599  0.52713292  1
  S  S337  1  0.59649137  0.99674661  0.57809181  1
  S  S338  1  0.89499351  0.19839170  0.59677784  1
  S  S339  1  0.40243706  0.20968475  0.60333881  1
  S  S340  1  0.07854517  0.63609786  0.51900154  1
  S  S341  1  0.07079194  0.98084313  0.57831816  1
  S  S342  1  0.08773052  0.51690941  0.57128769  1
  S  S343  1  0.40030644  0.70194846  0.61796721  1
  S  S344  1  0.39471237  0.35183075  0.55278680  1
  S  S345  1  0.90492294  0.68776460  0.61333641  1
  S  S346  1  0.89249376  0.33713747  0.54563836  1
  S  S347  1  0.58771264  0.55764698  0.57486128  1
  S  S348  1  0.67827377  0.27137394  0.57320450  1
  S  S349  1  0.79749738  0.62356347  0.54876957  1
  S  S350  1  0.80739088  0.96026877  0.61055985  1
  S  S351  1  0.30490042  0.58997812  0.54663696  1
  S  S352  1  0.29603431  0.93226988  0.60402447  1
  S  S353  1  0.18594900  0.27630474  0.57894158  1
  S  S354  1  0.65979942  0.78635462  0.58863843  1
  S  S355  1  0.60571307  0.51174871  0.51504644  1
  S  S356  1  0.84939830  0.41818273  0.60199657  1
  S  S357  1  0.35753208  0.48078048  0.61358739  1
  S  S358  1  0.34275223  0.12765022  0.54800647  1
  S  S359  1  0.13214803  0.73395407  0.57451680  1
  S  S360  1  0.59088676  0.37051877  0.64562116  1
  S  S361  1  0.59254734  0.70977826  0.70885017  1
  S  S362  1  0.90407323  0.54449058  0.66311642  1
  S  S363  1  0.89422753  0.89541955  0.72753285  1
  S  S364  1  0.39644218  0.56544930  0.66941805  1
  S  S365  1  0.40214222  0.92075122  0.73173121  1
  S  S366  1  0.09704015  0.34519089  0.64265493  1
  S  S367  1  0.09059743  0.70281048  0.70684719  1
  S  S368  1  0.09162791  0.21536102  0.69558094  1
  S  S369  1  0.08403753  0.87425278  0.63307196  1
  S  S370  1  0.39828102  0.39025272  0.73881570  1
  S  S371  1  0.39440992  0.04040800  0.67676593  1
  S  S372  1  0.89936146  0.37502564  0.73666112  1
  S  S373  1  0.89994913  0.02307073  0.67359334  1
  S  S374  1  0.59983891  0.24220791  0.69881713  1
  S  S375  1  0.58799707  0.90628180  0.63747559  1
  S  S376  1  0.69029685  0.61583213  0.63940755  1
  S  S377  1  0.68349097  0.96481728  0.70037484  1
  S  S378  1  0.80890242  0.30231886  0.66941909  1
  S  S379  1  0.80732396  0.64888642  0.73620732  1
  S  S380  1  0.30834053  0.28153536  0.67033928  1
  S  S381  1  0.30851352  0.64034174  0.73228800  1
  S  S382  1  0.18472968  0.62804159  0.64163508  1
  S  S383  1  0.18536049  0.97765136  0.70513347  1
  S  S384  1  0.64440439  0.49274310  0.70875845  1
  S  S385  1  0.63434105  0.15081989  0.64333828  1
  S  S386  1  0.84966304  0.11568244  0.72811366  1
  S  S387  1  0.85224714  0.76170798  0.67080935  1
  S  S388  1  0.35123439  0.17052430  0.73916211  1
  S  S389  1  0.34876485  0.82192972  0.67754585  1
  S  S390  1  0.14068129  0.43509849  0.69776047  1
  S  S391  1  0.13531036  0.09325472  0.63013349  1
  S  S392  1  0.59768088  0.07128697  0.77425498  1
  S  S393  1  0.59021731  0.42257143  0.83665463  1
  S  S394  1  0.89938279  0.25430576  0.79113119  1
  S  S395  1  0.90121277  0.59528718  0.85492718  1
  S  S396  1  0.39638059  0.27079382  0.79317153  1
  S  S397  1  0.39703499  0.62559920  0.85814905  1
  S  S398  1  0.09104151  0.05318139  0.76977534  1
  S  S399  1  0.09238379  0.40705441  0.83021353  1
  S  S400  1  0.09885337  0.91742795  0.82174759  1
  S  S401  1  0.09848087  0.56708210  0.75843864  1
  S  S402  1  0.40920049  0.09147020  0.86589414  1
  S  S403  1  0.40250328  0.74270464  0.80309780  1
  S  S404  1  0.90294948  0.05690333  0.86465655  1
  S  S405  1  0.89691493  0.71655989  0.80051504  1
  S  S406  1  0.59564571  0.94045230  0.82758801  1
  S  S407  1  0.59084643  0.58811834  0.76313679  1
  S  S408  1  0.68394740  0.31449687  0.76390808  1
  S  S409  1  0.68469726  0.66251225  0.82982802  1
  S  S410  1  0.81047799  0.00084778  0.80044636  1
  S  S411  1  0.80156521  0.34851286  0.86088781  1
  S  S412  1  0.30885446  0.98973271  0.79538887  1
  S  S413  1  0.30775137  0.34284543  0.85740013  1
  S  S414  1  0.18280244  0.32752745  0.76540106  1
  S  S415  1  0.18552645  0.68231283  0.82956164  1
  S  S416  1  0.63590765  0.20457975  0.82999222  1
  S  S417  1  0.64346041  0.85162528  0.77232260  1
  S  S418  1  0.86022044  0.81439651  0.85516276  1
  S  S419  1  0.84714624  0.47159391  0.79082739  1
  S  S420  1  0.35757123  0.87314939  0.86956322  1
  S  S421  1  0.35241606  0.52515005  0.80372408  1
  S  S422  1  0.14236425  0.13757494  0.82514039  1
  S  S423  1  0.14067073  0.78837076  0.76190448  1
  S  S424  1  0.59572013  0.77416617  0.90287158  1
  S  S425  1  0.89420855  0.97495597  0.92522890  1
  S  S426  1  0.90505362  0.27154195  0.97758206  1
  S  S427  1  0.41574514  0.98986661  0.92116560  1
  S  S428  1  0.38621257  0.33347619  0.98570241  1
  S  S429  1  0.08903773  0.76227839  0.89620740  1
  S  S430  1  0.09603111  0.61838987  0.94630804  1
  S  S431  1  0.09362137  0.26404610  0.88020092  1
  S  S432  1  0.40198698  0.45158210  0.93106902  1
  S  S433  1  0.89946669  0.40948894  0.92477136  1
  S  S434  1  0.59928704  0.63227166  0.95335874  1
  S  S435  1  0.58427538  0.28322067  0.88729973  1
  S  S436  1  0.68393566  0.01298822  0.89243402  1
  S  S437  1  0.68635189  0.34943977  0.95167222  1
  S  S438  1  0.81267834  0.70230921  0.92588928  1
  S  S439  1  0.30536391  0.69221108  0.92007670  1
  S  S440  1  0.19295586  0.03429046  0.89401354  1
  S  S441  1  0.17865521  0.37702806  0.95229475  1
  S  S442  1  0.64291451  0.55469528  0.89685751  1
  S  S443  1  0.86879423  0.48534445  0.98130639  1
  S  S444  1  0.84357503  0.18570570  0.91240621  1
  S  S445  1  0.36350684  0.23563944  0.92933099  1
  S  S446  1  0.15233765  0.84111279  0.95177721  1
  S  S447  1  0.13338368  0.48496166  0.88651973  1
