# generated using pymatgen
data_Li3PS4
_symmetry_space_group_name_H-M   'P 1'
_cell_length_a   14.91536200
_cell_length_b   14.48087041
_cell_length_c   46.74953400
_cell_angle_alpha   90.00000000
_cell_angle_beta   90.00000000
_cell_angle_gamma   68.72383501
_symmetry_Int_Tables_number   1
_chemical_formula_structural   Li3PS4
_chemical_formula_sum   'Li168 P56 S224'
_cell_volume   9409.10149852
_cell_formula_units_Z   56
loop_
 _symmetry_equiv_pos_site_id
 _symmetry_equiv_pos_as_xyz
  1  'x, y, z'
loop_
 _atom_site_type_symbol
 _atom_site_label
 _atom_site_symmetry_multiplicity
 _atom_site_fract_x
 _atom_site_fract_y
 _atom_site_fract_z
 _atom_site_occupancy
  Li  Li0  1  0.28758422  0.70776346  0.09437013  1
  Li  Li1  1  0.59131467  0.84758650  0.99093619  1
  Li  Li2  1  0.27495918  0.01147419  0.11127824  1
  Li  Li3  1  0.61893453  0.07305275  0.03787918  1
  Li  Li4  1  0.88956396  0.64382381  0.02575376  1
  Li  Li5  1  0.49334469  0.55708555  0.05302125  1
  Li  Li6  1  0.37581178  0.19335294  0.08709304  1
  Li  Li7  1  0.80102211  0.35652252  0.00061180  1
  Li  Li8  1  0.22248679  0.26925965  0.02927414  1
  Li  Li9  1  0.87726384  0.19368816  0.09814697  1
  Li  Li10  1  0.01731563  0.48539644  0.06492801  1
  Li  Li11  1  0.05425932  0.13211262  0.04315307  1
  Li  Li12  1  0.73457924  0.03258635  0.10925551  1
  Li  Li13  1  0.06771821  0.72910067  0.04380870  1
  Li  Li14  1  0.81652085  0.68813960  0.11024709  1
  Li  Li15  1  0.49310312  0.87421634  0.06875544  1
  Li  Li16  1  0.44890333  0.36789044  0.08869434  1
  Li  Li17  1  0.89553083  0.37297710  0.07074668  1
  Li  Li18  1  0.27289870  0.97033616  0.00126341  1
  Li  Li19  1  0.92987024  0.89137995  0.08581692  1
  Li  Li20  1  0.63634534  0.57583359  0.24311965  1
  Li  Li21  1  0.96467606  0.63627503  0.17243372  1
  Li  Li22  1  0.61623315  0.89039502  0.26067893  1
  Li  Li23  1  0.95419487  0.94977455  0.18693140  1
  Li  Li24  1  0.22369983  0.50999472  0.13824768  1
  Li  Li25  1  0.87033666  0.43851535  0.20367998  1
  Li  Li26  1  0.71100022  0.07953610  0.22619388  1
  Li  Li27  1  0.03717427  0.14807705  0.15701928  1
  Li  Li28  1  0.55896356  0.14639760  0.16793172  1
  Li  Li29  1  0.23395759  0.06994598  0.23529079  1
  Li  Li30  1  0.36056451  0.44092796  0.19623257  1
  Li  Li31  1  0.68177790  0.52332151  0.11823086  1
  Li  Li32  1  0.43166453  0.95547983  0.17621403  1
  Li  Li33  1  0.09872687  0.90301212  0.24999308  1
  Li  Li34  1  0.47964776  0.63231565  0.17808719  1
  Li  Li35  1  0.16852080  0.55967931  0.25057330  1
  Li  Li36  1  0.76101679  0.77290364  0.21419551  1
  Li  Li37  1  0.15217587  0.81962907  0.14406204  1
  Li  Li38  1  0.79517981  0.24532048  0.22576487  1
  Li  Li39  1  0.12429952  0.33467677  0.14005313  1
  Li  Li40  1  0.65429446  0.33702052  0.14945292  1
  Li  Li41  1  0.26691991  0.25447994  0.21250884  1
  Li  Li42  1  0.62270772  0.82645082  0.13681808  1
  Li  Li43  1  0.28975489  0.76383004  0.22224320  1
  Li  Li44  1  0.98376689  0.45259698  0.38259779  1
  Li  Li45  1  0.30062974  0.50934750  0.31583296  1
  Li  Li46  1  0.96514999  0.74289950  0.40851098  1
  Li  Li47  1  0.28985185  0.83175452  0.33109708  1
  Li  Li48  1  0.55509290  0.38270122  0.27551734  1
  Li  Li49  1  0.22128955  0.31856822  0.34356042  1
  Li  Li50  1  0.03594838  0.95558756  0.36823123  1
  Li  Li51  1  0.39332120  0.02628446  0.29512585  1
  Li  Li52  1  0.90124699  0.02069813  0.30559009  1
  Li  Li53  1  0.56448282  0.94979572  0.38260489  1
  Li  Li54  1  0.70080812  0.31061962  0.33718508  1
  Li  Li55  1  0.02341290  0.39264671  0.26562151  1
  Li  Li56  1  0.77381329  0.83250714  0.32278596  1
  Li  Li57  1  0.46008762  0.76518951  0.38718475  1
  Li  Li58  1  0.83837321  0.49961225  0.32231701  1
  Li  Li59  1  0.52046580  0.43689759  0.39291898  1
  Li  Li60  1  0.10100800  0.65311841  0.35504786  1
  Li  Li61  1  0.43306800  0.70522513  0.28425780  1
  Li  Li62  1  0.14082071  0.14947214  0.34607502  1
  Li  Li63  1  0.46569821  0.21938948  0.27554545  1
  Li  Li64  1  0.98085322  0.20735892  0.28775100  1
  Li  Li65  1  0.60990800  0.12736793  0.35359350  1
  Li  Li66  1  0.97213585  0.70397379  0.27401364  1
  Li  Li67  1  0.64267823  0.63731627  0.34628515  1
  Li  Li68  1  0.63184066  0.36594119  0.45890222  1
  Li  Li69  1  0.64251786  0.60024670  0.51094477  1
  Li  Li70  1  0.92790480  0.23387757  0.41853336  1
  Li  Li71  1  0.40913998  0.10671540  0.48264629  1
  Li  Li72  1  0.65927330  0.71452461  0.45740670  1
  Li  Li73  1  0.76665153  0.90135854  0.43871217  1
  Li  Li74  1  0.25236840  0.88863961  0.44629067  1
  Li  Li75  1  0.99498590  0.20127052  0.48133009  1
  Li  Li76  1  0.37687091  0.25231988  0.40196266  1
  Li  Li77  1  0.15186319  0.69353813  0.46113282  1
  Li  Li78  1  0.17128856  0.35457150  0.45388225  1
  Li  Li79  1  0.77586557  0.54179899  0.42601674  1
  Li  Li80  1  0.81058560  0.09055104  0.41618915  1
  Li  Li81  1  0.24208983  0.08151120  0.41713127  1
  Li  Li82  1  0.32421002  0.57579151  0.41462091  1
  Li  Li83  1  0.95622156  0.47464936  0.51351912  1
  Li  Li84  1  0.96135559  0.21819290  0.59445490  1
  Li  Li85  1  0.65908091  0.07471689  0.49166970  1
  Li  Li86  1  0.97569853  0.91195199  0.61113524  1
  Li  Li87  1  0.63225000  0.85079351  0.53804785  1
  Li  Li88  1  0.35995122  0.27884334  0.52578160  1
  Li  Li89  1  0.75472245  0.36694237  0.55318881  1
  Li  Li90  1  0.87667547  0.72932171  0.58707160  1
  Li  Li91  1  0.44880044  0.56777929  0.50035739  1
  Li  Li92  1  0.02845846  0.65538910  0.52949344  1
  Li  Li93  1  0.37072771  0.73133093  0.59785849  1
  Li  Li94  1  0.23054971  0.43846727  0.56478372  1
  Li  Li95  1  0.19707333  0.79133772  0.54302938  1
  Li  Li96  1  0.51637462  0.89113024  0.60933445  1
  Li  Li97  1  0.18227712  0.19248453  0.54445540  1
  Li  Li98  1  0.43345972  0.23614601  0.60982024  1
  Li  Li99  1  0.75722773  0.04960898  0.56909419  1
  Li  Li100  1  0.80120585  0.55707850  0.58802841  1
  Li  Li101  1  0.35537448  0.54920995  0.57043057  1
  Li  Li102  1  0.97980251  0.95370608  0.50339314  1
  Li  Li103  1  0.32122361  0.03290705  0.58644481  1
  Li  Li104  1  0.61386109  0.34964835  0.74284384  1
  Li  Li105  1  0.28563579  0.28944165  0.67265015  1
  Li  Li106  1  0.63332557  0.03560775  0.76031328  1
  Li  Li107  1  0.29763415  0.97534303  0.68708346  1
  Li  Li108  1  0.02788792  0.41439991  0.63872415  1
  Li  Li109  1  0.38048463  0.48870861  0.70367801  1
  Li  Li110  1  0.53995509  0.84711116  0.72590596  1
  Li  Li111  1  0.21332713  0.77777871  0.65691958  1
  Li  Li112  1  0.69211874  0.77810657  0.66744965  1
  Li  Li113  1  0.01612337  0.85500436  0.73529058  1
  Li  Li114  1  0.88924348  0.48649657  0.69626153  1
  Li  Li115  1  0.56813122  0.40198937  0.61836563  1
  Li  Li116  1  0.81949559  0.96986375  0.67614218  1
  Li  Li117  1  0.15201007  0.02157525  0.74997266  1
  Li  Li118  1  0.77069586  0.29422275  0.67813159  1
  Li  Li119  1  0.08159494  0.36403606  0.75027271  1
  Li  Li120  1  0.49205083  0.15327108  0.71334985  1
  Li  Li121  1  0.09707707  0.10580142  0.64357806  1
  Li  Li122  1  0.45544398  0.68081357  0.72572604  1
  Li  Li123  1  0.12757693  0.59134945  0.64031241  1
  Li  Li124  1  0.59769547  0.58709256  0.64872653  1
  Li  Li125  1  0.98348726  0.67055762  0.71263476  1
  Li  Li126  1  0.62746240  0.09765834  0.63619781  1
  Li  Li127  1  0.96141111  0.16163073  0.72236101  1
  Li  Li128  1  0.26529992  0.47388657  0.88243805  1
  Li  Li129  1  0.94983212  0.41679118  0.81572248  1
  Li  Li130  1  0.28420164  0.18267365  0.90865630  1
  Li  Li131  1  0.95970474  0.09297883  0.83050352  1
  Li  Li132  1  0.69497148  0.54411913  0.77557418  1
  Li  Li133  1  0.02860627  0.60647991  0.84326060  1
  Li  Li134  1  0.21230639  0.97021674  0.86802816  1
  Li  Li135  1  0.85633535  0.90043692  0.79526822  1
  Li  Li136  1  0.34902957  0.90326272  0.80544889  1
  Li  Li137  1  0.68277922  0.97790318  0.88126410  1
  Li  Li138  1  0.54843401  0.61464412  0.83706866  1
  Li  Li139  1  0.22569313  0.53168211  0.76482428  1
  Li  Li140  1  0.47291372  0.09415067  0.82224383  1
  Li  Li141  1  0.78956285  0.15832516  0.88682161  1
  Li  Li142  1  0.41185150  0.42715216  0.82196472  1
  Li  Li143  1  0.73021064  0.48969564  0.89276780  1
  Li  Li144  1  0.15030175  0.27249739  0.85525523  1
  Li  Li145  1  0.81618460  0.22165038  0.78379590  1
  Li  Li146  1  0.10920050  0.77419072  0.84557272  1
  Li  Li147  1  0.78396502  0.70807284  0.77565013  1
  Li  Li148  1  0.26864458  0.71710509  0.78763522  1
  Li  Li149  1  0.63896042  0.79962591  0.85357610  1
  Li  Li150  1  0.27807519  0.22001669  0.77370748  1
  Li  Li151  1  0.60726387  0.28865010  0.84581954  1
  Li  Li152  1  0.61669549  0.55903659  0.95844964  1
  Li  Li153  1  0.60613634  0.32457688  0.01050184  1
  Li  Li154  1  0.32107321  0.69105865  0.91852926  1
  Li  Li155  1  0.84021974  0.81732624  0.98300239  1
  Li  Li156  1  0.59085145  0.20968599  0.95731110  1
  Li  Li157  1  0.48433389  0.02547207  0.93861295  1
  Li  Li158  1  0.99636686  0.03707299  0.94616914  1
  Li  Li159  1  0.25569270  0.72564891  0.98135782  1
  Li  Li160  1  0.87430532  0.67041360  0.90174447  1
  Li  Li161  1  0.09599023  0.23237257  0.96092307  1
  Li  Li162  1  0.07882378  0.56851237  0.95467525  1
  Li  Li163  1  0.47338064  0.38166481  0.92573276  1
  Li  Li164  1  0.43934204  0.83544543  0.91553275  1
  Li  Li165  1  0.01045839  0.84066864  0.91736403  1
  Li  Li166  1  0.92520374  0.34783121  0.91410914  1
  Li  Li167  1  0.29616019  0.44786686  0.01369979  1
  P  P168  1  0.76432639  0.81989907  0.05856487  1
  P  P169  1  0.44224942  0.02992625  0.01670012  1
  P  P170  1  0.10640077  0.96453045  0.08856191  1
  P  P171  1  0.22109075  0.47326464  0.07574284  1
  P  P172  1  0.01665736  0.34519808  0.01558402  1
  P  P173  1  0.67231758  0.29621215  0.07833472  1
  P  P174  1  0.12731204  0.69027644  0.19866962  1
  P  P175  1  0.44819950  0.75242361  0.12256528  1
  P  P176  1  0.78745168  0.90021820  0.16211088  1
  P  P177  1  0.46419805  0.83442180  0.23192999  1
  P  P178  1  0.57043841  0.35724792  0.21194678  1
  P  P179  1  0.89038498  0.41969581  0.13918729  1
  P  P180  1  0.35074650  0.22752781  0.15013905  1
  P  P181  1  0.02401777  0.16886509  0.22102511  1
  P  P182  1  0.46893168  0.55921031  0.33796292  1
  P  P183  1  0.79677223  0.62847798  0.26983902  1
  P  P184  1  0.13317865  0.77520555  0.30222550  1
  P  P185  1  0.79959271  0.70922059  0.37801882  1
  P  P186  1  0.91232380  0.23228012  0.35268431  1
  P  P187  1  0.23527856  0.29197556  0.27976746  1
  P  P188  1  0.69082228  0.10652347  0.28962525  1
  P  P189  1  0.36461075  0.03985669  0.35865989  1
  P  P190  1  0.78599795  0.42453754  0.48551187  1
  P  P191  1  0.14504289  0.50226953  0.40728181  1
  P  P192  1  0.49074904  0.64689130  0.44160222  1
  P  P193  1  0.19893415  0.13960765  0.47901092  1
  P  P194  1  0.58375841  0.15307030  0.42129375  1
  P  P195  1  0.03191441  0.96908892  0.43371694  1
  P  P196  1  0.48607274  0.10334066  0.55844247  1
  P  P197  1  0.80893805  0.89413606  0.51724639  1
  P  P198  1  0.14384485  0.96030022  0.58828138  1
  P  P199  1  0.02910073  0.45031927  0.57603387  1
  P  P200  1  0.23360857  0.57829151  0.51552349  1
  P  P201  1  0.57657032  0.62892123  0.57840811  1
  P  P202  1  0.12344099  0.23415170  0.69841347  1
  P  P203  1  0.80206774  0.17264232  0.62272193  1
  P  P204  1  0.46356001  0.02486384  0.66189774  1
  P  P205  1  0.78589773  0.09155419  0.73181884  1
  P  P206  1  0.67972676  0.56927838  0.71180747  1
  P  P207  1  0.35996297  0.50568361  0.63927774  1
  P  P208  1  0.90033142  0.69719887  0.65010024  1
  P  P209  1  0.22605939  0.75647293  0.72108367  1
  P  P210  1  0.78107555  0.36630854  0.83793998  1
  P  P211  1  0.45286557  0.29754917  0.76935588  1
  P  P212  1  0.11612799  0.15046795  0.80214751  1
  P  P213  1  0.44882276  0.21707792  0.87746542  1
  P  P214  1  0.33716446  0.69350450  0.85242929  1
  P  P215  1  0.01381759  0.63310204  0.77969172  1
  P  P216  1  0.55889761  0.81982039  0.78955321  1
  P  P217  1  0.88470366  0.88456591  0.85881698  1
  P  P218  1  0.46292629  0.50014220  0.98519582  1
  P  P219  1  0.10447131  0.42320539  0.90731428  1
  P  P220  1  0.75870510  0.27802705  0.94134337  1
  P  P221  1  0.05131537  0.78495664  0.97915958  1
  P  P222  1  0.66706232  0.77088147  0.92120424  1
  P  P223  1  0.21708331  0.95687073  0.93312216  1
  S  S224  1  0.90374930  0.72950606  0.07100493  1
  S  S225  1  0.31468779  0.12419719  0.00171191  1
  S  S226  1  0.97134716  0.04344341  0.07314481  1
  S  S227  1  0.14394845  0.54953426  0.04159323  1
  S  S228  1  0.84651959  0.51143951  0.10368350  1
  S  S229  1  0.07186333  0.29673757  0.05576076  1
  S  S230  1  0.72028853  0.20741724  0.11405032  1
  S  S231  1  0.97133736  0.23918625  0.99871846  1
  S  S232  1  0.57964444  0.25183802  0.05459264  1
  S  S233  1  0.31347508  0.52942548  0.09607846  1
  S  S234  1  0.47725423  0.05471903  0.05792412  1
  S  S235  1  0.74156431  0.77822302  0.01794770  1
  S  S236  1  0.43885768  0.72617638  0.07961524  1
  S  S237  1  0.11736930  0.81646969  0.08936031  1
  S  S238  1  0.44191147  0.88778089  0.01664143  1
  S  S239  1  0.76500195  0.96166471  0.06010253  1
  S  S240  1  0.89590379  0.47128922  0.02352085  1
  S  S241  1  0.58864901  0.43625053  0.09325807  1
  S  S242  1  0.31554189  0.34191444  0.05748991  1
  S  S243  1  0.97051588  0.28216684  0.12250264  1
  S  S244  1  0.67049663  0.78638895  0.08446911  1
  S  S245  1  0.20426821  0.99651980  0.06378353  1
  S  S246  1  0.55377652  0.03218029  0.98946695  1
  S  S247  1  0.12171009  0.46780436  0.10517240  1
  S  S248  1  0.11830027  0.36457685  0.98981493  1
  S  S249  1  0.79010117  0.28799263  0.05459525  1
  S  S250  1  0.26158223  0.60841353  0.21471900  1
  S  S251  1  0.57827054  0.67425403  0.14172392  1
  S  S252  1  0.65131397  0.98125552  0.14757362  1
  S  S253  1  0.33337084  0.91278912  0.21355301  1
  S  S254  1  0.51374642  0.44908801  0.17773038  1
  S  S255  1  0.17632159  0.38805345  0.24657594  1
  S  S256  1  0.40541266  0.13298265  0.18383293  1
  S  S257  1  0.08061134  0.07628701  0.25519630  1
  S  S258  1  0.26068246  0.18692535  0.12383805  1
  S  S259  1  0.93245428  0.12770354  0.19568708  1
  S  S260  1  0.66054450  0.39956343  0.23781679  1
  S  S261  1  0.98024640  0.45764442  0.16607949  1
  S  S262  1  0.80911494  0.92124566  0.20463879  1
  S  S263  1  0.12964536  0.99333405  0.13080979  1
  S  S264  1  0.11023036  0.66674411  0.15621699  1
  S  S265  1  0.78285313  0.60095062  0.22713438  1
  S  S266  1  0.47450962  0.68682334  0.22924580  1
  S  S267  1  0.79999923  0.75206137  0.15953530  1
  S  S268  1  0.43732193  0.90009847  0.12514386  1
  S  S269  1  0.11740842  0.83757925  0.20103878  1
  S  S270  1  0.26555923  0.36071082  0.16940368  1
  S  S271  1  0.93588536  0.30264416  0.23944600  1
  S  S272  1  0.65850658  0.22393601  0.19365698  1
  S  S273  1  0.32249986  0.16089870  0.26034176  1
  S  S274  1  0.34451516  0.72039959  0.14466555  1
  S  S275  1  0.02567265  0.65531344  0.22101890  1
  S  S276  1  0.56760072  0.86811035  0.21040212  1
  S  S277  1  0.88561449  0.93749756  0.13890233  1
  S  S278  1  0.45845071  0.34986924  0.23598351  1
  S  S279  1  0.77012865  0.42839116  0.16189888  1
  S  S280  1  0.46421139  0.23503899  0.12681149  1
  S  S281  1  0.13474997  0.17537975  0.19629743  1
  S  S282  1  0.60556215  0.48191204  0.35245482  1
  S  S283  1  0.93085544  0.55348710  0.28669522  1
  S  S284  1  0.00161003  0.85768400  0.28485574  1
  S  S285  1  0.67088767  0.79114487  0.35888410  1
  S  S286  1  0.85208197  0.32484954  0.31880923  1
  S  S287  1  0.53664874  0.25941539  0.38943894  1
  S  S288  1  0.74689600  0.01334276  0.32347689  1
  S  S289  1  0.40215884  0.94523020  0.39260042  1
  S  S290  1  0.60134232  0.06529289  0.26308499  1
  S  S291  1  0.27898478  0.00444634  0.32938023  1
  S  S292  1  0.00754221  0.27361108  0.37629328  1
  S  S293  1  0.32708179  0.33189058  0.30525043  1
  S  S294  1  0.14462956  0.80138207  0.34491937  1
  S  S295  1  0.47296409  0.85870943  0.27493075  1
  S  S296  1  0.44351386  0.53412385  0.29594657  1
  S  S297  1  0.12631341  0.47892245  0.36429322  1
  S  S298  1  0.81515443  0.56054714  0.37298206  1
  S  S299  1  0.14229660  0.62885425  0.29956807  1
  S  S300  1  0.78126323  0.77726083  0.27182639  1
  S  S301  1  0.45569436  0.70771805  0.33876147  1
  S  S302  1  0.60314068  0.23919641  0.30825009  1
  S  S303  1  0.27598613  0.17578811  0.37596004  1
  S  S304  1  0.99607857  0.09758603  0.33377577  1
  S  S305  1  0.67777635  0.02575604  0.40109522  1
  S  S306  1  0.69674912  0.59125207  0.29212878  1
  S  S307  1  0.37327773  0.52238409  0.36246544  1
  S  S308  1  0.90400537  0.74625615  0.35834221  1
  S  S309  1  0.23842916  0.80793691  0.28057600  1
  S  S310  1  0.80401209  0.22593736  0.37834848  1
  S  S311  1  0.12316318  0.28526105  0.30445126  1
  S  S312  1  0.80348321  0.11451202  0.26583346  1
  S  S313  1  0.48408013  0.04372811  0.33796180  1
  S  S314  1  0.89571457  0.33894040  0.51113068  1
  S  S315  1  0.27692545  0.41607312  0.42303347  1
  S  S316  1  0.36053751  0.73065791  0.42355986  1
  S  S317  1  0.11337094  0.21333991  0.44536357  1
  S  S318  1  0.10430440  0.87691344  0.46618543  1
  S  S319  1  0.94239784  0.91958324  0.40902266  1
  S  S320  1  0.25496646  0.24355323  0.49281434  1
  S  S321  1  0.66630845  0.18595085  0.45175152  1
  S  S322  1  0.50787217  0.70169883  0.48083066  1
  S  S323  1  0.80546973  0.72940927  0.42177977  1
  S  S324  1  0.78799224  0.37399761  0.44427106  1
  S  S325  1  0.48408669  0.50559579  0.44404133  1
  S  S326  1  0.13938539  0.64857657  0.40964915  1
  S  S327  1  0.79459332  0.56409700  0.48287352  1
  S  S328  1  0.93414612  0.09745332  0.45124061  1
  S  S329  1  0.31143484  0.01767706  0.46468234  1
  S  S330  1  0.03610166  0.48322177  0.42959124  1
  S  S331  1  0.66159037  0.42767273  0.50634848  1
  S  S332  1  0.59835345  0.65438437  0.41543764  1
  S  S333  1  0.12516014  0.10240620  0.51058874  1
  S  S334  1  0.46818707  0.12600742  0.43571676  1
  S  S335  1  0.13532201  0.98003273  0.40628569  1
  S  S336  1  0.34657474  0.19342781  0.57097805  1
  S  S337  1  0.93698553  0.80070615  0.50240428  1
  S  S338  1  0.27892093  0.88201950  0.57288422  1
  S  S339  1  0.10648291  0.37271267  0.54202736  1
  S  S340  1  0.40398760  0.41324849  0.60391080  1
  S  S341  1  0.17918645  0.62675465  0.55579048  1
  S  S342  1  0.52758679  0.71787718  0.61400229  1
  S  S343  1  0.27862334  0.68447032  0.49855056  1
  S  S344  1  0.66977998  0.67292277  0.55476781  1
  S  S345  1  0.93640091  0.39557878  0.59669356  1
  S  S346  1  0.77380570  0.86839650  0.55839459  1
  S  S347  1  0.50796342  0.14477150  0.51773765  1
  S  S348  1  0.81119993  0.19854824  0.57972794  1
  S  S349  1  0.13195316  0.10863222  0.58909756  1
  S  S350  1  0.80846713  0.03651495  0.51730291  1
  S  S351  1  0.48614529  0.96144181  0.56022007  1
  S  S352  1  0.35416847  0.45189377  0.52322553  1
  S  S353  1  0.66081587  0.48924631  0.59355143  1
  S  S354  1  0.93536540  0.58113993  0.55729379  1
  S  S355  1  0.27855144  0.64270021  0.62248385  1
  S  S356  1  0.57969318  0.13842947  0.58406148  1
  S  S357  1  0.04634197  0.92700360  0.56360413  1
  S  S358  1  0.69833194  0.89094877  0.48981574  1
  S  S359  1  0.12811819  0.45756758  0.60531518  1
  S  S360  1  0.13136163  0.55959104  0.48987317  1
  S  S361  1  0.45941552  0.63642812  0.55444861  1
  S  S362  1  0.98875200  0.31673031  0.71410986  1
  S  S363  1  0.67199018  0.25063012  0.64183856  1
  S  S364  1  0.59962820  0.94377190  0.64733157  1
  S  S365  1  0.91702864  0.01287263  0.71368884  1
  S  S366  1  0.73708086  0.47715499  0.67766193  1
  S  S367  1  0.07200017  0.53677802  0.74649222  1
  S  S368  1  0.84532339  0.79227743  0.68363777  1
  S  S369  1  0.16913210  0.84898985  0.75521781  1
  S  S370  1  0.99069281  0.73730793  0.62375504  1
  S  S371  1  0.31767345  0.79772756  0.69576149  1
  S  S372  1  0.58997561  0.52643807  0.73767988  1
  S  S373  1  0.27084166  0.46757675  0.66639968  1
  S  S374  1  0.44233191  0.00498616  0.70450947  1
  S  S375  1  0.12057561  0.93184742  0.63053738  1
  S  S376  1  0.14144579  0.25717322  0.65598659  1
  S  S377  1  0.46690180  0.32545653  0.72667697  1
  S  S378  1  0.77568083  0.23907795  0.72911609  1
  S  S379  1  0.45019662  0.17311970  0.65899180  1
  S  S380  1  0.81347110  0.02478162  0.62522155  1
  S  S381  1  0.13331300  0.08701567  0.70095841  1
  S  S382  1  0.98566602  0.56452195  0.66954758  1
  S  S383  1  0.31415959  0.62290060  0.73958276  1
  S  S384  1  0.59170152  0.70227399  0.69339064  1
  S  S385  1  0.92713933  0.76474948  0.76039057  1
  S  S386  1  0.90568328  0.20496813  0.64477725  1
  S  S387  1  0.22461734  0.26948376  0.72089660  1
  S  S388  1  0.68296279  0.05750957  0.71011505  1
  S  S389  1  0.36564205  0.98607786  0.63900949  1
  S  S390  1  0.79130373  0.57711301  0.73594819  1
  S  S391  1  0.48007671  0.49835882  0.66180426  1
  S  S392  1  0.78723796  0.68914364  0.62668046  1
  S  S393  1  0.11557351  0.74968616  0.69628207  1
  S  S394  1  0.64465156  0.44381269  0.85257185  1
  S  S395  1  0.31899057  0.37232470  0.78631083  1
  S  S396  1  0.24799002  0.06736744  0.78497681  1
  S  S397  1  0.57696474  0.13548511  0.85799094  1
  S  S398  1  0.39763896  0.60114903  0.81852029  1
  S  S399  1  0.71310949  0.66625285  0.88890063  1
  S  S400  1  0.50205561  0.91299398  0.82336962  1
  S  S401  1  0.84525591  0.97868070  0.89279179  1
  S  S402  1  0.64859702  0.86129979  0.76316938  1
  S  S403  1  0.97052233  0.92072619  0.82971931  1
  S  S404  1  0.24203613  0.65191886  0.87599431  1
  S  S405  1  0.92191846  0.59368554  0.80523932  1
  S  S406  1  0.10399583  0.12502697  0.84481391  1
  S  S407  1  0.77610746  0.06771236  0.77480134  1
  S  S408  1  0.80613723  0.39215405  0.79595258  1
  S  S409  1  0.12296910  0.44700007  0.86433616  1
  S  S410  1  0.43366787  0.36550937  0.87252928  1
  S  S411  1  0.10766363  0.29654637  0.79936951  1
  S  S412  1  0.46821623  0.14883633  0.77123601  1
  S  S413  1  0.79372193  0.21792480  0.83849238  1
  S  S414  1  0.64624255  0.68733928  0.80827287  1
  S  S415  1  0.97383911  0.74856366  0.87592022  1
  S  S416  1  0.25308570  0.82789294  0.83345746  1
  S  S417  1  0.57382257  0.89982699  0.90141551  1
  S  S418  1  0.55302736  0.33468168  0.79166686  1
  S  S419  1  0.87728482  0.40239315  0.86240027  1
  S  S420  1  0.34401466  0.17982320  0.85810303  1
  S  S421  1  0.01120720  0.11751196  0.78032207  1
  S  S422  1  0.44536106  0.69979160  0.87815042  1
  S  S423  1  0.12663092  0.63903731  0.80421012  1
  S  S424  1  0.44672926  0.81201319  0.76550206  1
  S  S425  1  0.76590285  0.88052850  0.83766322  1
  S  S426  1  0.35339782  0.58596135  0.01081790  1
  S  S427  1  0.97279498  0.50880960  0.92324587  1
  S  S428  1  0.88883440  0.19402487  0.92326580  1
  S  S429  1  0.13732027  0.71005182  0.94570426  1
  S  S430  1  0.14496196  0.04914406  0.96563717  1
  S  S431  1  0.30627912  0.00641281  0.90831172  1
  S  S432  1  0.99506529  0.68149611  0.99329571  1
  S  S433  1  0.58248349  0.73816127  0.95109090  1
  S  S434  1  0.74181271  0.22335480  0.98062661  1
  S  S435  1  0.44379025  0.19661183  0.92128016  1
  S  S436  1  0.46058278  0.55034177  0.94390777  1
  S  S437  1  0.76523624  0.41933760  0.94373699  1
  S  S438  1  0.11018157  0.27687258  0.90956828  1
  S  S439  1  0.45428847  0.36049048  0.98255364  1
  S  S440  1  0.31537574  0.82909363  0.95082129  1
  S  S441  1  0.93882874  0.90615246  0.96453121  1
  S  S442  1  0.21365607  0.44205696  0.92952009  1
  S  S443  1  0.58746148  0.49682370  0.00593225  1
  S  S444  1  0.65124302  0.26990292  0.91523625  1
  S  S445  1  0.12500656  0.82252886  0.01069316  1
  S  S446  1  0.78376457  0.79376823  0.93630639  1
  S  S447  1  0.11356717  0.94483080  0.90595292  1
