# generated using pymatgen
data_Li3PS4
_symmetry_space_group_name_H-M   'P 1'
_cell_length_a   14.91536200
_cell_length_b   14.48087041
_cell_length_c   46.74741111
_cell_angle_alpha   90.00000000
_cell_angle_beta   90.00000000
_cell_angle_gamma   68.72383501
_symmetry_Int_Tables_number   1
_chemical_formula_structural   Li3PS4
_chemical_formula_sum   'Li168 P56 S224'
_cell_volume   9408.67423384
_cell_formula_units_Z   56
loop_
 _symmetry_equiv_pos_site_id
 _symmetry_equiv_pos_as_xyz
  1  'x, y, z'
loop_
 _atom_site_type_symbol
 _atom_site_label
 _atom_site_symmetry_multiplicity
 _atom_site_fract_x
 _atom_site_fract_y
 _atom_site_fract_z
 _atom_site_occupancy
  Li  Li0  1  0.31330865  0.69373740  0.09406027  1
  Li  Li1  1  0.61535985  0.83610783  0.99109284  1
  Li  Li2  1  0.64258626  0.06071947  0.03792285  1
  Li  Li3  1  0.91432571  0.63221784  0.02563946  1
  Li  Li4  1  0.51946791  0.54456317  0.05277031  1
  Li  Li5  1  0.39962380  0.18135113  0.08704365  1
  Li  Li6  1  0.82621402  0.34566782  0.00026835  1
  Li  Li7  1  0.24652338  0.25723277  0.02926281  1
  Li  Li8  1  0.90233360  0.18134719  0.09800457  1
  Li  Li9  1  0.04126835  0.47352737  0.06491771  1
  Li  Li10  1  0.07879263  0.12052295  0.04303966  1
  Li  Li11  1  0.75961314  0.01858802  0.10927137  1
  Li  Li12  1  0.09276213  0.71715610  0.04399952  1
  Li  Li13  1  0.84084478  0.67568697  0.11020604  1
  Li  Li14  1  0.51878721  0.86067940  0.06870600  1
  Li  Li15  1  0.47314430  0.35557171  0.08856573  1
  Li  Li16  1  0.91948798  0.36091377  0.07072194  1
  Li  Li17  1  0.29620877  0.95804698  0.00163406  1
  Li  Li18  1  0.95401972  0.87922529  0.08579804  1
  Li  Li19  1  0.66191395  0.56211716  0.24311792  1
  Li  Li20  1  0.98893066  0.62350074  0.17235869  1
  Li  Li21  1  0.29929165  0.99916684  0.11125354  1
  Li  Li22  1  0.97833297  0.93727474  0.18701560  1
  Li  Li23  1  0.24814626  0.49769544  0.13818128  1
  Li  Li24  1  0.89495087  0.42600995  0.20367452  1
  Li  Li25  1  0.73544095  0.06561415  0.22595056  1
  Li  Li26  1  0.06297466  0.13375597  0.15675832  1
  Li  Li27  1  0.58367499  0.13428796  0.16739908  1
  Li  Li28  1  0.25871610  0.05629803  0.23553347  1
  Li  Li29  1  0.38460582  0.42697386  0.19630214  1
  Li  Li30  1  0.70589995  0.51131281  0.11840559  1
  Li  Li31  1  0.45620590  0.94268420  0.17620556  1
  Li  Li32  1  0.12307285  0.89063278  0.24991281  1
  Li  Li33  1  0.50295990  0.61859556  0.17838344  1
  Li  Li34  1  0.19442655  0.54574127  0.25018901  1
  Li  Li35  1  0.78431442  0.75929909  0.21367741  1
  Li  Li36  1  0.17731837  0.80579263  0.14351502  1
  Li  Li37  1  0.82053921  0.23226043  0.22573144  1
  Li  Li38  1  0.14840088  0.32262282  0.14001277  1
  Li  Li39  1  0.67951836  0.32394589  0.14923899  1
  Li  Li40  1  0.29029935  0.24076368  0.21221163  1
  Li  Li41  1  0.64685333  0.81318446  0.13688833  1
  Li  Li42  1  0.31375525  0.75145684  0.22229971  1
  Li  Li43  1  0.00918863  0.44004229  0.38219918  1
  Li  Li44  1  0.32491013  0.49613146  0.31611791  1
  Li  Li45  1  0.64257853  0.87577564  0.26065176  1
  Li  Li46  1  0.31443015  0.81910281  0.33099402  1
  Li  Li47  1  0.58019688  0.36964410  0.27529709  1
  Li  Li48  1  0.24563017  0.30623171  0.34355046  1
  Li  Li49  1  0.06125410  0.94214644  0.36812494  1
  Li  Li50  1  0.41907372  0.01120323  0.29527422  1
  Li  Li51  1  0.92638066  0.00768760  0.30555893  1
  Li  Li52  1  0.59144347  0.93621355  0.38161986  1
  Li  Li53  1  0.72701771  0.29715824  0.33719510  1
  Li  Li54  1  0.04961359  0.37889498  0.26542397  1
  Li  Li55  1  0.80091185  0.81899786  0.32312136  1
  Li  Li56  1  0.48409774  0.75303632  0.38713464  1
  Li  Li57  1  0.86459615  0.48608383  0.32224803  1
  Li  Li58  1  0.54519933  0.42363109  0.39285368  1
  Li  Li59  1  0.12650344  0.64060637  0.35542400  1
  Li  Li60  1  0.45813697  0.69152031  0.28422637  1
  Li  Li61  1  0.16597491  0.13691283  0.34596322  1
  Li  Li62  1  0.49115316  0.20425603  0.27571190  1
  Li  Li63  1  0.00576391  0.19398041  0.28780490  1
  Li  Li64  1  0.63489145  0.11511095  0.35364219  1
  Li  Li65  1  0.99711354  0.69156349  0.27362994  1
  Li  Li66  1  0.66720439  0.62453994  0.34616443  1
  Li  Li67  1  0.65616893  0.35325710  0.45886323  1
  Li  Li68  1  0.99097043  0.72829109  0.40910666  1
  Li  Li69  1  0.66735906  0.58713499  0.51072700  1
  Li  Li70  1  0.95413301  0.21994206  0.41855057  1
  Li  Li71  1  0.43311266  0.09342005  0.48301322  1
  Li  Li72  1  0.68335989  0.70010986  0.45735879  1
  Li  Li73  1  0.79265077  0.88747477  0.43889377  1
  Li  Li74  1  0.27614600  0.87552680  0.44629502  1
  Li  Li75  1  0.01925243  0.18873781  0.48122938  1
  Li  Li76  1  0.40122330  0.24019423  0.40187406  1
  Li  Li77  1  0.17837188  0.67962720  0.46113993  1
  Li  Li78  1  0.19556218  0.34225833  0.45403617  1
  Li  Li79  1  0.80037283  0.52868328  0.42603734  1
  Li  Li80  1  0.83476920  0.07708163  0.41625328  1
  Li  Li81  1  0.26602688  0.06949620  0.41712032  1
  Li  Li82  1  0.34934526  0.56210556  0.41464405  1
  Li  Li83  1  0.98018997  0.46258796  0.51355760  1
  Li  Li84  1  0.98615980  0.20570088  0.59456229  1
  Li  Li85  1  0.68301505  0.06268452  0.49167017  1
  Li  Li86  1  0.65659798  0.83783785  0.53781464  1
  Li  Li87  1  0.38382410  0.26660021  0.52580122  1
  Li  Li88  1  0.78090967  0.35441182  0.55296738  1
  Li  Li89  1  0.90059842  0.71740968  0.58703583  1
  Li  Li90  1  0.47388326  0.55496265  0.50057071  1
  Li  Li91  1  0.05363660  0.64264622  0.52959984  1
  Li  Li92  1  0.39647125  0.71808368  0.59776016  1
  Li  Li93  1  0.25519422  0.42586248  0.56481382  1
  Li  Li94  1  0.22174350  0.77848227  0.54292859  1
  Li  Li95  1  0.54152728  0.88021122  0.60928410  1
  Li  Li96  1  0.20645397  0.18025094  0.54436274  1
  Li  Li97  1  0.45942832  0.22348801  0.61018167  1
  Li  Li98  1  0.78159112  0.03730842  0.56902994  1
  Li  Li99  1  0.82622816  0.54480931  0.58770338  1
  Li  Li100  1  0.38064856  0.53629605  0.57038303  1
  Li  Li101  1  0.00386125  0.94159208  0.50317977  1
  Li  Li102  1  0.34559439  0.02072054  0.58639569  1
  Li  Li103  1  0.63934554  0.33656322  0.74357676  1
  Li  Li104  1  0.31033633  0.27817612  0.67231961  1
  Li  Li105  1  0.00006787  0.89965623  0.61113983  1
  Li  Li106  1  0.32349634  0.96181583  0.68716933  1
  Li  Li107  1  0.05193589  0.40226132  0.63871907  1
  Li  Li108  1  0.40644463  0.47565170  0.70365795  1
  Li  Li109  1  0.56552327  0.83387417  0.72594665  1
  Li  Li110  1  0.23799871  0.76591381  0.65686588  1
  Li  Li111  1  0.71791898  0.76536926  0.66757103  1
  Li  Li112  1  0.04159709  0.84445292  0.73520490  1
  Li  Li113  1  0.91375025  0.47425617  0.69617559  1
  Li  Li114  1  0.59278021  0.39002393  0.61830591  1
  Li  Li115  1  0.84429593  0.95777687  0.67610466  1
  Li  Li116  1  0.17859789  0.00905294  0.74975000  1
  Li  Li117  1  0.79488727  0.28184712  0.67813246  1
  Li  Li118  1  0.10659498  0.35272695  0.75003448  1
  Li  Li119  1  0.51648198  0.14107941  0.71350549  1
  Li  Li120  1  0.12235809  0.09312063  0.64353961  1
  Li  Li121  1  0.48021805  0.66839429  0.72575235  1
  Li  Li122  1  0.15185918  0.57797846  0.64025620  1
  Li  Li123  1  0.62230818  0.57505809  0.64861621  1
  Li  Li124  1  0.01056981  0.65938048  0.71239316  1
  Li  Li125  1  0.65257036  0.08522489  0.63674416  1
  Li  Li126  1  0.98616108  0.14928920  0.72223909  1
  Li  Li127  1  0.29062017  0.46204662  0.88277585  1
  Li  Li128  1  0.97413718  0.40565113  0.81564300  1
  Li  Li129  1  0.65891377  0.02286954  0.76066690  1
  Li  Li130  1  0.98497864  0.08209334  0.83088070  1
  Li  Li131  1  0.71908234  0.53228072  0.77559737  1
  Li  Li132  1  0.05385571  0.59481617  0.84363382  1
  Li  Li133  1  0.23777415  0.95849920  0.86788649  1
  Li  Li134  1  0.88232244  0.88821902  0.79497253  1
  Li  Li135  1  0.37373943  0.89332443  0.80538998  1
  Li  Li136  1  0.70925809  0.96440256  0.88148731  1
  Li  Li137  1  0.57342680  0.60464057  0.83706613  1
  Li  Li138  1  0.25195900  0.51985501  0.76505202  1
  Li  Li139  1  0.49982029  0.08266214  0.82275235  1
  Li  Li140  1  0.81431878  0.14795006  0.88701119  1
  Li  Li141  1  0.43671465  0.41508419  0.82224910  1
  Li  Li142  1  0.75423311  0.47794184  0.89272363  1
  Li  Li143  1  0.17419265  0.26140270  0.85526274  1
  Li  Li144  1  0.84372912  0.20873208  0.78376593  1
  Li  Li145  1  0.13423622  0.76351568  0.84566409  1
  Li  Li146  1  0.80961987  0.69602765  0.77543734  1
  Li  Li147  1  0.29275705  0.70527462  0.78773780  1
  Li  Li148  1  0.66652313  0.78635789  0.85343319  1
  Li  Li149  1  0.30436664  0.20904128  0.77327823  1
  Li  Li150  1  0.63363629  0.27603664  0.84629283  1
  Li  Li151  1  0.64266236  0.54720681  0.95872407  1
  Li  Li152  1  0.30911876  0.17223872  0.90883788  1
  Li  Li153  1  0.63373645  0.31192536  0.01091674  1
  Li  Li154  1  0.34492286  0.67940371  0.91855853  1
  Li  Li155  1  0.86560607  0.80669194  0.98281422  1
  Li  Li156  1  0.61670724  0.19816805  0.95716871  1
  Li  Li157  1  0.50813960  0.01391587  0.93876537  1
  Li  Li158  1  0.02171136  0.02437477  0.94563203  1
  Li  Li159  1  0.28170042  0.71229850  0.98128355  1
  Li  Li160  1  0.89768700  0.66226343  0.90193761  1
  Li  Li161  1  0.12033639  0.22029055  0.96094232  1
  Li  Li162  1  0.10363036  0.55640622  0.95485052  1
  Li  Li163  1  0.49795946  0.37031619  0.92609245  1
  Li  Li164  1  0.46391057  0.82374207  0.91551282  1
  Li  Li165  1  0.03657307  0.82907820  0.91715809  1
  Li  Li166  1  0.95052011  0.33677327  0.91405092  1
  Li  Li167  1  0.32129937  0.43567534  0.01354609  1
  P  P168  1  0.78900310  0.80746869  0.05847427  1
  P  P169  1  0.46604986  0.01730908  0.01695234  1
  P  P170  1  0.13111518  0.95171364  0.08831108  1
  P  P171  1  0.24574383  0.46082645  0.07559202  1
  P  P172  1  0.04121852  0.33335939  0.01559372  1
  P  P173  1  0.69721925  0.28316483  0.07839725  1
  P  P174  1  0.15201090  0.67741838  0.19846242  1
  P  P175  1  0.47273545  0.73961940  0.12268458  1
  P  P176  1  0.81203086  0.88703207  0.16203900  1
  P  P177  1  0.48944251  0.82048775  0.23192083  1
  P  P178  1  0.59525650  0.34344845  0.21181273  1
  P  P179  1  0.91499334  0.40690051  0.13923227  1
  P  P180  1  0.37488465  0.21487717  0.14996940  1
  P  P181  1  0.04887685  0.15591727  0.22102796  1
  P  P182  1  0.49424004  0.54565028  0.33805181  1
  P  P183  1  0.82254841  0.61492762  0.26974910  1
  P  P184  1  0.15842814  0.76179826  0.30207724  1
  P  P185  1  0.82528771  0.69556525  0.37815188  1
  P  P186  1  0.93820299  0.21840166  0.35263479  1
  P  P187  1  0.26118862  0.27805408  0.27984556  1
  P  P188  1  0.71639640  0.09291615  0.28966916  1
  P  P189  1  0.38994778  0.02727884  0.35875424  1
  P  P190  1  0.81075190  0.41159904  0.48548615  1
  P  P191  1  0.17079351  0.48916191  0.40721468  1
  P  P192  1  0.51516402  0.63391071  0.44150967  1
  P  P193  1  0.22278333  0.12655566  0.47905644  1
  P  P194  1  0.60771286  0.14106270  0.42158176  1
  P  P195  1  0.05649820  0.95543905  0.43368728  1
  P  P196  1  0.51052059  0.09130428  0.55855668  1
  P  P197  1  0.83313003  0.88169325  0.51731883  1
  P  P198  1  0.16829567  0.94779915  0.58825297  1
  P  P199  1  0.05369163  0.43810063  0.57601084  1
  P  P200  1  0.25901282  0.56526772  0.51553465  1
  P  P201  1  0.60212641  0.61631950  0.57830452  1
  P  P202  1  0.14866237  0.22207788  0.69834692  1
  P  P203  1  0.82690777  0.16006628  0.62268317  1
  P  P204  1  0.48824530  0.01271905  0.66215987  1
  P  P205  1  0.81092746  0.07954798  0.73178173  1
  P  P206  1  0.70439247  0.55629926  0.71184816  1
  P  P207  1  0.38514789  0.49353877  0.63929563  1
  P  P208  1  0.92546091  0.68475650  0.64999141  1
  P  P209  1  0.25150730  0.74422932  0.72100009  1
  P  P210  1  0.80586588  0.35505007  0.83785885  1
  P  P211  1  0.47868971  0.28504858  0.76978070  1
  P  P212  1  0.14174013  0.13939405  0.80197832  1
  P  P213  1  0.47438228  0.20546631  0.87798587  1
  P  P214  1  0.36219137  0.68175341  0.85242012  1
  P  P215  1  0.03988405  0.62145771  0.77969769  1
  P  P216  1  0.58418124  0.80791990  0.78968539  1
  P  P217  1  0.91047016  0.87386315  0.85860402  1
  P  P218  1  0.48910525  0.48800504  0.98546234  1
  P  P219  1  0.12930181  0.41213667  0.90733905  1
  P  P220  1  0.78423531  0.26669739  0.94129623  1
  P  P221  1  0.07717570  0.77261232  0.97905150  1
  P  P222  1  0.69103671  0.76069462  0.92121099  1
  P  P223  1  0.24217940  0.94502634  0.93314733  1
  S  S224  1  0.92838314  0.71721977  0.07098106  1
  S  S225  1  0.33831462  0.11137169  0.00201673  1
  S  S226  1  0.99603413  0.03069822  0.07295587  1
  S  S227  1  0.16888116  0.53748891  0.04146468  1
  S  S228  1  0.87057403  0.49873470  0.10375778  1
  S  S229  1  0.09620214  0.28478645  0.05577791  1
  S  S230  1  0.99575120  0.22752649  0.99869069  1
  S  S231  1  0.60411758  0.23953754  0.05459971  1
  S  S232  1  0.33829281  0.51647720  0.09607105  1
  S  S233  1  0.50115626  0.04208533  0.05817088  1
  S  S234  1  0.76667032  0.76650127  0.01774385  1
  S  S235  1  0.46461794  0.71296992  0.07970877  1
  S  S236  1  0.14259065  0.80346413  0.08900633  1
  S  S237  1  0.46609743  0.87505895  0.01677557  1
  S  S238  1  0.78910620  0.94942593  0.06013108  1
  S  S239  1  0.92056510  0.45955561  0.02357924  1
  S  S240  1  0.61365959  0.42312095  0.09343569  1
  S  S241  1  0.33998576  0.32950767  0.05731385  1
  S  S242  1  0.69533264  0.77331819  0.08428863  1
  S  S243  1  0.22879324  0.98455078  0.06370011  1
  S  S244  1  0.57723630  0.02030654  0.98970939  1
  S  S245  1  0.14617556  0.45563617  0.10500079  1
  S  S246  1  0.14275445  0.35271244  0.98977737  1
  S  S247  1  0.81477726  0.27509095  0.05451541  1
  S  S248  1  0.28662938  0.59570313  0.21434285  1
  S  S249  1  0.60235400  0.66150473  0.14212847  1
  S  S250  1  0.67587484  0.96789196  0.14751340  1
  S  S251  1  0.35862156  0.89937114  0.21359238  1
  S  S252  1  0.53817122  0.43513396  0.17761035  1
  S  S253  1  0.20268200  0.37416303  0.24658919  1
  S  S254  1  0.43000521  0.12022441  0.18358211  1
  S  S255  1  0.74562353  0.19379388  0.11396056  1
  S  S256  1  0.28463732  0.17454839  0.12367603  1
  S  S257  1  0.95749034  0.11484930  0.19561251  1
  S  S258  1  0.68540745  0.38620051  0.23756928  1
  S  S259  1  0.00476096  0.44521930  0.16606712  1
  S  S260  1  0.83373379  0.90740858  0.20458562  1
  S  S261  1  0.15441092  0.97970090  0.13063469  1
  S  S262  1  0.13437499  0.65431381  0.15600941  1
  S  S263  1  0.80812263  0.58764941  0.22702290  1
  S  S264  1  0.49945095  0.67307002  0.22931748  1
  S  S265  1  0.82462727  0.73885416  0.15934956  1
  S  S266  1  0.46169896  0.88731550  0.12522189  1
  S  S267  1  0.14165572  0.82481346  0.20098490  1
  S  S268  1  0.28954044  0.34790579  0.16930321  1
  S  S269  1  0.96096419  0.28974820  0.23943465  1
  S  S270  1  0.68370020  0.21024044  0.19354883  1
  S  S271  1  0.99538576  0.26953706  0.12252127  1
  S  S272  1  0.36883938  0.70713772  0.14454116  1
  S  S273  1  0.05105244  0.64136987  0.22081912  1
  S  S274  1  0.59267656  0.85430629  0.21032121  1
  S  S275  1  0.91013789  0.92463059  0.13890493  1
  S  S276  1  0.48371162  0.33577892  0.23600257  1
  S  S277  1  0.79497633  0.41519791  0.16199048  1
  S  S278  1  0.48812622  0.22283463  0.12660629  1
  S  S279  1  0.16003659  0.16165659  0.19631250  1
  S  S280  1  0.63092731  0.46860014  0.35252194  1
  S  S281  1  0.95670965  0.54003220  0.28651859  1
  S  S282  1  0.02677300  0.84473350  0.28480746  1
  S  S283  1  0.69691315  0.77754858  0.35880452  1
  S  S284  1  0.87799507  0.31125744  0.31881102  1
  S  S285  1  0.56139089  0.24652061  0.38946776  1
  S  S286  1  0.77270608  0.00028913  0.32364602  1
  S  S287  1  0.10515214  0.06334842  0.25522893  1
  S  S288  1  0.62693056  0.05086605  0.26334523  1
  S  S289  1  0.30399375  0.99159552  0.32962555  1
  S  S290  1  0.03314321  0.26018279  0.37623002  1
  S  S291  1  0.35269837  0.31811576  0.30539418  1
  S  S292  1  0.16985636  0.78810073  0.34479289  1
  S  S293  1  0.49887102  0.84438026  0.27491050  1
  S  S294  1  0.46876342  0.52038044  0.29606856  1
  S  S295  1  0.15222794  0.46624210  0.36415504  1
  S  S296  1  0.84030270  0.54710189  0.37299479  1
  S  S297  1  0.16739324  0.61566083  0.29935575  1
  S  S298  1  0.80700903  0.76364244  0.27180441  1
  S  S299  1  0.48048657  0.69442371  0.33879163  1
  S  S300  1  0.62887121  0.22581203  0.30816176  1
  S  S301  1  0.30113949  0.16316542  0.37598869  1
  S  S302  1  0.02202944  0.08388447  0.33363923  1
  S  S303  1  0.34804450  0.14679026  0.26046905  1
  S  S304  1  0.72261743  0.57758815  0.29206679  1
  S  S305  1  0.39868423  0.50860475  0.36256099  1
  S  S306  1  0.93021388  0.73218645  0.35864505  1
  S  S307  1  0.26360618  0.79472811  0.28041053  1
  S  S308  1  0.83003866  0.21164487  0.37828092  1
  S  S309  1  0.14852386  0.27193633  0.30442014  1
  S  S310  1  0.82867484  0.10058414  0.26563788  1
  S  S311  1  0.50891098  0.03154360  0.33777151  1
  S  S312  1  0.92054342  0.32629102  0.51114592  1
  S  S313  1  0.30215316  0.40278489  0.42315109  1
  S  S314  1  0.38496117  0.71775360  0.42348146  1
  S  S315  1  0.13743011  0.20085339  0.44537795  1
  S  S316  1  0.12882052  0.86326454  0.46618328  1
  S  S317  1  0.42890021  0.93290735  0.39269418  1
  S  S318  1  0.96726448  0.90559488  0.40898864  1
  S  S319  1  0.27869637  0.23038546  0.49303785  1
  S  S320  1  0.69135339  0.17365030  0.45175844  1
  S  S321  1  0.53242947  0.68875288  0.48074478  1
  S  S322  1  0.83058498  0.71569684  0.42191674  1
  S  S323  1  0.81296341  0.36073809  0.44429509  1
  S  S324  1  0.50858132  0.49265408  0.44405280  1
  S  S325  1  0.16513674  0.63548352  0.40971779  1
  S  S326  1  0.81927059  0.55122469  0.48268543  1
  S  S327  1  0.95888861  0.08366972  0.45127766  1
  S  S328  1  0.33523521  0.00491591  0.46459780  1
  S  S329  1  0.70130285  0.01292414  0.40159796  1
  S  S330  1  0.06137019  0.47026855  0.42930767  1
  S  S331  1  0.68653662  0.41461096  0.50636875  1
  S  S332  1  0.62284961  0.64095590  0.41531819  1
  S  S333  1  0.14886541  0.08945883  0.51059976  1
  S  S334  1  0.49126075  0.11680736  0.43636228  1
  S  S335  1  0.15983164  0.96695930  0.40629842  1
  S  S336  1  0.37123130  0.18158983  0.57120327  1
  S  S337  1  0.96132191  0.78798947  0.50261515  1
  S  S338  1  0.30345589  0.86932811  0.57294540  1
  S  S339  1  0.13101216  0.36057517  0.54198730  1
  S  S340  1  0.42874484  0.40082246  0.60397205  1
  S  S341  1  0.20457478  0.61369160  0.55580503  1
  S  S342  1  0.30394985  0.67155638  0.49860140  1
  S  S343  1  0.69505598  0.66002632  0.55442655  1
  S  S344  1  0.96101669  0.38323960  0.59658392  1
  S  S345  1  0.79754479  0.85634458  0.55844632  1
  S  S346  1  0.53205501  0.13285990  0.51782895  1
  S  S347  1  0.83640733  0.18575797  0.57969042  1
  S  S348  1  0.15668764  0.09609366  0.58900870  1
  S  S349  1  0.83274103  0.02404357  0.51726590  1
  S  S350  1  0.51036897  0.94940127  0.56016376  1
  S  S351  1  0.37950702  0.43884730  0.52320952  1
  S  S352  1  0.68631891  0.47684764  0.59352223  1
  S  S353  1  0.95999063  0.56899536  0.55730702  1
  S  S354  1  0.60447678  0.12547950  0.58426972  1
  S  S355  1  0.07085711  0.91435098  0.56360347  1
  S  S356  1  0.72283670  0.87840032  0.48980447  1
  S  S357  1  0.15281576  0.44496469  0.60531158  1
  S  S358  1  0.15664080  0.54665419  0.48992527  1
  S  S359  1  0.48479733  0.62330352  0.55447246  1
  S  S360  1  0.01393468  0.30452761  0.71404841  1
  S  S361  1  0.69665244  0.23830740  0.64171322  1
  S  S362  1  0.62435941  0.93156057  0.64760859  1
  S  S363  1  0.94178956  0.00115862  0.71337631  1
  S  S364  1  0.76150132  0.46426401  0.67767996  1
  S  S365  1  0.09817443  0.52514444  0.74650216  1
  S  S366  1  0.87087067  0.78010306  0.68348881  1
  S  S367  1  0.55325534  0.70593754  0.61377315  1
  S  S368  1  0.01557418  0.72460048  0.62352333  1
  S  S369  1  0.34319817  0.78501992  0.69559888  1
  S  S370  1  0.61445765  0.51381747  0.73773596  1
  S  S371  1  0.29586694  0.45570607  0.66645448  1
  S  S372  1  0.46725398  0.99242254  0.70476197  1
  S  S373  1  0.14481455  0.91973868  0.63053323  1
  S  S374  1  0.16633869  0.24513079  0.65589620  1
  S  S375  1  0.49292539  0.31292311  0.72710903  1
  S  S376  1  0.80064291  0.22704386  0.72912486  1
  S  S377  1  0.47516529  0.16095645  0.65936931  1
  S  S378  1  0.83806825  0.01229147  0.62523185  1
  S  S379  1  0.15891264  0.07482227  0.70091198  1
  S  S380  1  0.01056056  0.55222760  0.66955184  1
  S  S381  1  0.33950703  0.61069846  0.73949008  1
  S  S382  1  0.61673478  0.68941877  0.69338874  1
  S  S383  1  0.30421737  0.63056247  0.62251751  1
  S  S384  1  0.93035364  0.19251847  0.64478549  1
  S  S385  1  0.24975706  0.25792186  0.72072506  1
  S  S386  1  0.70793901  0.04516199  0.71024402  1
  S  S387  1  0.39035019  0.97442084  0.63910968  1
  S  S388  1  0.81600179  0.56417369  0.73596871  1
  S  S389  1  0.50552559  0.48558448  0.66178250  1
  S  S390  1  0.81213643  0.67637655  0.62675445  1
  S  S391  1  0.14077109  0.73775426  0.69624100  1
  S  S392  1  0.66928622  0.43255076  0.85235447  1
  S  S393  1  0.34454726  0.36018466  0.78650973  1
  S  S394  1  0.27358621  0.05658678  0.78475208  1
  S  S395  1  0.60285145  0.12350537  0.85872825  1
  S  S396  1  0.42270102  0.58932997  0.81855219  1
  S  S397  1  0.73843048  0.65487393  0.88922942  1
  S  S398  1  0.52783045  0.90092865  0.82355530  1
  S  S399  1  0.19491432  0.83701542  0.75510891  1
  S  S400  1  0.67377992  0.84917008  0.76317900  1
  S  S401  1  0.99638411  0.90956587  0.82947107  1
  S  S402  1  0.26668764  0.64042179  0.87591153  1
  S  S403  1  0.94762585  0.58245926  0.80522778  1
  S  S404  1  0.12989346  0.11355143  0.84467482  1
  S  S405  1  0.80218603  0.05544273  0.77478172  1
  S  S406  1  0.83115827  0.38025754  0.79584361  1
  S  S407  1  0.14846876  0.43549681  0.86437513  1
  S  S408  1  0.45916953  0.35389334  0.87294173  1
  S  S409  1  0.13251686  0.28560293  0.79923279  1
  S  S410  1  0.49391635  0.13637625  0.77168519  1
  S  S411  1  0.81907711  0.20650392  0.83860293  1
  S  S412  1  0.67201456  0.67533651  0.80830560  1
  S  S413  1  0.99908687  0.73792495  0.87590644  1
  S  S414  1  0.27865344  0.81626332  0.83341655  1
  S  S415  1  0.95337678  0.75292070  0.76024668  1
  S  S416  1  0.57866514  0.32183397  0.79224421  1
  S  S417  1  0.90158559  0.39194862  0.86233215  1
  S  S418  1  0.36974868  0.16838094  0.85849472  1
  S  S419  1  0.03716557  0.10550368  0.78024244  1
  S  S420  1  0.47023617  0.68783663  0.87823672  1
  S  S421  1  0.15235338  0.62736758  0.80436759  1
  S  S422  1  0.47212797  0.79959731  0.76572052  1
  S  S423  1  0.79169665  0.86929787  0.83755941  1
  S  S424  1  0.37967917  0.57354691  0.01117118  1
  S  S425  1  0.99758764  0.49848691  0.92302983  1
  S  S426  1  0.91433816  0.18285796  0.92317093  1
  S  S427  1  0.16308101  0.69747238  0.94561853  1
  S  S428  1  0.16938292  0.03696544  0.96564186  1
  S  S429  1  0.87133748  0.96827270  0.89250777  1
  S  S430  1  0.33112724  0.99524349  0.90846088  1
  S  S431  1  0.01997131  0.66990260  0.99318072  1
  S  S432  1  0.60741176  0.72707135  0.95118993  1
  S  S433  1  0.76761166  0.21129924  0.98048734  1
  S  S434  1  0.46910312  0.18528968  0.92180997  1
  S  S435  1  0.48630864  0.53881140  0.94425321  1
  S  S436  1  0.79092305  0.40795776  0.94376238  1
  S  S437  1  0.13467555  0.26588051  0.90957793  1
  S  S438  1  0.48070207  0.34835766  0.98287032  1
  S  S439  1  0.34032244  0.81721336  0.95083278  1
  S  S440  1  0.96505088  0.89400896  0.96428675  1
  S  S441  1  0.59750502  0.88856813  0.90114154  1
  S  S442  1  0.23866839  0.42999022  0.92972521  1
  S  S443  1  0.61377902  0.48474086  0.00612027  1
  S  S444  1  0.67643060  0.25941994  0.91520045  1
  S  S445  1  0.15083178  0.80971514  0.01064194  1
  S  S446  1  0.80668099  0.78648337  0.93608601  1
  S  S447  1  0.13898149  0.93298140  0.90579856  1
