# generated using pymatgen
data_Li3PS4
_symmetry_space_group_name_H-M   'P 1'
_cell_length_a   14.91536200
_cell_length_b   14.48087041
_cell_length_c   45.97039553
_cell_angle_alpha   90.00000000
_cell_angle_beta   90.00000000
_cell_angle_gamma   68.72383501
_symmetry_Int_Tables_number   1
_chemical_formula_structural   Li3PS4
_chemical_formula_sum   'Li156 P52 S208'
_cell_volume   9252.28725285
_cell_formula_units_Z   52
loop_
 _symmetry_equiv_pos_site_id
 _symmetry_equiv_pos_as_xyz
  1  'x, y, z'
loop_
 _atom_site_type_symbol
 _atom_site_label
 _atom_site_symmetry_multiplicity
 _atom_site_fract_x
 _atom_site_fract_y
 _atom_site_fract_z
 _atom_site_occupancy
  Li  Li0  1  0.28878976  0.78429249  0.09152697  1
  Li  Li1  1  0.64034005  0.85694292  0.01227008  1
  Li  Li2  1  0.27157426  0.08699053  0.11535379  1
  Li  Li3  1  0.60408607  0.16808631  0.04655545  1
  Li  Li4  1  0.46863292  0.62744096  0.07265358  1
  Li  Li5  1  0.33819470  0.28228509  0.08021653  1
  Li  Li6  1  0.26762023  0.36963179  0.99715086  1
  Li  Li7  1  0.87789486  0.26569710  0.09249670  1
  Li  Li8  1  0.03270225  0.68720099  0.05184316  1
  Li  Li9  1  0.67710777  0.59681147  0.12192926  1
  Li  Li10  1  0.73589347  0.10061168  0.10803898  1
  Li  Li11  1  0.79388457  0.77736446  0.10697887  1
  Li  Li12  1  0.49155774  0.95607388  0.07104131  1
  Li  Li13  1  0.75404627  0.03827020  0.00438381  1
  Li  Li14  1  0.43634771  0.43036843  0.08298260  1
  Li  Li15  1  0.88370900  0.45622661  0.07418184  1
  Li  Li16  1  0.28142031  0.04285297  0.01722473  1
  Li  Li17  1  0.94242737  0.96712629  0.08258167  1
  Li  Li18  1  0.63798307  0.64520508  0.23696886  1
  Li  Li19  1  0.96607447  0.70857915  0.16419522  1
  Li  Li20  1  0.61683570  0.95984035  0.25689439  1
  Li  Li21  1  0.94750738  0.03055604  0.18473931  1
  Li  Li22  1  0.21238524  0.58612895  0.12607156  1
  Li  Li23  1  0.87909650  0.50810360  0.20238653  1
  Li  Li24  1  0.69919660  0.15174158  0.22625073  1
  Li  Li25  1  0.03071457  0.23269164  0.15360780  1
  Li  Li26  1  0.54595073  0.22202894  0.16368963  1
  Li  Li27  1  0.22089816  0.14280615  0.23523009  1
  Li  Li28  1  0.34892186  0.51465286  0.19296464  1
  Li  Li29  1  0.01954764  0.46272164  0.26560314  1
  Li  Li30  1  0.40940891  0.04117637  0.17785543  1
  Li  Li31  1  0.07503675  0.97367141  0.24941290  1
  Li  Li32  1  0.46599077  0.70228133  0.17911479  1
  Li  Li33  1  0.14623404  0.64313762  0.24960428  1
  Li  Li34  1  0.83083009  0.82371289  0.21525233  1
  Li  Li35  1  0.14630422  0.89656026  0.13989677  1
  Li  Li36  1  0.78666063  0.31747694  0.22519467  1
  Li  Li37  1  0.11350093  0.42794966  0.12828793  1
  Li  Li38  1  0.64966221  0.40469255  0.14748600  1
  Li  Li39  1  0.24607275  0.33493584  0.20969900  1
  Li  Li40  1  0.60689437  0.89783456  0.15555206  1
  Li  Li41  1  0.27712366  0.83357051  0.22592133  1
  Li  Li42  1  0.97983340  0.52146164  0.37553896  1
  Li  Li43  1  0.30482001  0.57799436  0.30970081  1
  Li  Li44  1  0.96685345  0.82484709  0.40305903  1
  Li  Li45  1  0.28741702  0.89952411  0.32794169  1
  Li  Li46  1  0.54321185  0.45524733  0.27460930  1
  Li  Li47  1  0.21595961  0.37499950  0.34583114  1
  Li  Li48  1  0.03293507  0.02387563  0.37402547  1
  Li  Li49  1  0.36950119  0.10115144  0.29787004  1
  Li  Li50  1  0.89062491  0.09231427  0.30823452  1
  Li  Li51  1  0.55872927  0.00737609  0.38105472  1
  Li  Li52  1  0.69606173  0.38267544  0.33480117  1
  Li  Li53  1  0.36555167  0.34515135  0.40661778  1
  Li  Li54  1  0.75372686  0.91580396  0.32044051  1
  Li  Li55  1  0.41972826  0.83192896  0.39391052  1
  Li  Li56  1  0.81220824  0.57087507  0.32112720  1
  Li  Li57  1  0.50012638  0.51053912  0.39104907  1
  Li  Li58  1  0.17491105  0.69902117  0.35938187  1
  Li  Li59  1  0.49590310  0.76493431  0.28619818  1
  Li  Li60  1  0.12563551  0.18422357  0.36990798  1
  Li  Li61  1  0.45366477  0.29045785  0.27404777  1
  Li  Li62  1  0.99319475  0.27205051  0.29094683  1
  Li  Li63  1  0.59458959  0.19764155  0.35615341  1
  Li  Li64  1  0.95221106  0.76833019  0.29939853  1
  Li  Li65  1  0.62286119  0.70562583  0.36510165  1
  Li  Li66  1  0.66552216  0.43625185  0.45033623  1
  Li  Li67  1  0.64006083  0.75809112  0.46483993  1
  Li  Li68  1  0.94975352  0.34616854  0.43022056  1
  Li  Li69  1  0.77875999  0.99057944  0.42981724  1
  Li  Li70  1  0.22271996  0.92537621  0.44694599  1
  Li  Li71  1  0.91320114  0.30072141  0.50290441  1
  Li  Li72  1  0.65964922  0.60707577  0.51577620  1
  Li  Li73  1  0.82980613  0.64101455  0.42527377  1
  Li  Li74  1  0.81282249  0.19371821  0.41990651  1
  Li  Li75  1  0.37295807  0.15278103  0.42698199  1
  Li  Li76  1  0.30182900  0.61588259  0.44635443  1
  Li  Li77  1  0.11297659  0.47636897  0.46405840  1
  Li  Li78  1  0.38852601  0.94156829  0.59199045  1
  Li  Li79  1  0.03248579  0.87225180  0.51307253  1
  Li  Li80  1  0.40275896  0.63655335  0.61465520  1
  Li  Li81  1  0.07291443  0.55230329  0.54751430  1
  Li  Li82  1  0.20718572  0.09815213  0.57309102  1
  Li  Li83  1  0.33409979  0.44503338  0.58063277  1
  Li  Li84  1  0.40968918  0.35504923  0.49793748  1
  Li  Li85  1  0.79644496  0.45814546  0.59277610  1
  Li  Li86  1  0.64249907  0.03645484  0.55246957  1
  Li  Li87  1  0.99480462  0.12717853  0.62284102  1
  Li  Li88  1  0.94255881  0.62199801  0.60904080  1
  Li  Li89  1  0.87989628  0.94609966  0.60776144  1
  Li  Li90  1  0.18195668  0.77092287  0.57126478  1
  Li  Li91  1  0.92486206  0.68307303  0.50584704  1
  Li  Li92  1  0.24016462  0.29505084  0.58306434  1
  Li  Li93  1  0.79061323  0.26713812  0.57540937  1
  Li  Li94  1  0.39133652  0.68558861  0.51663320  1
  Li  Li95  1  0.73379739  0.75657892  0.58332210  1
  Li  Li96  1  0.03722366  0.07972274  0.73733962  1
  Li  Li97  1  0.70994780  0.01409339  0.66496402  1
  Li  Li98  1  0.05800363  0.76718925  0.75801872  1
  Li  Li99  1  0.72761795  0.69543844  0.68527758  1
  Li  Li100  1  0.46269539  0.13830408  0.62633978  1
  Li  Li101  1  0.79559567  0.21568771  0.70336122  1
  Li  Li102  1  0.97440436  0.57243492  0.72678889  1
  Li  Li103  1  0.64479020  0.49320121  0.65429282  1
  Li  Li104  1  0.12850320  0.50193382  0.66445467  1
  Li  Li105  1  0.45353843  0.58230586  0.73517245  1
  Li  Li106  1  0.32583616  0.21131876  0.69376094  1
  Li  Li107  1  0.65409137  0.26217110  0.76593882  1
  Li  Li108  1  0.26405074  0.68398534  0.67806421  1
  Li  Li109  1  0.59912257  0.75220226  0.75006425  1
  Li  Li110  1  0.21070146  0.02233991  0.67923528  1
  Li  Li111  1  0.52722885  0.08355305  0.74965482  1
  Li  Li112  1  0.84465949  0.89918546  0.71628365  1
  Li  Li113  1  0.52681543  0.82582396  0.64061907  1
  Li  Li114  1  0.88682252  0.40585555  0.72588701  1
  Li  Li115  1  0.56100817  0.29684431  0.62920810  1
  Li  Li116  1  0.02563574  0.31904507  0.64779534  1
  Li  Li117  1  0.42664643  0.39295171  0.71031550  1
  Li  Li118  1  0.06804052  0.82927202  0.65624946  1
  Li  Li119  1  0.39793182  0.89163472  0.72580903  1
  Li  Li120  1  0.69929431  0.19874583  0.87874028  1
  Li  Li121  1  0.36904764  0.14963855  0.80941955  1
  Li  Li122  1  0.70379133  0.94535914  0.90910655  1
  Li  Li123  1  0.38699770  0.82385624  0.82792233  1
  Li  Li124  1  0.13101309  0.27062282  0.77511459  1
  Li  Li125  1  0.45754869  0.35227563  0.84634120  1
  Li  Li126  1  0.64217406  0.70672603  0.87559914  1
  Li  Li127  1  0.30710046  0.62448715  0.79814705  1
  Li  Li128  1  0.78233052  0.63234849  0.80894931  1
  Li  Li129  1  0.11513736  0.71663126  0.88015382  1
  Li  Li130  1  0.97737451  0.34394111  0.83563412  1
  Li  Li131  1  0.31254617  0.37955262  0.90750278  1
  Li  Li132  1  0.91295655  0.80944253  0.82102837  1
  Li  Li133  1  0.24832432  0.89428318  0.89417544  1
  Li  Li134  1  0.86251512  0.15622309  0.82139182  1
  Li  Li135  1  0.17253143  0.21485668  0.89144106  1
  Li  Li136  1  0.49748805  0.02848186  0.85787128  1
  Li  Li137  1  0.18170734  0.96091427  0.78606106  1
  Li  Li138  1  0.54886978  0.54364119  0.87182650  1
  Li  Li139  1  0.21846124  0.43724217  0.77458475  1
  Li  Li140  1  0.67736265  0.45430434  0.79183977  1
  Li  Li141  1  0.07996167  0.52633534  0.85656660  1
  Li  Li142  1  0.72030805  0.95932732  0.80141172  1
  Li  Li143  1  0.05112492  0.01545226  0.85922896  1
  Li  Li144  1  0.01120624  0.29172071  0.95183650  1
  Li  Li145  1  0.04161458  0.95350120  0.96800466  1
  Li  Li146  1  0.72974040  0.38429042  0.92967959  1
  Li  Li147  1  0.89507576  0.73670540  0.92932583  1
  Li  Li148  1  0.45176352  0.80132043  0.94824080  1
  Li  Li149  1  0.75469319  0.42184108  0.00265441  1
  Li  Li150  1  0.01027765  0.11969326  0.01577636  1
  Li  Li151  1  0.90915895  0.06983587  0.92361445  1
  Li  Li152  1  0.86284817  0.53509480  0.92103603  1
  Li  Li153  1  0.30527406  0.57319516  0.92746436  1
  Li  Li154  1  0.37229849  0.11048762  0.94530450  1
  Li  Li155  1  0.57877582  0.23280624  0.96225716  1
  P  P156  1  0.78618382  0.89138548  0.05214831  1
  P  P157  1  0.44603997  0.82685615  0.12408682  1
  P  P158  1  0.45668343  0.10034479  0.01841062  1
  P  P159  1  0.11305035  0.04256843  0.08631938  1
  P  P160  1  0.22821054  0.55575010  0.05859683  1
  P  P161  1  0.66535984  0.37666236  0.07803186  1
  P  P162  1  0.11917275  0.76337951  0.19412290  1
  P  P163  1  0.78927959  0.69979368  0.26783245  1
  P  P164  1  0.78365959  0.97502261  0.16081261  1
  P  P165  1  0.45271347  0.91055907  0.23110210  1
  P  P166  1  0.55983033  0.42822158  0.21037079  1
  P  P167  1  0.88532354  0.49849721  0.13640251  1
  P  P168  1  0.33387686  0.30887730  0.14588686  1
  P  P169  1  0.01346508  0.24371749  0.22009705  1
  P  P170  1  0.46063312  0.63469342  0.33718034  1
  P  P171  1  0.12949174  0.57468832  0.40765206  1
  P  P172  1  0.12297053  0.84881960  0.30337982  1
  P  P173  1  0.79444312  0.78903091  0.37348394  1
  P  P174  1  0.90355825  0.30013384  0.35464824  1
  P  P175  1  0.22714172  0.36520642  0.27957990  1
  P  P176  1  0.67847194  0.18080396  0.29049641  1
  P  P177  1  0.35489012  0.10943709  0.36449774  1
  P  P178  1  0.82725094  0.49692191  0.47326638  1
  P  P179  1  0.48319989  0.69598962  0.44570486  1
  P  P180  1  0.57056301  0.24005074  0.42636001  1
  P  P181  1  0.01855411  0.06071170  0.44153319  1
  P  P182  1  0.89065794  0.83257023  0.55282019  1
  P  P183  1  0.23024438  0.89808171  0.62428092  1
  P  P184  1  0.21727432  0.62362545  0.51877958  1
  P  P185  1  0.56215733  0.68171846  0.58635077  1
  P  P186  1  0.44759995  0.17021929  0.55880148  1
  P  P187  1  0.00901375  0.34544919  0.57863000  1
  P  P188  1  0.55572985  0.96153595  0.69444159  1
  P  P189  1  0.88494703  0.02542146  0.76861495  1
  P  P190  1  0.89286198  0.74896068  0.66149162  1
  P  P191  1  0.22217151  0.81486336  0.73140217  1
  P  P192  1  0.11418599  0.29714518  0.71088599  1
  P  P193  1  0.78829524  0.22523705  0.63752071  1
  P  P194  1  0.33994468  0.41589919  0.64611001  1
  P  P195  1  0.66052081  0.48180782  0.72062782  1
  P  P196  1  0.21401634  0.09212388  0.83721787  1
  P  P197  1  0.54196063  0.14651169  0.90752048  1
  P  P198  1  0.55059725  0.87692893  0.80352273  1
  P  P199  1  0.88459762  0.93527806  0.87371454  1
  P  P200  1  0.76966873  0.42565740  0.85568074  1
  P  P201  1  0.44612368  0.36110162  0.77979645  1
  P  P202  1  0.99375330  0.54496450  0.79109193  1
  P  P203  1  0.31977331  0.61582535  0.86454274  1
  P  P204  1  0.84888162  0.22739434  0.97167501  1
  P  P205  1  0.18801412  0.02921825  0.94710712  1
  P  P206  1  0.10604165  0.48558181  0.92676704  1
  P  P207  1  0.65673760  0.66530456  0.94285470  1
  S  S208  1  0.90767743  0.81523191  0.07596051  1
  S  S209  1  0.32980211  0.18176709  0.99796903  1
  S  S210  1  0.97920707  0.11730300  0.06829927  1
  S  S211  1  0.17711692  0.64807384  0.02516327  1
  S  S212  1  0.82844347  0.59793866  0.10286636  1
  S  S213  1  0.72376536  0.27434308  0.11077147  1
  S  S214  1  0.24132098  0.26630673  0.12076451  1
  S  S215  1  0.57196488  0.34711822  0.05121248  1
  S  S216  1  0.31881028  0.60023586  0.08654319  1
  S  S217  1  0.46270607  0.13531869  0.06167116  1
  S  S218  1  0.80366379  0.86131519  0.00862313  1
  S  S219  1  0.44646567  0.79989615  0.07999451  1
  S  S220  1  0.12693508  0.89599659  0.08338393  1
  S  S221  1  0.46094968  0.95707492  0.01675201  1
  S  S222  1  0.43660991  0.97338829  0.12719288  1
  S  S223  1  0.76691361  0.04078263  0.05793122  1
  S  S224  1  0.58786447  0.50586849  0.10011845  1
  S  S225  1  0.31275051  0.41494990  0.04495192  1
  S  S226  1  0.96790708  0.36542490  0.11591287  1
  S  S227  1  0.67725404  0.85078240  0.06781421  1
  S  S228  1  0.21667175  0.08070713  0.06668537  1
  S  S229  1  0.57427269  0.11384518  0.99804641  1
  S  S230  1  0.11649360  0.55549345  0.08549154  1
  S  S231  1  0.44872747  0.30648965  0.12120011  1
  S  S232  1  0.78045287  0.38186197  0.05400610  1
  S  S233  1  0.24950039  0.68058886  0.21271964  1
  S  S234  1  0.57264271  0.74653851  0.14502462  1
  S  S235  1  0.64671648  0.05194383  0.14587361  1
  S  S236  1  0.31871638  0.98398264  0.21389726  1
  S  S237  1  0.50573636  0.51992140  0.17554372  1
  S  S238  1  0.17085352  0.46380042  0.24600547  1
  S  S239  1  0.38725495  0.21947335  0.18135226  1
  S  S240  1  0.06751993  0.14507054  0.25384973  1
  S  S241  1  0.59055887  0.13661607  0.26378872  1
  S  S242  1  0.92235027  0.20755471  0.19288181  1
  S  S243  1  0.65002464  0.47079328  0.23663601  1
  S  S244  1  0.98090882  0.53324024  0.16192756  1
  S  S245  1  0.80601589  0.99839594  0.20392975  1
  S  S246  1  0.11820741  0.07219883  0.13031887  1
  S  S247  1  0.11017395  0.74219005  0.15011337  1
  S  S248  1  0.78586851  0.67331215  0.22401342  1
  S  S249  1  0.46959606  0.76145884  0.22957533  1
  S  S250  1  0.79729650  0.82673440  0.15817470  1
  S  S251  1  0.77924338  0.84657108  0.27078387  1
  S  S252  1  0.10786037  0.91005793  0.19872296  1
  S  S253  1  0.25025775  0.44715537  0.16247142  1
  S  S254  1  0.92866638  0.37609123  0.23967500  1
  S  S255  1  0.64685901  0.29378837  0.19214468  1
  S  S256  1  0.31193123  0.23245950  0.26006177  1
  S  S257  1  0.33831411  0.79327315  0.14341516  1
  S  S258  1  0.01572664  0.72601452  0.21502654  1
  S  S259  1  0.55226581  0.94874339  0.20834975  1
  S  S260  1  0.88104300  0.01374388  0.13718221  1
  S  S261  1  0.44641291  0.42302485  0.23456806  1
  S  S262  1  0.77628443  0.49101401  0.16192677  1
  S  S263  1  0.79269523  0.18657317  0.26680501  1
  S  S264  1  0.12585801  0.25002016  0.19556932  1
  S  S265  1  0.59484680  0.55198599  0.35328637  1
  S  S266  1  0.91724215  0.61845076  0.28787990  1
  S  S267  1  0.98676812  0.92496946  0.28802547  1
  S  S268  1  0.66102658  0.86216652  0.35600943  1
  S  S269  1  0.85406969  0.38896962  0.31866716  1
  S  S270  1  0.52262667  0.33284158  0.39079447  1
  S  S271  1  0.73310589  0.08929423  0.32552519  1
  S  S272  1  0.40520361  0.00890320  0.39848756  1
  S  S273  1  0.92784544  0.01248918  0.41503078  1
  S  S274  1  0.26115862  0.07743739  0.33764222  1
  S  S275  1  0.99800946  0.34418873  0.37894941  1
  S  S276  1  0.31961834  0.40186545  0.30619540  1
  S  S277  1  0.14259523  0.87474869  0.34666121  1
  S  S278  1  0.46752898  0.93954744  0.27439687  1
  S  S279  1  0.44473621  0.61781554  0.29346192  1
  S  S280  1  0.13240225  0.54437722  0.36386680  1
  S  S281  1  0.81053993  0.64052956  0.37082642  1
  S  S282  1  0.13926721  0.69998023  0.30086175  1
  S  S283  1  0.13170707  0.71415882  0.41280297  1
  S  S284  1  0.44867172  0.78192499  0.34233267  1
  S  S285  1  0.58983616  0.31395287  0.30868456  1
  S  S286  1  0.27616952  0.24312817  0.38498558  1
  S  S287  1  0.98988232  0.16203545  0.33787802  1
  S  S288  1  0.63560316  0.10084497  0.40794846  1
  S  S289  1  0.68269598  0.66632615  0.28821597  1
  S  S290  1  0.36066212  0.59625921  0.35941974  1
  S  S291  1  0.89639809  0.82751632  0.35253121  1
  S  S292  1  0.22082839  0.88683255  0.27971748  1
  S  S293  1  0.78690629  0.29977159  0.37710690  1
  S  S294  1  0.11701427  0.35663264  0.30474408  1
  S  S295  1  0.12961618  0.05820895  0.41412288  1
  S  S296  1  0.46821427  0.11344916  0.34035022  1
  S  S297  1  0.96954309  0.42015254  0.48189604  1
  S  S298  1  0.24533732  0.47924473  0.43076910  1
  S  S299  1  0.34278850  0.76847866  0.43264018  1
  S  S300  1  0.08141945  0.96948581  0.47506213  1
  S  S301  1  0.66933578  0.26536601  0.45193327  1
  S  S302  1  0.50764395  0.73037387  0.48803851  1
  S  S303  1  0.80423947  0.81727651  0.41745027  1
  S  S304  1  0.79618666  0.48587337  0.43048161  1
  S  S305  1  0.50218628  0.54900492  0.44180786  1
  S  S306  1  0.79233590  0.64628750  0.48366237  1
  S  S307  1  0.93327301  0.19991091  0.45506240  1
  S  S308  1  0.01131440  0.55517973  0.42530061  1
  S  S309  1  0.74429263  0.43806595  0.49723551  1
  S  S310  1  0.57115732  0.74417077  0.41999320  1
  S  S311  1  0.44947478  0.25090432  0.45094733  1
  S  S312  1  0.76804558  0.90830948  0.57626799  1
  S  S313  1  0.34537456  0.54350533  0.49877326  1
  S  S314  1  0.69601587  0.60705245  0.56838825  1
  S  S315  1  0.49867263  0.07910084  0.52514651  1
  S  S316  1  0.84442792  0.12563273  0.60393817  1
  S  S317  1  0.95077141  0.44890427  0.61113505  1
  S  S318  1  0.43268228  0.45784548  0.62094254  1
  S  S319  1  0.10312142  0.37402104  0.55181042  1
  S  S320  1  0.35662677  0.12532148  0.58653759  1
  S  S321  1  0.21093325  0.59170843  0.56230233  1
  S  S322  1  0.87407723  0.86071537  0.50920702  1
  S  S323  1  0.23051709  0.92514932  0.58023210  1
  S  S324  1  0.54918762  0.82811796  0.58397693  1
  S  S325  1  0.20994959  0.76790412  0.51637733  1
  S  S326  1  0.23896960  0.75185075  0.62738680  1
  S  S327  1  0.91130414  0.68322594  0.55924498  1
  S  S328  1  0.08525669  0.21620931  0.60078598  1
  S  S329  1  0.36274693  0.31149551  0.54544631  1
  S  S330  1  0.70619059  0.35846053  0.61702498  1
  S  S331  1  0.99766315  0.87629059  0.56856717  1
  S  S332  1  0.45892721  0.64437216  0.56607876  1
  S  S333  1  0.10279641  0.60271119  0.49859242  1
  S  S334  1  0.55914910  0.16942876  0.58587331  1
  S  S335  1  0.22479503  0.41845956  0.62154097  1
  S  S336  1  0.89340729  0.34078811  0.55465498  1
  S  S337  1  0.42506790  0.04439509  0.71289174  1
  S  S338  1  0.10387223  0.97869053  0.64533782  1
  S  S339  1  0.03010708  0.67286084  0.64674554  1
  S  S340  1  0.35565409  0.74129089  0.71392602  1
  S  S341  1  0.16933443  0.20536142  0.67616127  1
  S  S342  1  0.50231581  0.26269982  0.74615710  1
  S  S343  1  0.28662650  0.50558982  0.68156655  1
  S  S344  1  0.60571731  0.58044504  0.75434339  1
  S  S345  1  0.08131071  0.59036422  0.76457359  1
  S  S346  1  0.75204053  0.51817613  0.69363046  1
  S  S347  1  0.02451456  0.25398046  0.73721820  1
  S  S348  1  0.69317611  0.19025303  0.66313175  1
  S  S349  1  0.86970456  0.72580538  0.70456335  1
  S  S350  1  0.55551096  0.65111713  0.63025366  1
  S  S351  1  0.56505986  0.98175402  0.65042102  1
  S  S352  1  0.88876335  0.05122174  0.72478089  1
  S  S353  1  0.20534556  0.96396729  0.72972591  1
  S  S354  1  0.87845470  0.89752233  0.65889775  1
  S  S355  1  0.89461609  0.87886511  0.77159238  1
  S  S356  1  0.56730723  0.81479614  0.69918921  1
  S  S357  1  0.42352431  0.27782495  0.66275878  1
  S  S358  1  0.74492604  0.34933883  0.74024703  1
  S  S359  1  0.02652513  0.43101628  0.69254992  1
  S  S360  1  0.36187846  0.49392346  0.76023206  1
  S  S361  1  0.33804125  0.93151871  0.64372537  1
  S  S362  1  0.65888400  0.99898561  0.71548454  1
  S  S363  1  0.12196510  0.77683521  0.70898235  1
  S  S364  1  0.79611521  0.70944117  0.63780505  1
  S  S365  1  0.22709833  0.30384987  0.73503744  1
  S  S366  1  0.89774584  0.23303362  0.66282353  1
  S  S367  1  0.88005492  0.53873754  0.76727738  1
  S  S368  1  0.54876211  0.47525940  0.69582091  1
  S  S369  1  0.07925196  0.17306220  0.85322277  1
  S  S370  1  0.75735427  0.10746769  0.78872881  1
  S  S371  1  0.68739125  0.80118385  0.78851227  1
  S  S372  1  0.01388673  0.86003474  0.85391696  1
  S  S373  1  0.81895622  0.33804225  0.81946488  1
  S  S374  1  0.15506055  0.39101723  0.89158898  1
  S  S375  1  0.93923224  0.63514967  0.82640319  1
  S  S376  1  0.26744771  0.71662557  0.89835969  1
  S  S377  1  0.74446539  0.71736128  0.91691790  1
  S  S378  1  0.41427698  0.64768309  0.83799267  1
  S  S379  1  0.67490300  0.38069997  0.87974454  1
  S  S380  1  0.35329926  0.32507029  0.80642192  1
  S  S381  1  0.53025357  0.85146189  0.84663785  1
  S  S382  1  0.20831627  0.78624702  0.77479026  1
  S  S383  1  0.23025524  0.10830043  0.79347685  1
  S  S384  1  0.54258057  0.18333351  0.86435842  1
  S  S385  1  0.87035154  0.08364424  0.87077901  1
  S  S386  1  0.53444649  0.02610398  0.80099005  1
  S  S387  1  0.52389091  0.01361085  0.91098083  1
  S  S388  1  0.22687876  0.94427081  0.84241535  1
  S  S389  1  0.08304883  0.41177918  0.80917155  1
  S  S390  1  0.39920496  0.48305611  0.88534844  1
  S  S391  1  0.68328771  0.56414732  0.83933689  1
  S  S392  1  0.03919430  0.62355581  0.90782953  1
  S  S393  1  0.99231432  0.05891679  0.78872939  1
  S  S394  1  0.31285050  0.13170991  0.85943837  1
  S  S395  1  0.77576566  0.90243520  0.85522072  1
  S  S396  1  0.45298972  0.83923737  0.77964682  1
  S  S397  1  0.88625860  0.42607280  0.87823899  1
  S  S398  1  0.55652375  0.36839024  0.80504576  1
  S  S399  1  0.54529034  0.66794429  0.91540121  1
  S  S400  1  0.20784667  0.60985029  0.84006967  1
  S  S401  1  0.70467623  0.30172226  0.97866074  1
  S  S402  1  0.43701111  0.25066682  0.93188121  1
  S  S403  1  0.32622558  0.95382552  0.93321214  1
  S  S404  1  0.59219490  0.75313972  0.97697757  1
  S  S405  1  0.00786818  0.46104491  0.95281438  1
  S  S406  1  0.16529198  0.99661227  0.98973975  1
  S  S407  1  0.88531673  0.90552585  0.91785564  1
  S  S408  1  0.88367342  0.24372867  0.92958758  1
  S  S409  1  0.17170668  0.17521721  0.94240308  1
  S  S410  1  0.88543783  0.07760463  0.98175452  1
  S  S411  1  0.74368453  0.52609715  0.95630202  1
  S  S412  1  0.67434437  0.12865458  0.92450156  1
  S  S413  1  0.92653804  0.28768238  0.99735845  1
  S  S414  1  0.09781583  0.98146600  0.92175298  1
  S  S415  1  0.22671044  0.47703339  0.95121193  1
