# generated using pymatgen
data_Li3PS4
_symmetry_space_group_name_H-M   'P 1'
_cell_length_a   14.91536200
_cell_length_b   14.48087041
_cell_length_c   46.02505441
_cell_angle_alpha   90.00000000
_cell_angle_beta   90.00000000
_cell_angle_gamma   68.72383501
_symmetry_Int_Tables_number   1
_chemical_formula_structural   Li3PS4
_chemical_formula_sum   'Li156 P52 S208'
_cell_volume   9263.28823749
_cell_formula_units_Z   52
loop_
 _symmetry_equiv_pos_site_id
 _symmetry_equiv_pos_as_xyz
  1  'x, y, z'
loop_
 _atom_site_type_symbol
 _atom_site_label
 _atom_site_symmetry_multiplicity
 _atom_site_fract_x
 _atom_site_fract_y
 _atom_site_fract_z
 _atom_site_occupancy
  Li  Li0  1  0.28018759  0.71404262  0.09657944  1
  Li  Li1  1  0.60773688  0.78148264  0.03539010  1
  Li  Li2  1  0.26721815  0.01813731  0.12427270  1
  Li  Li3  1  0.58172708  0.10248346  0.04932279  1
  Li  Li4  1  0.21470958  0.51510875  0.12654932  1
  Li  Li5  1  0.46777857  0.54783273  0.07074073  1
  Li  Li6  1  0.29530126  0.19206864  0.06972610  1
  Li  Li7  1  0.33473946  0.23661409  0.99680205  1
  Li  Li8  1  0.88135337  0.19364281  0.09312880  1
  Li  Li9  1  0.02281710  0.61493738  0.05408295  1
  Li  Li10  1  0.68942587  0.53175828  0.11895050  1
  Li  Li11  1  0.74559249  0.02584484  0.10798981  1
  Li  Li12  1  0.81931249  0.71515048  0.10674295  1
  Li  Li13  1  0.42382417  0.89643857  0.07588411  1
  Li  Li14  1  0.58672080  0.93011842  0.98466347  1
  Li  Li15  1  0.43317924  0.34249611  0.07978709  1
  Li  Li16  1  0.87178302  0.38827283  0.07253003  1
  Li  Li17  1  0.13724505  0.05969559  0.03564852  1
  Li  Li18  1  0.94205797  0.92560161  0.05373093  1
  Li  Li19  1  0.63300394  0.58225633  0.24137626  1
  Li  Li20  1  0.96438874  0.63328663  0.16992408  1
  Li  Li21  1  0.61625003  0.89069074  0.25935971  1
  Li  Li22  1  0.94454365  0.96618229  0.18875115  1
  Li  Li23  1  0.54801847  0.38893876  0.27362330  1
  Li  Li24  1  0.87747544  0.43865157  0.20184806  1
  Li  Li25  1  0.70512859  0.08438737  0.22546962  1
  Li  Li26  1  0.03122694  0.16638311  0.15365926  1
  Li  Li27  1  0.55202379  0.15329616  0.16514701  1
  Li  Li28  1  0.22615359  0.07741069  0.23498743  1
  Li  Li29  1  0.35437532  0.44736068  0.19249925  1
  Li  Li30  1  0.02680418  0.39497653  0.26458395  1
  Li  Li31  1  0.42303019  0.97290916  0.17950517  1
  Li  Li32  1  0.10192011  0.89615777  0.24992980  1
  Li  Li33  1  0.48802296  0.62185582  0.17946967  1
  Li  Li34  1  0.16600496  0.56715920  0.25061587  1
  Li  Li35  1  0.81670636  0.75684664  0.21630452  1
  Li  Li36  1  0.07211326  0.84085845  0.13987181  1
  Li  Li37  1  0.79164353  0.25029429  0.22567748  1
  Li  Li38  1  0.12115592  0.35577295  0.12920860  1
  Li  Li39  1  0.65088800  0.34222456  0.14332111  1
  Li  Li40  1  0.25150205  0.26734959  0.20895991  1
  Li  Li41  1  0.61504475  0.82926763  0.15262259  1
  Li  Li42  1  0.29377273  0.76931084  0.20055056  1
  Li  Li43  1  0.97668083  0.45187296  0.38486161  1
  Li  Li44  1  0.30018066  0.50958553  0.31496799  1
  Li  Li45  1  0.95992800  0.75399645  0.40898241  1
  Li  Li46  1  0.28354125  0.82917242  0.33517013  1
  Li  Li47  1  0.90811426  0.25967441  0.41919447  1
  Li  Li48  1  0.21843216  0.30706906  0.34619884  1
  Li  Li49  1  0.03425709  0.95335235  0.37351874  1
  Li  Li50  1  0.37152023  0.02870129  0.29643983  1
  Li  Li51  1  0.90003674  0.02569068  0.30590965  1
  Li  Li52  1  0.56935494  0.94164681  0.37713050  1
  Li  Li53  1  0.70207613  0.31612258  0.33541137  1
  Li  Li54  1  0.36962734  0.27288223  0.40765118  1
  Li  Li55  1  0.78414636  0.83787387  0.32128001  1
  Li  Li56  1  0.45342286  0.76050745  0.39223616  1
  Li  Li57  1  0.83588486  0.49783509  0.32225364  1
  Li  Li58  1  0.51495045  0.43723743  0.39085851  1
  Li  Li59  1  0.10138092  0.64265076  0.36009991  1
  Li  Li60  1  0.41897060  0.71535845  0.28368339  1
  Li  Li61  1  0.13434501  0.11066055  0.37074954  1
  Li  Li62  1  0.46145446  0.22174234  0.27410531  1
  Li  Li63  1  0.00123324  0.20558793  0.28998354  1
  Li  Li64  1  0.59794693  0.13337841  0.35199692  1
  Li  Li65  1  0.97062580  0.70295555  0.27776977  1
  Li  Li66  1  0.64126378  0.64299153  0.34394003  1
  Li  Li67  1  0.64864143  0.36818240  0.45194019  1
  Li  Li68  1  0.60864933  0.68604573  0.48702275  1
  Li  Li69  1  0.77878243  0.91413417  0.42747344  1
  Li  Li70  1  0.21456774  0.85098505  0.44779313  1
  Li  Li71  1  0.98432411  0.16874234  0.50182584  1
  Li  Li72  1  0.50253692  0.49680287  0.49434428  1
  Li  Li73  1  0.75471963  0.58511584  0.42924024  1
  Li  Li74  1  0.81302806  0.10959210  0.41655144  1
  Li  Li75  1  0.36515458  0.08080290  0.42474626  1
  Li  Li76  1  0.30721605  0.57164709  0.41734548  1
  Li  Li77  1  0.96836705  0.49805576  0.48341515  1
  Li  Li78  1  0.54429631  0.63698615  0.59651794  1
  Li  Li79  1  0.21848625  0.56894313  0.53538036  1
  Li  Li80  1  0.55724323  0.33349983  0.62482027  1
  Li  Li81  1  0.24298363  0.24757296  0.54972503  1
  Li  Li82  1  0.61066609  0.83525744  0.62618129  1
  Li  Li83  1  0.35654512  0.80309295  0.57068914  1
  Li  Li84  1  0.52815985  0.15763267  0.56963107  1
  Li  Li85  1  0.48844350  0.11404268  0.49660881  1
  Li  Li86  1  0.94386647  0.15824665  0.59337073  1
  Li  Li87  1  0.80187846  0.73594941  0.55377349  1
  Li  Li88  1  0.13552824  0.81953050  0.62004168  1
  Li  Li89  1  0.08050503  0.32259511  0.60812240  1
  Li  Li90  1  0.00195605  0.63926321  0.60658511  1
  Li  Li91  1  0.40366040  0.45326784  0.57503198  1
  Li  Li92  1  0.23791005  0.42009631  0.48461658  1
  Li  Li93  1  0.39191145  0.00688278  0.57997275  1
  Li  Li94  1  0.95451032  0.96312193  0.57344839  1
  Li  Li95  1  0.68735027  0.28901680  0.53568004  1
  Li  Li96  1  0.88414241  0.42462819  0.55380133  1
  Li  Li97  1  0.19233065  0.76767354  0.74185102  1
  Li  Li98  1  0.86168088  0.71588444  0.67073265  1
  Li  Li99  1  0.21202639  0.45875209  0.76005144  1
  Li  Li100  1  0.88040885  0.38390850  0.68843136  1
  Li  Li101  1  0.27613867  0.96299110  0.77343820  1
  Li  Li102  1  0.94645715  0.91246344  0.70208711  1
  Li  Li103  1  0.12165159  0.26551825  0.72537757  1
  Li  Li104  1  0.79440838  0.18401664  0.65368372  1
  Li  Li105  1  0.27393064  0.19615137  0.66525227  1
  Li  Li106  1  0.59771868  0.27299436  0.73402448  1
  Li  Li107  1  0.47150440  0.90334671  0.69220728  1
  Li  Li108  1  0.79952161  0.95415456  0.76490719  1
  Li  Li109  1  0.39554911  0.38031246  0.67906532  1
  Li  Li110  1  0.72248544  0.45418132  0.74983015  1
  Li  Li111  1  0.33698070  0.72785190  0.67945413  1
  Li  Li112  1  0.65858487  0.78354158  0.75014771  1
  Li  Li113  1  0.02909855  0.58650431  0.71549015  1
  Li  Li114  1  0.75172198  0.51050197  0.64009996  1
  Li  Li115  1  0.03413882  0.10031611  0.72562570  1
  Li  Li116  1  0.70300070  0.99563413  0.62963017  1
  Li  Li117  1  0.17389515  0.01027170  0.64400267  1
  Li  Li118  1  0.57364950  0.08319186  0.70854952  1
  Li  Li119  1  0.20477337  0.52167366  0.64499121  1
  Li  Li120  1  0.53143122  0.58079661  0.70086739  1
  Li  Li121  1  0.84815158  0.89594325  0.88466525  1
  Li  Li122  1  0.52353106  0.84029407  0.81464604  1
  Li  Li123  1  0.86450967  0.59384035  0.90776482  1
  Li  Li124  1  0.54043780  0.52081975  0.83500637  1
  Li  Li125  1  0.91607334  0.09012516  0.91880315  1
  Li  Li126  1  0.60769636  0.04160968  0.84583178  1
  Li  Li127  1  0.78954084  0.39597638  0.87318095  1
  Li  Li128  1  0.45507590  0.32051291  0.79650697  1
  Li  Li129  1  0.92670994  0.32457222  0.80657981  1
  Li  Li130  1  0.25676454  0.40728625  0.87622923  1
  Li  Li131  1  0.12365835  0.03295893  0.83532073  1
  Li  Li132  1  0.45550032  0.07447490  0.90740293  1
  Li  Li133  1  0.04170613  0.51176058  0.82067889  1
  Li  Li134  1  0.36974835  0.58853125  0.89232927  1
  Li  Li135  1  0.98771313  0.85224522  0.82206991  1
  Li  Li136  1  0.31028262  0.91139443  0.89109874  1
  Li  Li137  1  0.72284509  0.70570163  0.85999775  1
  Li  Li138  1  0.40487907  0.63639650  0.78357893  1
  Li  Li139  1  0.69111054  0.23722832  0.87060935  1
  Li  Li140  1  0.36495111  0.12911782  0.77420143  1
  Li  Li141  1  0.82426744  0.14518962  0.78957542  1
  Li  Li142  1  0.22878574  0.21573706  0.85196848  1
  Li  Li143  1  0.85305814  0.64523055  0.77594063  1
  Li  Li144  1  0.18192523  0.70798654  0.84418301  1
  Li  Li145  1  0.17714335  0.98267923  0.95222059  1
  Li  Li146  1  0.21714565  0.66323141  0.98699864  1
  Li  Li147  1  0.04489652  0.43641504  0.92652497  1
  Li  Li148  1  0.60871206  0.49737405  0.94731932  1
  Li  Li149  1  0.84016850  0.18147899  0.00173851  1
  Li  Li150  1  0.32422039  0.85226034  0.99434882  1
  Li  Li151  1  0.06918814  0.76406762  0.92902225  1
  Li  Li152  1  0.01027614  0.24035464  0.91661483  1
  Li  Li153  1  0.45978730  0.26600373  0.92419381  1
  Li  Li154  1  0.51846820  0.77665047  0.91668360  1
  Li  Li155  1  0.85735410  0.85109751  0.98317758  1
  P  P156  1  0.76226576  0.84389173  0.05364045  1
  P  P157  1  0.45239114  0.74922344  0.12722627  1
  P  P158  1  0.41934088  0.04202360  0.02700456  1
  P  P159  1  0.11826740  0.96459512  0.09224571  1
  P  P160  1  0.22774763  0.47925204  0.05917990  1
  P  P161  1  0.67628722  0.29873466  0.07346596  1
  P  P162  1  0.12060097  0.69262038  0.19638284  1
  P  P163  1  0.79767834  0.62734474  0.26897715  1
  P  P164  1  0.78940292  0.90471765  0.16313313  1
  P  P165  1  0.45607645  0.84015450  0.23092413  1
  P  P166  1  0.56735130  0.35908423  0.20935043  1
  P  P167  1  0.89220089  0.42952521  0.13516088  1
  P  P168  1  0.34327132  0.23929218  0.14550302  1
  P  P169  1  0.01898738  0.17531806  0.22004773  1
  P  P170  1  0.46529471  0.56427746  0.33848548  1
  P  P171  1  0.13543427  0.49704126  0.41380331  1
  P  P172  1  0.12916284  0.77647363  0.30554733  1
  P  P173  1  0.80267639  0.71218421  0.37581946  1
  P  P174  1  0.91341564  0.23037864  0.35376978  1
  P  P175  1  0.23413723  0.29560491  0.27981648  1
  P  P176  1  0.68837613  0.11084451  0.28917113  1
  P  P177  1  0.36243464  0.03987369  0.36254633  1
  P  P178  1  0.79344745  0.43715047  0.48120716  1
  P  P179  1  0.46480484  0.64710695  0.44752150  1
  P  P180  1  0.58267401  0.16056915  0.42122025  1
  P  P181  1  0.02026925  0.98442110  0.44096897  1
  P  P182  1  0.06213269  0.50768052  0.55404807  1
  P  P183  1  0.37230611  0.60143151  0.62680112  1
  P  P184  1  0.40513655  0.30838483  0.52691394  1
  P  P185  1  0.70681422  0.38619862  0.59225066  1
  P  P186  1  0.59666959  0.87167732  0.55884797  1
  P  P187  1  0.14866746  0.05147945  0.57364101  1
  P  P188  1  0.70346770  0.65833253  0.69625034  1
  P  P189  1  0.02784522  0.72188779  0.76893458  1
  P  P190  1  0.03613371  0.44498563  0.66276870  1
  P  P191  1  0.36829693  0.51084956  0.73096337  1
  P  P192  1  0.25868740  0.99116773  0.70925053  1
  P  P193  1  0.93267144  0.92144375  0.63566500  1
  P  P194  1  0.48181363  0.11200503  0.64525353  1
  P  P195  1  0.80583185  0.17467053  0.71986533  1
  P  P196  1  0.35835159  0.78594198  0.83860072  1
  P  P197  1  0.68953085  0.85137767  0.91365185  1
  P  P198  1  0.69527732  0.57376085  0.80521705  1
  P  P199  1  0.02224019  0.63654275  0.87536425  1
  P  P200  1  0.91161548  0.11852296  0.85338670  1
  P  P201  1  0.59151415  0.05416592  0.77938786  1
  P  P202  1  0.13748238  0.23906935  0.78919687  1
  P  P203  1  0.46355822  0.30881165  0.86237236  1
  P  P204  1  0.03221774  0.91239538  0.98104677  1
  P  P205  1  0.35993454  0.70252311  0.94737389  1
  P  P206  1  0.24207965  0.18902373  0.92119240  1
  P  P207  1  0.80380841  0.36535611  0.94064321  1
  S  S208  1  0.90215178  0.77120800  0.06728953  1
  S  S209  1  0.27711277  0.11923880  0.01821962  1
  S  S210  1  0.00318180  0.06057131  0.06896584  1
  S  S211  1  0.16515410  0.57344321  0.02629070  1
  S  S212  1  0.84224132  0.53179747  0.10165895  1
  S  S213  1  0.72386592  0.20526949  0.10886355  1
  S  S214  1  0.24858760  0.19545688  0.12121515  1
  S  S215  1  0.57668084  0.27440427  0.04799312  1
  S  S216  1  0.32002509  0.52495693  0.08573242  1
  S  S217  1  0.45020284  0.05480827  0.06968225  1
  S  S218  1  0.11444836  0.99587630  0.13596945  1
  S  S219  1  0.73903667  0.80843435  0.01125347  1
  S  S220  1  0.44470541  0.72084557  0.08329725  1
  S  S221  1  0.11502161  0.82548652  0.08710549  1
  S  S222  1  0.45422318  0.89240551  0.01701694  1
  S  S223  1  0.43760815  0.89716749  0.13035973  1
  S  S224  1  0.74576373  0.99110795  0.05694058  1
  S  S225  1  0.61280686  0.43814718  0.09191274  1
  S  S226  1  0.31016866  0.33970710  0.04513443  1
  S  S227  1  0.97018896  0.29662179  0.11426058  1
  S  S228  1  0.67245330  0.80275544  0.07995535  1
  S  S229  1  0.23795811  0.98153660  0.07487601  1
  S  S230  1  0.50270804  0.09961546  0.00277612  1
  S  S231  1  0.11657718  0.48261968  0.08670502  1
  S  S232  1  0.46022271  0.23924502  0.12320799  1
  S  S233  1  0.79711037  0.28781128  0.04875076  1
  S  S234  1  0.25507687  0.61484579  0.21265309  1
  S  S235  1  0.58435179  0.67262101  0.14534386  1
  S  S236  1  0.65408459  0.98384973  0.14764525  1
  S  S237  1  0.32444896  0.92052872  0.21270441  1
  S  S238  1  0.51144870  0.44881263  0.17414904  1
  S  S239  1  0.17963943  0.39398011  0.24601579  1
  S  S240  1  0.39250295  0.15071693  0.18150961  1
  S  S241  1  0.07381750  0.07646736  0.25366349  1
  S  S242  1  0.59828682  0.06753105  0.26307967  1
  S  S243  1  0.92612762  0.14083149  0.19313083  1
  S  S244  1  0.65532276  0.40511375  0.23557245  1
  S  S245  1  0.98716187  0.45873043  0.16228140  1
  S  S246  1  0.80876632  0.92585676  0.20650363  1
  S  S247  1  0.46616953  0.86570749  0.27446501  1
  S  S248  1  0.10443538  0.66536067  0.15308253  1
  S  S249  1  0.78518325  0.60117718  0.22547578  1
  S  S250  1  0.46709055  0.69279308  0.22858260  1
  S  S251  1  0.80280480  0.75639150  0.15932553  1
  S  S252  1  0.78325789  0.77616504  0.27095730  1
  S  S253  1  0.10660460  0.84034829  0.19882193  1
  S  S254  1  0.25667696  0.37710326  0.16235418  1
  S  S255  1  0.93479898  0.30786771  0.23966372  1
  S  S256  1  0.65611565  0.22555920  0.19146153  1
  S  S257  1  0.31863388  0.16337750  0.26011223  1
  S  S258  1  0.34811621  0.71212804  0.14745065  1
  S  S259  1  0.02034697  0.65573631  0.21975122  1
  S  S260  1  0.56096005  0.87330414  0.20953433  1
  S  S261  1  0.88689832  0.94276934  0.13959862  1
  S  S262  1  0.45379312  0.35390504  0.23352593  1
  S  S263  1  0.77939100  0.42488281  0.15943401  1
  S  S264  1  0.80137144  0.11744132  0.26502472  1
  S  S265  1  0.13031569  0.18224116  0.19521433  1
  S  S266  1  0.60269083  0.48703155  0.35298791  1
  S  S267  1  0.93022442  0.55194334  0.28689591  1
  S  S268  1  0.99882158  0.85839790  0.28687921  1
  S  S269  1  0.67694394  0.79281065  0.35451592  1
  S  S270  1  0.86009356  0.31946393  0.31825405  1
  S  S271  1  0.52348167  0.26393329  0.38880989  1
  S  S272  1  0.74373815  0.01991083  0.32399904  1
  S  S273  1  0.41878712  0.93996358  0.39600899  1
  S  S274  1  0.92914696  0.93916454  0.41348521  1
  S  S275  1  0.26744853  0.00505604  0.33687733  1
  S  S276  1  0.00628785  0.27266566  0.37877642  1
  S  S277  1  0.32550832  0.33209400  0.30678033  1
  S  S278  1  0.13847653  0.79764361  0.34947060  1
  S  S279  1  0.80128441  0.74056782  0.41979611  1
  S  S280  1  0.44125385  0.54172279  0.29551317  1
  S  S281  1  0.13002630  0.46671750  0.36989778  1
  S  S282  1  0.81142022  0.56597732  0.37284937  1
  S  S283  1  0.13997176  0.62948958  0.30130140  1
  S  S284  1  0.12235387  0.64356282  0.41635252  1
  S  S285  1  0.45215978  0.71252192  0.34110147  1
  S  S286  1  0.60064349  0.24494373  0.30737681  1
  S  S287  1  0.28026105  0.17261789  0.38325843  1
  S  S288  1  0.99721496  0.09204326  0.33724143  1
  S  S289  1  0.65943492  0.03158076  0.39904300  1
  S  S290  1  0.69553482  0.59125534  0.29081712  1
  S  S291  1  0.36849311  0.52575932  0.36238590  1
  S  S292  1  0.91118688  0.74510984  0.35666456  1
  S  S293  1  0.23250694  0.81309782  0.28442032  1
  S  S294  1  0.79829595  0.23310616  0.37830888  1
  S  S295  1  0.12212104  0.28917979  0.30443261  1
  S  S296  1  0.13207232  0.98258064  0.41390432  1
  S  S297  1  0.47177721  0.04769784  0.33722236  1
  S  S298  1  0.92183930  0.35645315  0.50090236  1
  S  S299  1  0.26927035  0.42219382  0.43182992  1
  S  S300  1  0.34180892  0.72303351  0.42429025  1
  S  S301  1  0.07076607  0.89394994  0.47477752  1
  S  S302  1  0.67669832  0.18967915  0.44791130  1
  S  S303  1  0.44953787  0.67427440  0.49114484  1
  S  S304  1  0.78665775  0.40652741  0.43762242  1
  S  S305  1  0.48610460  0.49769606  0.44091151  1
  S  S306  1  0.78595350  0.58129526  0.48395580  1
  S  S307  1  0.93631249  0.12598528  0.45424487  1
  S  S308  1  0.03106224  0.46055095  0.43356377  1
  S  S309  1  0.67924276  0.41499781  0.50112822  1
  S  S310  1  0.57136217  0.69138219  0.43166854  1
  S  S311  1  0.46765753  0.15496889  0.44527207  1
  S  S312  1  0.92200507  0.57983687  0.56747052  1
  S  S313  1  0.54726171  0.23047422  0.51822647  1
  S  S314  1  0.82197236  0.29050509  0.56894090  1
  S  S315  1  0.65982968  0.77824362  0.52584375  1
  S  S316  1  0.98323772  0.81931088  0.60214868  1
  S  S317  1  0.10158360  0.14509889  0.60905205  1
  S  S318  1  0.57609761  0.15615498  0.62093660  1
  S  S319  1  0.24829860  0.07558127  0.54814752  1
  S  S320  1  0.50511952  0.82517048  0.58548249  1
  S  S321  1  0.37402904  0.29667978  0.56960702  1
  S  S322  1  0.71102263  0.35459922  0.63597445  1
  S  S323  1  0.08576785  0.54259830  0.51166448  1
  S  S324  1  0.38017926  0.62971642  0.58283207  1
  S  S325  1  0.70924300  0.52564570  0.58720499  1
  S  S326  1  0.37118132  0.45766004  0.51661187  1
  S  S327  1  0.38690291  0.45346511  0.62966287  1
  S  S328  1  0.07914821  0.36044247  0.55734309  1
  S  S329  1  0.21157375  0.91210877  0.59205095  1
  S  S330  1  0.51272850  0.01071909  0.54481517  1
  S  S331  1  0.85511527  0.05438071  0.61471046  1
  S  S332  1  0.15120906  0.55111997  0.58018958  1
  S  S333  1  0.58751924  0.36807774  0.57498489  1
  S  S334  1  0.32133734  0.25079929  0.50289523  1
  S  S335  1  0.70770743  0.86934897  0.58624939  1
  S  S336  1  0.36481439  0.11216402  0.62292482  1
  S  S337  1  0.02738696  0.06347561  0.54905905  1
  S  S338  1  0.56850677  0.73574159  0.71221280  1
  S  S339  1  0.24052711  0.67698573  0.64512196  1
  S  S340  1  0.17141848  0.36496238  0.64718176  1
  S  S341  1  0.49836780  0.43000688  0.71189636  1
  S  S342  1  0.31445236  0.90128481  0.67405792  1
  S  S343  1  0.64682033  0.95611694  0.74560678  1
  S  S344  1  0.43283982  0.20040828  0.68128408  1
  S  S345  1  0.74964418  0.27405262  0.75321485  1
  S  S346  1  0.22755842  0.28254813  0.76314058  1
  S  S347  1  0.89924019  0.20913067  0.69311514  1
  S  S348  1  0.17030168  0.94536988  0.73534027  1
  S  S349  1  0.83751220  0.89157501  0.66249165  1
  S  S350  1  0.01735799  0.42417127  0.70614015  1
  S  S351  1  0.36109707  0.48428130  0.77460642  1
  S  S352  1  0.72080275  0.68571277  0.65300516  1
  S  S353  1  0.04048907  0.75000080  0.72555057  1
  S  S354  1  0.35828916  0.65809675  0.72872163  1
  S  S355  1  0.02346991  0.59320267  0.65881916  1
  S  S356  1  0.04361071  0.57270026  0.77051909  1
  S  S357  1  0.71776524  0.51035810  0.69862050  1
  S  S358  1  0.56825490  0.97384938  0.66198192  1
  S  S359  1  0.89011575  0.04269694  0.73974120  1
  S  S360  1  0.16975432  0.12471834  0.69131702  1
  S  S361  1  0.50658839  0.18640699  0.75977452  1
  S  S362  1  0.47639606  0.63807152  0.64719389  1
  S  S363  1  0.80343159  0.69459203  0.71973894  1
  S  S364  1  0.26168640  0.48028945  0.70991141  1
  S  S365  1  0.93796105  0.40777263  0.63937407  1
  S  S366  1  0.37189580  0.99674594  0.73342049  1
  S  S367  1  0.04540445  0.92583124  0.66005379  1
  S  S368  1  0.02444836  0.23282897  0.76505806  1
  S  S369  1  0.69529776  0.16709779  0.69474528  1
  S  S370  1  0.22144115  0.86285629  0.85349123  1
  S  S371  1  0.89490209  0.79590012  0.78668143  1
  S  S372  1  0.82575083  0.49099676  0.78673962  1
  S  S373  1  0.14832921  0.55663131  0.85412873  1
  S  S374  1  0.96545292  0.02972346  0.81787606  1
  S  S375  1  0.30051555  0.08525404  0.88880577  1
  S  S376  1  0.08240046  0.32989215  0.82407135  1
  S  S377  1  0.40677773  0.40827854  0.89586807  1
  S  S378  1  0.89503516  0.40999780  0.91295327  1
  S  S379  1  0.55861479  0.34413731  0.83688383  1
  S  S380  1  0.81895623  0.07533979  0.87822838  1
  S  S381  1  0.50039517  0.01710660  0.80633549  1
  S  S382  1  0.68575472  0.55205818  0.84913712  1
  S  S383  1  0.02261077  0.60889544  0.91933853  1
  S  S384  1  0.38126744  0.80947302  0.79560802  1
  S  S385  1  0.69424979  0.88183629  0.86972004  1
  S  S386  1  0.01329066  0.78296596  0.87252348  1
  S  S387  1  0.68458348  0.72053651  0.80096696  1
  S  S388  1  0.70317229  0.70469543  0.91611856  1
  S  S389  1  0.37185177  0.63767728  0.84114813  1
  S  S390  1  0.22512911  0.10495461  0.80738500  1
  S  S391  1  0.54527916  0.17549735  0.88286680  1
  S  S392  1  0.82775949  0.25690284  0.83687461  1
  S  S393  1  0.16676643  0.31832608  0.89896637  1
  S  S394  1  0.12923601  0.75846380  0.79103918  1
  S  S395  1  0.45586548  0.82452055  0.86219026  1
  S  S396  1  0.91411264  0.60355807  0.85602193  1
  S  S397  1  0.59158950  0.53757969  0.78411913  1
  S  S398  1  0.02603187  0.11643796  0.87813492  1
  S  S399  1  0.70299559  0.06131371  0.80412609  1
  S  S400  1  0.69244404  0.36601400  0.91353771  1
  S  S401  1  0.35458769  0.30091848  0.83684641  1
  S  S402  1  0.90397343  0.99322171  0.00082769  1
  S  S403  1  0.55582273  0.92568034  0.93185627  1
  S  S404  1  0.48223188  0.62617233  0.92389467  1
  S  S405  1  0.75272802  0.45640443  0.97427026  1
  S  S406  1  0.14721326  0.16108585  0.94782049  1
  S  S407  1  0.37609227  0.67447289  0.99094710  1
  S  S408  1  0.03903497  0.94381292  0.93754761  1
  S  S409  1  0.33953475  0.85176799  0.94098549  1
  S  S410  1  0.03924910  0.76821353  0.98351992  1
  S  S411  1  0.88784533  0.22390189  0.95405824  1
  S  S412  1  0.79370857  0.88848575  0.93329824  1
  S  S413  1  0.14673128  0.93316473  0.00123203  1
  S  S414  1  0.25266899  0.65916220  0.93161055  1
  S  S415  1  0.35753117  0.19304313  0.94534153  1
