# generated using pymatgen
data_Li3PS4
_symmetry_space_group_name_H-M   'P 1'
_cell_length_a   14.91536200
_cell_length_b   14.48087041
_cell_length_c   46.02871754
_cell_angle_alpha   90.00000000
_cell_angle_beta   90.00000000
_cell_angle_gamma   68.72383501
_symmetry_Int_Tables_number   1
_chemical_formula_structural   Li3PS4
_chemical_formula_sum   'Li156 P52 S208'
_cell_volume   9264.02550255
_cell_formula_units_Z   52
loop_
 _symmetry_equiv_pos_site_id
 _symmetry_equiv_pos_as_xyz
  1  'x, y, z'
loop_
 _atom_site_type_symbol
 _atom_site_label
 _atom_site_symmetry_multiplicity
 _atom_site_fract_x
 _atom_site_fract_y
 _atom_site_fract_z
 _atom_site_occupancy
  Li  Li0  1  0.30586425  0.70051598  0.09682114  1
  Li  Li1  1  0.63263771  0.76761913  0.03513013  1
  Li  Li2  1  0.29276791  0.00446164  0.12426233  1
  Li  Li3  1  0.60700747  0.08945360  0.04981709  1
  Li  Li4  1  0.49249681  0.53467318  0.07014702  1
  Li  Li5  1  0.32268190  0.17776533  0.06983004  1
  Li  Li6  1  0.35955543  0.22432092  0.99696378  1
  Li  Li7  1  0.90721381  0.18063275  0.09328633  1
  Li  Li8  1  0.04888869  0.60162165  0.05364200  1
  Li  Li9  1  0.71404543  0.51723107  0.11887359  1
  Li  Li10  1  0.77348335  0.01522223  0.10868557  1
  Li  Li11  1  0.85256165  0.69375599  0.10575828  1
  Li  Li12  1  0.44334092  0.88358500  0.07475370  1
  Li  Li13  1  0.61198725  0.91906086  0.98426596  1
  Li  Li14  1  0.45771518  0.33028902  0.07972099  1
  Li  Li15  1  0.90019692  0.37189524  0.07272710  1
  Li  Li16  1  0.16000057  0.04946860  0.03616164  1
  Li  Li17  1  0.96756736  0.91284458  0.05371786  1
  Li  Li18  1  0.65674726  0.56528562  0.24271323  1
  Li  Li19  1  0.98576439  0.62435721  0.17217873  1
  Li  Li20  1  0.63533555  0.87977052  0.26260736  1
  Li  Li21  1  0.96771701  0.94874832  0.19051692  1
  Li  Li22  1  0.24042186  0.50123387  0.12639987  1
  Li  Li23  1  0.90295512  0.42354107  0.20187343  1
  Li  Li24  1  0.72947796  0.06939210  0.22522922  1
  Li  Li25  1  0.05717385  0.15018489  0.15380577  1
  Li  Li26  1  0.57639285  0.14096012  0.16498789  1
  Li  Li27  1  0.25385154  0.06155213  0.23393234  1
  Li  Li28  1  0.38159572  0.43257528  0.19200427  1
  Li  Li29  1  0.05224580  0.38154682  0.26459631  1
  Li  Li30  1  0.46214800  0.95348653  0.17842237  1
  Li  Li31  1  0.12619658  0.88321825  0.25001082  1
  Li  Li32  1  0.51885868  0.60921146  0.17949473  1
  Li  Li33  1  0.19775570  0.55167696  0.25009582  1
  Li  Li34  1  0.77840983  0.75942511  0.21330681  1
  Li  Li35  1  0.09782975  0.82609102  0.14072353  1
  Li  Li36  1  0.81837657  0.23505579  0.22590260  1
  Li  Li37  1  0.14641886  0.34260527  0.13029824  1
  Li  Li38  1  0.67773097  0.32768068  0.14397753  1
  Li  Li39  1  0.28066159  0.25211381  0.20927474  1
  Li  Li40  1  0.64964283  0.81858726  0.13515761  1
  Li  Li41  1  0.32060633  0.75647741  0.20044374  1
  Li  Li42  1  0.00115042  0.43814101  0.38556441  1
  Li  Li43  1  0.32481826  0.49404199  0.31503869  1
  Li  Li44  1  0.98568152  0.73983845  0.40805896  1
  Li  Li45  1  0.30745470  0.81556958  0.33511212  1
  Li  Li46  1  0.57217147  0.37354944  0.27384922  1
  Li  Li47  1  0.24265131  0.29358975  0.34616809  1
  Li  Li48  1  0.06092196  0.93891868  0.37350872  1
  Li  Li49  1  0.39456223  0.01634799  0.29714051  1
  Li  Li50  1  0.92418446  0.01022429  0.30685627  1
  Li  Li51  1  0.59519694  0.92797795  0.37736778  1
  Li  Li52  1  0.72723244  0.30317729  0.33529892  1
  Li  Li53  1  0.39438206  0.25983594  0.40740361  1
  Li  Li54  1  0.80734311  0.82192350  0.32097021  1
  Li  Li55  1  0.47865524  0.74781517  0.39250779  1
  Li  Li56  1  0.86527134  0.48380350  0.32215995  1
  Li  Li57  1  0.53852887  0.42359069  0.39093862  1
  Li  Li58  1  0.12669142  0.62796999  0.35992477  1
  Li  Li59  1  0.44236395  0.70079656  0.28436084  1
  Li  Li60  1  0.15921819  0.09697052  0.37073588  1
  Li  Li61  1  0.48684401  0.20703255  0.27421433  1
  Li  Li62  1  0.02646541  0.19056868  0.28997689  1
  Li  Li63  1  0.62341060  0.12009328  0.35220757  1
  Li  Li64  1  0.99536869  0.69070238  0.27414216  1
  Li  Li65  1  0.66665945  0.62710052  0.34396721  1
  Li  Li66  1  0.67423934  0.35484392  0.45182272  1
  Li  Li67  1  0.63295302  0.67356539  0.48701030  1
  Li  Li68  1  0.93349337  0.24264457  0.41946159  1
  Li  Li69  1  0.80486021  0.89931960  0.42742778  1
  Li  Li70  1  0.24078839  0.83684123  0.44751378  1
  Li  Li71  1  0.01022476  0.15402461  0.50154766  1
  Li  Li72  1  0.52718102  0.48384521  0.49442311  1
  Li  Li73  1  0.78085736  0.57096721  0.42938505  1
  Li  Li74  1  0.83736545  0.09367495  0.41641576  1
  Li  Li75  1  0.38932645  0.06867463  0.42492959  1
  Li  Li76  1  0.33231884  0.55742741  0.41712170  1
  Li  Li77  1  0.99222523  0.48567146  0.48343186  1
  Li  Li78  1  0.56822291  0.62588498  0.59662930  1
  Li  Li79  1  0.24262754  0.55698135  0.53519258  1
  Li  Li80  1  0.58225442  0.31954847  0.62488185  1
  Li  Li81  1  0.26701976  0.23560121  0.54979515  1
  Li  Li82  1  0.38044807  0.79149554  0.57072968  1
  Li  Li83  1  0.55172444  0.14594361  0.56959295  1
  Li  Li84  1  0.51347098  0.10187704  0.49675204  1
  Li  Li85  1  0.96789658  0.14571240  0.59359335  1
  Li  Li86  1  0.82559782  0.72414050  0.55376835  1
  Li  Li87  1  0.15945788  0.80764502  0.62013054  1
  Li  Li88  1  0.10185159  0.30989145  0.60892689  1
  Li  Li89  1  0.02184619  0.63123722  0.60642808  1
  Li  Li90  1  0.43268758  0.44103756  0.57471961  1
  Li  Li91  1  0.26119485  0.40626973  0.48459632  1
  Li  Li92  1  0.41564483  0.99556230  0.58008114  1
  Li  Li93  1  0.97549496  0.95322705  0.57351295  1
  Li  Li94  1  0.71441253  0.27650309  0.53643497  1
  Li  Li95  1  0.90776335  0.41273101  0.55376363  1
  Li  Li96  1  0.21852738  0.75944871  0.74267298  1
  Li  Li97  1  0.88927012  0.70112758  0.67210790  1
  Li  Li98  1  0.24057795  0.44491090  0.76293192  1
  Li  Li99  1  0.90635731  0.37663620  0.68984043  1
  Li  Li100  1  0.63547116  0.82297088  0.62638215  1
  Li  Li101  1  0.97075125  0.90044474  0.70213168  1
  Li  Li102  1  0.14400433  0.25628655  0.72504828  1
  Li  Li103  1  0.82049382  0.17419765  0.65406545  1
  Li  Li104  1  0.29873477  0.18440997  0.66539541  1
  Li  Li105  1  0.62223524  0.26280648  0.73375781  1
  Li  Li106  1  0.49534254  0.89140862  0.69217698  1
  Li  Li107  1  0.82450727  0.94235382  0.76470297  1
  Li  Li108  1  0.41339044  0.37121102  0.67849364  1
  Li  Li109  1  0.74796690  0.44307718  0.74999872  1
  Li  Li110  1  0.35812204  0.71563389  0.67916600  1
  Li  Li111  1  0.68058394  0.77135033  0.75007932  1
  Li  Li112  1  0.09641537  0.56510842  0.71407439  1
  Li  Li113  1  0.77595694  0.49898100  0.64021909  1
  Li  Li114  1  0.05862352  0.08889786  0.72569330  1
  Li  Li115  1  0.72706637  0.98371707  0.62978681  1
  Li  Li116  1  0.19841708  0.99819104  0.64423769  1
  Li  Li117  1  0.59839548  0.07090417  0.70870207  1
  Li  Li118  1  0.22498034  0.50607951  0.63507435  1
  Li  Li119  1  0.55500503  0.56867904  0.70080162  1
  Li  Li120  1  0.87262913  0.88698777  0.88520961  1
  Li  Li121  1  0.54847047  0.82946107  0.81456425  1
  Li  Li122  1  0.88946756  0.58375001  0.90785145  1
  Li  Li123  1  0.56679728  0.51139897  0.83518701  1
  Li  Li124  1  0.30099699  0.95285789  0.77369701  1
  Li  Li125  1  0.63151809  0.03212331  0.84581747  1
  Li  Li126  1  0.81343909  0.38570139  0.87332382  1
  Li  Li127  1  0.48322629  0.30808935  0.79669792  1
  Li  Li128  1  0.95137498  0.31461788  0.80650143  1
  Li  Li129  1  0.28088245  0.39628217  0.87607656  1
  Li  Li130  1  0.14775138  0.02171188  0.83533197  1
  Li  Li131  1  0.48078774  0.06618864  0.90751789  1
  Li  Li132  1  0.06663986  0.50267299  0.82059047  1
  Li  Li133  1  0.39436507  0.57817070  0.89227580  1
  Li  Li134  1  0.01105034  0.84115317  0.82216437  1
  Li  Li135  1  0.33719283  0.90250079  0.89090394  1
  Li  Li136  1  0.74931781  0.69770891  0.85954652  1
  Li  Li137  1  0.43276648  0.62489065  0.78361024  1
  Li  Li138  1  0.71665531  0.22742253  0.87039151  1
  Li  Li139  1  0.38978195  0.11791532  0.77417043  1
  Li  Li140  1  0.84888493  0.13367729  0.78988030  1
  Li  Li141  1  0.25244556  0.20512908  0.85197879  1
  Li  Li142  1  0.87980320  0.63275279  0.77438106  1
  Li  Li143  1  0.20659180  0.69879822  0.84433640  1
  Li  Li144  1  0.20173209  0.97186979  0.95193426  1
  Li  Li145  1  0.24190146  0.65148612  0.98700730  1
  Li  Li146  1  0.94119558  0.08116988  0.91910547  1
  Li  Li147  1  0.06971032  0.42562325  0.92683872  1
  Li  Li148  1  0.63325986  0.48695910  0.94742659  1
  Li  Li149  1  0.86418764  0.17027967  0.00176137  1
  Li  Li150  1  0.34886495  0.84254124  0.99428804  1
  Li  Li151  1  0.09483224  0.75385335  0.92912725  1
  Li  Li152  1  0.03637898  0.23040367  0.91655235  1
  Li  Li153  1  0.48605635  0.25724226  0.92466385  1
  Li  Li154  1  0.54269065  0.76627553  0.91664421  1
  Li  Li155  1  0.88305939  0.83961709  0.98336479  1
  P  P156  1  0.78903737  0.82988844  0.05409100  1
  P  P157  1  0.47867499  0.73559601  0.12646390  1
  P  P158  1  0.44590732  0.02848274  0.02693187  1
  P  P159  1  0.14329453  0.95068618  0.09251649  1
  P  P160  1  0.25258786  0.46542607  0.05885899  1
  P  P161  1  0.70157064  0.28599863  0.07346936  1
  P  P162  1  0.14952378  0.67649107  0.19643717  1
  P  P163  1  0.82049149  0.61410465  0.26870307  1
  P  P164  1  0.81263267  0.89052538  0.16258888  1
  P  P165  1  0.48371989  0.82541682  0.23183871  1
  P  P166  1  0.59375113  0.34387567  0.20955746  1
  P  P167  1  0.91744218  0.41569864  0.13538750  1
  P  P168  1  0.36885426  0.22506296  0.14523873  1
  P  P169  1  0.04572391  0.16045148  0.22013428  1
  P  P170  1  0.48921823  0.55002245  0.33871602  1
  P  P171  1  0.16042839  0.48331983  0.41386913  1
  P  P172  1  0.15380708  0.76141577  0.30526922  1
  P  P173  1  0.82753632  0.69772088  0.37591213  1
  P  P174  1  0.93896807  0.21635132  0.35397266  1
  P  P175  1  0.25978648  0.28128564  0.27981148  1
  P  P176  1  0.71341072  0.09647478  0.28932000  1
  P  P177  1  0.38760710  0.02634485  0.36290234  1
  P  P178  1  0.81922403  0.42241935  0.48136505  1
  P  P179  1  0.48979461  0.63326179  0.44745974  1
  P  P180  1  0.60743850  0.14764543  0.42144800  1
  P  P181  1  0.04580939  0.96912537  0.44093258  1
  P  P182  1  0.08525029  0.49586523  0.55436293  1
  P  P183  1  0.39622359  0.58920982  0.62649873  1
  P  P184  1  0.42900906  0.29652637  0.52689616  1
  P  P185  1  0.73116712  0.37470228  0.59267746  1
  P  P186  1  0.62062951  0.85990382  0.55895208  1
  P  P187  1  0.17257257  0.03922493  0.57389756  1
  P  P188  1  0.72640697  0.64746522  0.69646260  1
  P  P189  1  0.05454629  0.71064635  0.76895495  1
  P  P190  1  0.06165524  0.43523323  0.66276133  1
  P  P191  1  0.39181830  0.49950698  0.73180002  1
  P  P192  1  0.28317462  0.97986517  0.70939984  1
  P  P193  1  0.95636898  0.91010623  0.63581789  1
  P  P194  1  0.50576650  0.10033001  0.64529858  1
  P  P195  1  0.83072007  0.16446990  0.72016454  1
  P  P196  1  0.38389577  0.77533815  0.83864695  1
  P  P197  1  0.71405296  0.84178033  0.91367222  1
  P  P198  1  0.72130335  0.56390517  0.80543230  1
  P  P199  1  0.04732612  0.62679819  0.87563209  1
  P  P200  1  0.93652849  0.10885661  0.85370397  1
  P  P201  1  0.61656375  0.04264339  0.77947887  1
  P  P202  1  0.16242252  0.22793091  0.78912363  1
  P  P203  1  0.48825439  0.29880562  0.86255170  1
  P  P204  1  0.05663729  0.90233238  0.98115255  1
  P  P205  1  0.38439979  0.69196051  0.94741204  1
  P  P206  1  0.26765237  0.17896153  0.92129940  1
  P  P207  1  0.82864869  0.35510059  0.94078056  1
  S  S208  1  0.92938397  0.75825781  0.06728042  1
  S  S209  1  0.30361634  0.10519369  0.01829670  1
  S  S210  1  0.02758471  0.04646882  0.06937278  1
  S  S211  1  0.19031134  0.55803843  0.02559497  1
  S  S212  1  0.86721498  0.51621521  0.10142294  1
  S  S213  1  0.74965110  0.19315497  0.10896570  1
  S  S214  1  0.27367037  0.18211706  0.12097232  1
  S  S215  1  0.60265632  0.26067128  0.04793954  1
  S  S216  1  0.34472596  0.51176717  0.08526998  1
  S  S217  1  0.47691895  0.03922055  0.06967969  1
  S  S218  1  0.76491044  0.79570486  0.01178293  1
  S  S219  1  0.46912712  0.70743339  0.08252439  1
  S  S220  1  0.14088785  0.81136424  0.08745974  1
  S  S221  1  0.48066294  0.87923400  0.01643896  1
  S  S222  1  0.77031986  0.97701292  0.05794521  1
  S  S223  1  0.63690947  0.42519551  0.09177745  1
  S  S224  1  0.33579620  0.32580506  0.04503499  1
  S  S225  1  0.99632286  0.28219214  0.11489472  1
  S  S226  1  0.70116965  0.78183505  0.07983595  1
  S  S227  1  0.26158617  0.96984255  0.07478405  1
  S  S228  1  0.52876922  0.08737760  0.00301478  1
  S  S229  1  0.14153144  0.46911490  0.08639155  1
  S  S230  1  0.48542080  0.22551675  0.12279029  1
  S  S231  1  0.82268561  0.27480400  0.04882828  1
  S  S232  1  0.28589346  0.60047059  0.21170667  1
  S  S233  1  0.61186083  0.66234963  0.14409115  1
  S  S234  1  0.67852423  0.97262102  0.14631244  1
  S  S235  1  0.35625801  0.90659514  0.21155938  1
  S  S236  1  0.53904461  0.43554641  0.17459821  1
  S  S237  1  0.20589053  0.37976492  0.24607803  1
  S  S238  1  0.41848995  0.13533733  0.18100388  1
  S  S239  1  0.10218906  0.06201793  0.25370353  1
  S  S240  1  0.62327844  0.05380942  0.26307712  1
  S  S241  1  0.95301290  0.12394723  0.19362260  1
  S  S242  1  0.68124289  0.38835322  0.23632744  1
  S  S243  1  0.01102872  0.44749981  0.16234677  1
  S  S244  1  0.82803003  0.90751273  0.20628018  1
  S  S245  1  0.14069003  0.98108660  0.13621406  1
  S  S246  1  0.12966668  0.65029721  0.15326841  1
  S  S247  1  0.80582578  0.58544761  0.22540070  1
  S  S248  1  0.49381828  0.67856814  0.22900802  1
  S  S249  1  0.82488212  0.74311338  0.15744132  1
  S  S250  1  0.46255852  0.88412349  0.12910601  1
  S  S251  1  0.13337861  0.82529656  0.19891897  1
  S  S252  1  0.28282777  0.36276649  0.16232254  1
  S  S253  1  0.96090393  0.29304695  0.23969851  1
  S  S254  1  0.68230849  0.21088262  0.19127213  1
  S  S255  1  0.34415755  0.14889026  0.26013390  1
  S  S256  1  0.37656202  0.69723932  0.14733770  1
  S  S257  1  0.05198361  0.63832469  0.22018152  1
  S  S258  1  0.59079292  0.85848909  0.21161080  1
  S  S259  1  0.91252347  0.92940748  0.14052745  1
  S  S260  1  0.47940922  0.33793428  0.23318067  1
  S  S261  1  0.80413499  0.41156254  0.15953457  1
  S  S262  1  0.82669011  0.10219442  0.26521092  1
  S  S263  1  0.15581587  0.16884872  0.19500065  1
  S  S264  1  0.62660334  0.47300031  0.35329559  1
  S  S265  1  0.95462678  0.54041674  0.28580687  1
  S  S266  1  0.02339983  0.84427873  0.28673823  1
  S  S267  1  0.70094447  0.77782794  0.35494099  1
  S  S268  1  0.88621345  0.30589458  0.31851920  1
  S  S269  1  0.54861242  0.25024292  0.38883914  1
  S  S270  1  0.76779722  0.00469167  0.32406569  1
  S  S271  1  0.44420310  0.92703067  0.39644068  1
  S  S272  1  0.95529991  0.92415892  0.41312107  1
  S  S273  1  0.29226802  0.99139543  0.33734974  1
  S  S274  1  0.03145485  0.25834341  0.37920531  1
  S  S275  1  0.35129986  0.31686317  0.30698208  1
  S  S276  1  0.16300402  0.78261296  0.34923912  1
  S  S277  1  0.48696768  0.85182405  0.27560761  1
  S  S278  1  0.46583979  0.52705245  0.29571881  1
  S  S279  1  0.15433494  0.45261167  0.37003253  1
  S  S280  1  0.83690395  0.55136411  0.37288421  1
  S  S281  1  0.16497812  0.61473651  0.30082636  1
  S  S282  1  0.80346975  0.76316123  0.27039713  1
  S  S283  1  0.47575394  0.69821417  0.34139810  1
  S  S284  1  0.62591535  0.23064471  0.30759102  1
  S  S285  1  0.30506349  0.15945181  0.38335221  1
  S  S286  1  0.02251452  0.07812714  0.33726573  1
  S  S287  1  0.68462152  0.01813684  0.39948073  1
  S  S288  1  0.72141576  0.57512606  0.29139713  1
  S  S289  1  0.39242574  0.51086593  0.36247923  1
  S  S290  1  0.93525338  0.73094854  0.35642186  1
  S  S291  1  0.25722280  0.79883456  0.28437527  1
  S  S292  1  0.82361538  0.21850832  0.37832324  1
  S  S293  1  0.14715877  0.27556649  0.30432154  1
  S  S294  1  0.15731413  0.96934419  0.41403471  1
  S  S295  1  0.49683770  0.03398741  0.33750949  1
  S  S296  1  0.94751209  0.34223139  0.50120898  1
  S  S297  1  0.29414302  0.40839817  0.43191284  1
  S  S298  1  0.36712648  0.70883360  0.42404432  1
  S  S299  1  0.09691659  0.87774344  0.47449745  1
  S  S300  1  0.70161967  0.17689880  0.44799196  1
  S  S301  1  0.47392534  0.66133095  0.49103697  1
  S  S302  1  0.82734666  0.72580857  0.41989614  1
  S  S303  1  0.81353353  0.39173265  0.43777161  1
  S  S304  1  0.51106806  0.48384155  0.44103818  1
  S  S305  1  0.14744416  0.62971057  0.41629870  1
  S  S306  1  0.81068640  0.56698858  0.48423089  1
  S  S307  1  0.96051000  0.10983490  0.45453934  1
  S  S308  1  0.05646913  0.44685446  0.43392117  1
  S  S309  1  0.70480098  0.39994266  0.50105219  1
  S  S310  1  0.59686484  0.67702989  0.43174848  1
  S  S311  1  0.49216936  0.14251614  0.44543746  1
  S  S312  1  0.94504284  0.56759590  0.56762833  1
  S  S313  1  0.57125429  0.21911060  0.51835104  1
  S  S314  1  0.84714943  0.27930915  0.56955945  1
  S  S315  1  0.68357633  0.76627635  0.52594288  1
  S  S316  1  0.00692294  0.80901620  0.60201655  1
  S  S317  1  0.12532495  0.13250601  0.60937639  1
  S  S318  1  0.60026164  0.14353204  0.62075567  1
  S  S319  1  0.27190133  0.06373436  0.54835583  1
  S  S320  1  0.52911871  0.81370504  0.58566059  1
  S  S321  1  0.39774861  0.28590824  0.56961127  1
  S  S322  1  0.10940153  0.52982801  0.51201497  1
  S  S323  1  0.40515472  0.61771844  0.58256152  1
  S  S324  1  0.73264284  0.51429111  0.58729785  1
  S  S325  1  0.39469851  0.44558807  0.51631552  1
  S  S326  1  0.10396636  0.34875345  0.55824087  1
  S  S327  1  0.23591661  0.89999829  0.59229778  1
  S  S328  1  0.53660616  0.99881835  0.54484731  1
  S  S329  1  0.87832277  0.04351056  0.61511627  1
  S  S330  1  0.17320493  0.54401535  0.57997261  1
  S  S331  1  0.61316143  0.35436605  0.57518361  1
  S  S332  1  0.34562953  0.23785531  0.50302961  1
  S  S333  1  0.73191555  0.85751405  0.58626175  1
  S  S334  1  0.38856619  0.10055607  0.62305374  1
  S  S335  1  0.05130922  0.05135736  0.54925857  1
  S  S336  1  0.59055610  0.72398150  0.71200319  1
  S  S337  1  0.26348982  0.66208298  0.64442023  1
  S  S338  1  0.19594244  0.35238816  0.64668359  1
  S  S339  1  0.51941786  0.41829864  0.71161679  1
  S  S340  1  0.33808323  0.88900111  0.67431582  1
  S  S341  1  0.67149007  0.94403999  0.74582213  1
  S  S342  1  0.45751018  0.18929382  0.68125007  1
  S  S343  1  0.77396850  0.26308109  0.75366594  1
  S  S344  1  0.25212794  0.27052547  0.76271109  1
  S  S345  1  0.92397708  0.20055062  0.69374850  1
  S  S346  1  0.19471477  0.93532014  0.73576102  1
  S  S347  1  0.86202670  0.87863890  0.66253819  1
  S  S348  1  0.04499086  0.41802624  0.70635480  1
  S  S349  1  0.73454361  0.34396284  0.63637381  1
  S  S350  1  0.74575087  0.67421074  0.65330420  1
  S  S351  1  0.06892834  0.73956387  0.72566059  1
  S  S352  1  0.38167551  0.64641898  0.72881533  1
  S  S353  1  0.05056625  0.58229418  0.65784976  1
  S  S354  1  0.41241086  0.44066072  0.62909385  1
  S  S355  1  0.74139624  0.49906552  0.69881256  1
  S  S356  1  0.59211978  0.96223237  0.66209102  1
  S  S357  1  0.91497040  0.03181566  0.73977669  1
  S  S358  1  0.19442806  0.11329149  0.69133171  1
  S  S359  1  0.53218987  0.17507419  0.75982998  1
  S  S360  1  0.49881562  0.62721268  0.64724026  1
  S  S361  1  0.82501472  0.68420314  0.72014162  1
  S  S362  1  0.28457885  0.46663528  0.71162530  1
  S  S363  1  0.96207588  0.39700217  0.64030057  1
  S  S364  1  0.39689613  0.98515575  0.73338191  1
  S  S365  1  0.06922654  0.91456965  0.66012259  1
  S  S366  1  0.04908249  0.22149041  0.76517338  1
  S  S367  1  0.72063617  0.15674238  0.69484475  1
  S  S368  1  0.24726949  0.85239779  0.85370159  1
  S  S369  1  0.92065416  0.78377912  0.78624103  1
  S  S370  1  0.85155711  0.48055006  0.78690976  1
  S  S371  1  0.17349246  0.54716091  0.85440282  1
  S  S372  1  0.98966661  0.01916095  0.81831475  1
  S  S373  1  0.32676862  0.07575803  0.88883608  1
  S  S374  1  0.10806987  0.32019153  0.82376156  1
  S  S375  1  0.43036789  0.39833454  0.89591857  1
  S  S376  1  0.91975845  0.39962355  0.91302098  1
  S  S377  1  0.58351759  0.33466541  0.83722172  1
  S  S378  1  0.84378451  0.06642722  0.87872287  1
  S  S379  1  0.52496947  0.00639179  0.80646385  1
  S  S380  1  0.71200792  0.54291042  0.84936330  1
  S  S381  1  0.38879286  0.47312816  0.77556687  1
  S  S382  1  0.40618909  0.79903340  0.79560488  1
  S  S383  1  0.71973002  0.87324000  0.86986023  1
  S  S384  1  0.03780841  0.77336187  0.87282135  1
  S  S385  1  0.71014234  0.71049703  0.80092083  1
  S  S386  1  0.07179098  0.56140979  0.77039850  1
  S  S387  1  0.39784739  0.62707063  0.84118640  1
  S  S388  1  0.24956699  0.09411506  0.80760341  1
  S  S389  1  0.57049366  0.16586311  0.88312764  1
  S  S390  1  0.85292471  0.24697247  0.83700074  1
  S  S391  1  0.19121194  0.30794058  0.89907964  1
  S  S392  1  0.15403072  0.74918112  0.79151530  1
  S  S393  1  0.48170136  0.81395416  0.86213194  1
  S  S394  1  0.93942902  0.59363503  0.85619364  1
  S  S395  1  0.61768105  0.52693407  0.78449693  1
  S  S396  1  0.05138987  0.10686092  0.87821298  1
  S  S397  1  0.72827225  0.04936723  0.80420241  1
  S  S398  1  0.71729951  0.35542097  0.91372787  1
  S  S399  1  0.38008738  0.28988175  0.83686498  1
  S  S400  1  0.92811724  0.98229416  0.00100123  1
  S  S401  1  0.58005686  0.91612405  0.93168444  1
  S  S402  1  0.50684277  0.61555367  0.92400776  1
  S  S403  1  0.77739412  0.44642548  0.97434900  1
  S  S404  1  0.17314420  0.15022052  0.94789626  1
  S  S405  1  0.39999097  0.66454109  0.99103235  1
  S  S406  1  0.04782172  0.59863962  0.91957771  1
  S  S407  1  0.06286351  0.93358670  0.93763229  1
  S  S408  1  0.36386326  0.84116628  0.94088631  1
  S  S409  1  0.72751439  0.69516739  0.91583767  1
  S  S410  1  0.06458695  0.75790474  0.98379305  1
  S  S411  1  0.91319430  0.21412434  0.95435942  1
  S  S412  1  0.81792369  0.87831291  0.93376189  1
  S  S413  1  0.17072575  0.92474854  0.00106155  1
  S  S414  1  0.27746484  0.64805085  0.93165487  1
  S  S415  1  0.38270172  0.18407153  0.94543528  1
