# generated using pymatgen
data_Li3PS4
_symmetry_space_group_name_H-M   'P 1'
_cell_length_a   14.91536200
_cell_length_b   14.48087041
_cell_length_c   46.80312674
_cell_angle_alpha   90.00000000
_cell_angle_beta   90.00000000
_cell_angle_gamma   68.72383501
_symmetry_Int_Tables_number   1
_chemical_formula_structural   Li3PS4
_chemical_formula_sum   'Li168 P56 S224'
_cell_volume   9419.88790586
_cell_formula_units_Z   56
loop_
 _symmetry_equiv_pos_site_id
 _symmetry_equiv_pos_as_xyz
  1  'x, y, z'
loop_
 _atom_site_type_symbol
 _atom_site_label
 _atom_site_symmetry_multiplicity
 _atom_site_fract_x
 _atom_site_fract_y
 _atom_site_fract_z
 _atom_site_occupancy
  Li  Li0  1  0.34666953  0.75989155  0.09555030  1
  Li  Li1  1  0.66566779  0.90729196  0.99382487  1
  Li  Li2  1  0.67483454  0.13335691  0.04173634  1
  Li  Li3  1  0.88431047  0.42956613  0.01125404  1
  Li  Li4  1  0.58626324  0.62607464  0.05737159  1
  Li  Li5  1  0.41461174  0.26525148  0.08399589  1
  Li  Li6  1  0.91584847  0.21024261  0.01227154  1
  Li  Li7  1  0.30088185  0.32512553  0.02550431  1
  Li  Li8  1  0.93809808  0.25347844  0.09779620  1
  Li  Li9  1  0.05932053  0.62608266  0.05364853  1
  Li  Li10  1  0.13945017  0.15664941  0.04266023  1
  Li  Li11  1  0.79626902  0.07870624  0.10683558  1
  Li  Li12  1  0.16981650  0.82106453  0.04016073  1
  Li  Li13  1  0.86141891  0.74003027  0.11111852  1
  Li  Li14  1  0.54667411  0.93278658  0.06899455  1
  Li  Li15  1  0.50348476  0.43179647  0.08556079  1
  Li  Li16  1  0.04948656  0.43842950  0.08136413  1
  Li  Li17  1  0.34319138  0.02990862  0.99105341  1
  Li  Li18  1  0.98949330  0.93554901  0.08538897  1
  Li  Li19  1  0.69418828  0.62226005  0.24049370  1
  Li  Li20  1  0.01499262  0.68950509  0.17248944  1
  Li  Li21  1  0.32903673  0.06601667  0.11669118  1
  Li  Li22  1  0.00716452  0.00206186  0.18650541  1
  Li  Li23  1  0.25751402  0.56128430  0.13498062  1
  Li  Li24  1  0.92251970  0.48855263  0.20441416  1
  Li  Li25  1  0.75981136  0.13208274  0.22553383  1
  Li  Li26  1  0.09043450  0.19706378  0.15742877  1
  Li  Li27  1  0.61110745  0.20021192  0.16472800  1
  Li  Li28  1  0.28942413  0.12213287  0.23476140  1
  Li  Li29  1  0.41226403  0.49684199  0.19348637  1
  Li  Li30  1  0.74012327  0.56976876  0.12118340  1
  Li  Li31  1  0.48461724  0.00980588  0.17746477  1
  Li  Li32  1  0.14355509  0.95773073  0.25017289  1
  Li  Li33  1  0.53595749  0.68447657  0.17901547  1
  Li  Li34  1  0.21913928  0.61226503  0.24985163  1
  Li  Li35  1  0.81016378  0.82797045  0.21296877  1
  Li  Li36  1  0.20995968  0.86662392  0.14555149  1
  Li  Li37  1  0.84861863  0.29593031  0.22483383  1
  Li  Li38  1  0.17259888  0.37086835  0.14984819  1
  Li  Li39  1  0.70740897  0.38332786  0.14726639  1
  Li  Li40  1  0.32530532  0.30814558  0.21237744  1
  Li  Li41  1  0.67739076  0.88165949  0.13596867  1
  Li  Li42  1  0.34181107  0.81246739  0.22548658  1
  Li  Li43  1  0.03826906  0.50474210  0.38895114  1
  Li  Li44  1  0.35911913  0.56577276  0.31280636  1
  Li  Li45  1  0.66735310  0.94638185  0.26042673  1
  Li  Li46  1  0.34913224  0.87966254  0.32738505  1
  Li  Li47  1  0.60374633  0.43679099  0.27373883  1
  Li  Li48  1  0.27289530  0.37024688  0.34400697  1
  Li  Li49  1  0.09525937  0.00579626  0.36403784  1
  Li  Li50  1  0.43621422  0.08098787  0.29708901  1
  Li  Li51  1  0.95109690  0.07707809  0.30540509  1
  Li  Li52  1  0.62962278  0.99793890  0.37912549  1
  Li  Li53  1  0.75450231  0.36992653  0.33358867  1
  Li  Li54  1  0.07624632  0.44882394  0.26489940  1
  Li  Li55  1  0.82882102  0.88753533  0.31994496  1
  Li  Li56  1  0.49894226  0.83114230  0.38785911  1
  Li  Li57  1  0.88319113  0.55961754  0.32335125  1
  Li  Li58  1  0.57734248  0.48799812  0.39253283  1
  Li  Li59  1  0.16162266  0.69744751  0.35420458  1
  Li  Li60  1  0.55314610  0.74184500  0.28644348  1
  Li  Li61  1  0.18955196  0.17851251  0.36337069  1
  Li  Li62  1  0.51459150  0.27283670  0.27498684  1
  Li  Li63  1  0.04931087  0.26124997  0.28899794  1
  Li  Li64  1  0.65496475  0.18638672  0.35192414  1
  Li  Li65  1  0.02119366  0.75701170  0.27388007  1
  Li  Li66  1  0.68860590  0.69031433  0.36259759  1
  Li  Li67  1  0.69351569  0.44376547  0.46056874  1
  Li  Li68  1  0.02128008  0.81246602  0.39833972  1
  Li  Li69  1  0.72040656  0.67906446  0.50729233  1
  Li  Li70  1  0.94041795  0.31736358  0.41468195  1
  Li  Li71  1  0.49622565  0.16290596  0.50066566  1
  Li  Li72  1  0.28239478  0.77054753  0.45708705  1
  Li  Li73  1  0.79048705  0.96120289  0.44252909  1
  Li  Li74  1  0.32051036  0.97068314  0.43887275  1
  Li  Li75  1  0.08073663  0.25951771  0.47214126  1
  Li  Li76  1  0.42776207  0.32607666  0.40423538  1
  Li  Li77  1  0.08694178  0.82921079  0.45788868  1
  Li  Li78  1  0.25308905  0.39000028  0.45967020  1
  Li  Li79  1  0.81995389  0.64379461  0.42977493  1
  Li  Li80  1  0.86026630  0.14799413  0.41465289  1
  Li  Li81  1  0.40194431  0.14297547  0.42890224  1
  Li  Li82  1  0.38470577  0.62857468  0.41188531  1
  Li  Li83  1  0.01903521  0.55117165  0.50946012  1
  Li  Li84  1  0.02729762  0.34227018  0.59586407  1
  Li  Li85  1  0.70923992  0.19319661  0.49438488  1
  Li  Li86  1  0.70139122  0.96620822  0.54155902  1
  Li  Li87  1  0.49122923  0.66959081  0.51136885  1
  Li  Li88  1  0.78809486  0.47342628  0.55751900  1
  Li  Li89  1  0.95975069  0.83506248  0.58375063  1
  Li  Li90  1  0.45759541  0.88976560  0.51281008  1
  Li  Li91  1  0.07426411  0.77365090  0.52522790  1
  Li  Li92  1  0.43618813  0.84697814  0.59775234  1
  Li  Li93  1  0.31540846  0.47267286  0.55374714  1
  Li  Li94  1  0.23341578  0.94334416  0.54277083  1
  Li  Li95  1  0.57804722  0.02249617  0.60673780  1
  Li  Li96  1  0.20301413  0.27854279  0.54069553  1
  Li  Li97  1  0.51415541  0.35994681  0.61121825  1
  Li  Li98  1  0.82885525  0.16750485  0.56907263  1
  Li  Li99  1  0.87195221  0.66820618  0.58543490  1
  Li  Li100  1  0.32762237  0.66116148  0.58087282  1
  Li  Li101  1  0.03407113  0.07149832  0.49210112  1
  Li  Li102  1  0.38356464  0.16449097  0.58535046  1
  Li  Li103  1  0.68147146  0.47707046  0.74062206  1
  Li  Li104  1  0.36209417  0.40808995  0.67249619  1
  Li  Li105  1  0.04472963  0.03334453  0.61665228  1
  Li  Li106  1  0.36854026  0.09807764  0.68639528  1
  Li  Li107  1  0.11939670  0.53885729  0.63498758  1
  Li  Li108  1  0.45236228  0.61113150  0.70423862  1
  Li  Li109  1  0.61568249  0.96672155  0.72520091  1
  Li  Li110  1  0.28712578  0.90233739  0.65718142  1
  Li  Li111  1  0.76490935  0.89955379  0.66475809  1
  Li  Li112  1  0.08619527  0.97599979  0.73404743  1
  Li  Li113  1  0.96305325  0.60306237  0.69338912  1
  Li  Li114  1  0.63618050  0.53085291  0.62138824  1
  Li  Li115  1  0.88980918  0.09093085  0.67729350  1
  Li  Li116  1  0.23063990  0.14240953  0.75041280  1
  Li  Li117  1  0.83784731  0.41501279  0.67918407  1
  Li  Li118  1  0.15681274  0.48626510  0.74985953  1
  Li  Li119  1  0.56402108  0.27148589  0.71306375  1
  Li  Li120  1  0.16460438  0.23197394  0.64610265  1
  Li  Li121  1  0.52783438  0.80302749  0.72464705  1
  Li  Li122  1  0.20332469  0.73051199  0.65007382  1
  Li  Li123  1  0.66804668  0.71683469  0.64701732  1
  Li  Li124  1  0.05006428  0.78959265  0.71183445  1
  Li  Li125  1  0.69756479  0.21749095  0.63538341  1
  Li  Li126  1  0.03335689  0.28658523  0.72510958  1
  Li  Li127  1  0.33729736  0.59594574  0.88914631  1
  Li  Li128  1  0.01582939  0.53402957  0.81256361  1
  Li  Li129  1  0.70724910  0.15355064  0.76053743  1
  Li  Li130  1  0.02702748  0.21913320  0.82720880  1
  Li  Li131  1  0.77126711  0.66441273  0.77381238  1
  Li  Li132  1  0.10303527  0.72877969  0.84372357  1
  Li  Li133  1  0.27843254  0.09536371  0.86320216  1
  Li  Li134  1  0.93802171  0.01863794  0.79650714  1
  Li  Li135  1  0.42260528  0.02311821  0.80522024  1
  Li  Li136  1  0.74475682  0.10265151  0.87913942  1
  Li  Li137  1  0.61967920  0.73082120  0.83333080  1
  Li  Li138  1  0.29888427  0.65183195  0.76488760  1
  Li  Li139  1  0.54380753  0.21351499  0.81979197  1
  Li  Li140  1  0.87607727  0.26896739  0.88750576  1
  Li  Li141  1  0.49317194  0.54007121  0.82354883  1
  Li  Li142  1  0.79712869  0.61226109  0.89241014  1
  Li  Li143  1  0.21196285  0.40480986  0.85450938  1
  Li  Li144  1  0.82374872  0.35689091  0.78616643  1
  Li  Li145  1  0.18365094  0.92160079  0.86363182  1
  Li  Li146  1  0.85982586  0.82748299  0.77468586  1
  Li  Li147  1  0.32420480  0.83836623  0.78877898  1
  Li  Li148  1  0.71715211  0.91551206  0.85201823  1
  Li  Li149  1  0.35386419  0.34392531  0.77398480  1
  Li  Li150  1  0.68605371  0.40857994  0.86143713  1
  Li  Li151  1  0.68224766  0.65569374  0.96056301  1
  Li  Li152  1  0.35294718  0.28785675  0.89825634  1
  Li  Li153  1  0.65357153  0.41988991  0.00679299  1
  Li  Li154  1  0.43675538  0.78208246  0.91442576  1
  Li  Li155  1  0.87783243  0.93798433  0.00018009  1
  Li  Li156  1  0.09238932  0.33041465  0.95693441  1
  Li  Li157  1  0.58452945  0.13752015  0.94238976  1
  Li  Li158  1  0.05558026  0.12952807  0.93890803  1
  Li  Li159  1  0.29312948  0.84244857  0.97126906  1
  Li  Li160  1  0.94770169  0.77307726  0.90384322  1
  Li  Li161  1  0.28811638  0.27408355  0.95842204  1
  Li  Li162  1  0.12127667  0.71257670  0.95936205  1
  Li  Li163  1  0.55682376  0.45448846  0.92940066  1
  Li  Li164  1  0.51406353  0.95149192  0.91389192  1
  Li  Li165  1  0.97323772  0.95716634  0.92790383  1
  Li  Li166  1  0.98928251  0.47287908  0.91172086  1
  Li  Li167  1  0.35482444  0.54908506  0.00848713  1
  P  P168  1  0.82528492  0.86225511  0.05821335  1
  P  P169  1  0.51159341  0.08482993  0.01668304  1
  P  P170  1  0.16853344  0.01437945  0.09170402  1
  P  P171  1  0.27617305  0.54246544  0.07128553  1
  P  P172  1  0.09963042  0.37686740  0.02067829  1
  P  P173  1  0.73268918  0.34798898  0.07530157  1
  P  P174  1  0.17830723  0.74193376  0.19852260  1
  P  P175  1  0.50548174  0.80597844  0.12381091  1
  P  P176  1  0.84050984  0.95513690  0.16117880  1
  P  P177  1  0.51715297  0.88756791  0.23220974  1
  P  P178  1  0.62251509  0.40808545  0.21026970  1
  P  P179  1  0.94410380  0.47193350  0.14068626  1
  P  P180  1  0.40055835  0.28435932  0.14827769  1
  P  P181  1  0.07773223  0.22224930  0.22117134  1
  P  P182  1  0.52570631  0.61482562  0.33814929  1
  P  P183  1  0.84536294  0.68252620  0.26803335  1
  P  P184  1  0.18565257  0.82655538  0.30167057  1
  P  P185  1  0.86308900  0.76516847  0.37535966  1
  P  P186  1  0.96305038  0.28739190  0.35163115  1
  P  P187  1  0.28609905  0.34853117  0.27945475  1
  P  P188  1  0.74086322  0.16171631  0.28905772  1
  P  P189  1  0.42087633  0.09944055  0.36132466  1
  P  P190  1  0.86274400  0.49444903  0.48265510  1
  P  P191  1  0.20167890  0.55753559  0.41268311  1
  P  P192  1  0.54647566  0.70862994  0.44098057  1
  P  P193  1  0.28368140  0.17055893  0.48524742  1
  P  P194  1  0.63290056  0.22288796  0.42269304  1
  P  P195  1  0.09443760  0.03749768  0.42618670  1
  P  P196  1  0.54949694  0.23757841  0.55831093  1
  P  P197  1  0.86444095  0.01585483  0.51685132  1
  P  P198  1  0.20508976  0.08561661  0.59177546  1
  P  P199  1  0.09944771  0.55721364  0.57147838  1
  P  P200  1  0.27509548  0.72257608  0.52059997  1
  P  P201  1  0.64215331  0.75259936  0.57538289  1
  P  P202  1  0.19734087  0.35746444  0.69862471  1
  P  P203  1  0.86946795  0.29398852  0.62400002  1
  P  P204  1  0.53517454  0.14455416  0.66118300  1
  P  P205  1  0.85810261  0.21143464  0.73209706  1
  P  P206  1  0.75320709  0.69118156  0.71020551  1
  P  P207  1  0.43133674  0.62815638  0.64047525  1
  P  P208  1  0.97477642  0.81492079  0.64800728  1
  P  P209  1  0.29839115  0.87697285  0.72081149  1
  P  P210  1  0.84896660  0.48558858  0.83785002  1
  P  P211  1  0.52972229  0.41753163  0.76795643  1
  P  P212  1  0.18951536  0.27448359  0.80163822  1
  P  P213  1  0.51143463  0.33493502  0.87527280  1
  P  P214  1  0.41135370  0.81291436  0.85144233  1
  P  P215  1  0.08868982  0.75101825  0.77914039  1
  P  P216  1  0.63319461  0.93898726  0.78886864  1
  P  P217  1  0.95277318  0.00142778  0.86084997  1
  P  P218  1  0.51200108  0.60529080  0.98207369  1
  P  P219  1  0.17385146  0.54264636  0.91296655  1
  P  P220  1  0.82881793  0.39146944  0.94068493  1
  P  P221  1  0.09074689  0.92975419  0.98471665  1
  P  P222  1  0.74186706  0.87752583  0.92208978  1
  P  P223  1  0.28101686  0.06313517  0.92546775  1
  S  S224  1  0.95759853  0.78219718  0.07645524  1
  S  S225  1  0.38653197  0.17941510  0.99906992  1
  S  S226  1  0.03587356  0.09698127  0.07490374  1
  S  S227  1  0.21329540  0.63660680  0.03815043  1
  S  S228  1  0.89920764  0.56184944  0.10581447  1
  S  S229  1  0.17771048  0.30586203  0.05523653  1
  S  S230  1  0.77570746  0.25594844  0.11044624  1
  S  S231  1  0.04232194  0.28054301  0.00249311  1
  S  S232  1  0.63988651  0.31550616  0.04870497  1
  S  S233  1  0.36238003  0.58706748  0.09813711  1
  S  S234  1  0.52779746  0.11647968  0.05877028  1
  S  S235  1  0.81596248  0.81586791  0.01791031  1
  S  S236  1  0.49490274  0.78346823  0.08064938  1
  S  S237  1  0.17568811  0.86752217  0.09051672  1
  S  S238  1  0.50697263  0.94520833  0.01550054  1
  S  S239  1  0.82650222  0.00748831  0.05744595  1
  S  S240  1  0.99095252  0.50541271  0.03235300  1
  S  S241  1  0.65193536  0.48720569  0.09218480  1
  S  S242  1  0.37595692  0.41613594  0.05235976  1
  S  S243  1  0.72159103  0.84142249  0.08328309  1
  S  S244  1  0.27522302  0.03755733  0.06960870  1
  S  S245  1  0.62866498  0.09075642  0.99354440  1
  S  S246  1  0.16646458  0.52982627  0.09543015  1
  S  S247  1  0.18093246  0.40964379  0.98950193  1
  S  S248  1  0.85666791  0.33915787  0.05454906  1
  S  S249  1  0.31297131  0.65944254  0.21428966  1
  S  S250  1  0.63575197  0.72636984  0.14245806  1
  S  S251  1  0.70615636  0.03621203  0.14536182  1
  S  S252  1  0.38608355  0.96272303  0.21377997  1
  S  S253  1  0.56841784  0.50118265  0.17619782  1
  S  S254  1  0.22997884  0.44112685  0.24536127  1
  S  S255  1  0.45726963  0.18983768  0.18193719  1
  S  S256  1  0.13699923  0.12805391  0.25470626  1
  S  S257  1  0.30920054  0.24460819  0.12253105  1
  S  S258  1  0.98668238  0.17984760  0.19598948  1
  S  S259  1  0.71265694  0.44860243  0.23671185  1
  S  S260  1  0.03131944  0.51226347  0.16819087  1
  S  S261  1  0.85984368  0.97708274  0.20377816  1
  S  S262  1  0.18384625  0.04089119  0.13458124  1
  S  S263  1  0.15992481  0.72015523  0.15604943  1
  S  S264  1  0.83548025  0.65408879  0.22528015  1
  S  S265  1  0.53131455  0.73905058  0.23016418  1
  S  S266  1  0.85096218  0.80754601  0.15946321  1
  S  S267  1  0.49407829  0.95355852  0.12704912  1
  S  S268  1  0.16920228  0.88864441  0.20140720  1
  S  S269  1  0.31425173  0.41686105  0.16784073  1
  S  S270  1  0.98975888  0.35434620  0.24003047  1
  S  S271  1  0.70994302  0.27423511  0.19215411  1
  S  S272  1  0.03275818  0.33584877  0.12386175  1
  S  S273  1  0.40247276  0.77139637  0.14541016  1
  S  S274  1  0.07654273  0.70746080  0.22087594  1
  S  S275  1  0.61932823  0.92343444  0.21066159  1
  S  S276  1  0.94084840  0.99023906  0.13840712  1
  S  S277  1  0.50904056  0.40279212  0.23400313  1
  S  S278  1  0.82739147  0.46866337  0.16313640  1
  S  S279  1  0.51222622  0.29346276  0.12447414  1
  S  S280  1  0.18846058  0.22980906  0.19615863  1
  S  S281  1  0.66103282  0.53493454  0.35347408  1
  S  S282  1  0.97742415  0.60718035  0.28595504  1
  S  S283  1  0.05077632  0.90918396  0.28615499  1
  S  S284  1  0.73229459  0.84307811  0.35685175  1
  S  S285  1  0.90895460  0.38119548  0.31778902  1
  S  S286  1  0.58417707  0.31576314  0.38788667  1
  S  S287  1  0.79598562  0.06950397  0.32323409  1
  S  S288  1  0.47132250  0.00587730  0.39596834  1
  S  S289  1  0.65095882  0.11999642  0.26294733  1
  S  S290  1  0.33069194  0.05908134  0.33520710  1
  S  S291  1  0.05294896  0.32826561  0.37796175  1
  S  S292  1  0.37776230  0.38926741  0.30493400  1
  S  S293  1  0.20376198  0.84921775  0.34423670  1
  S  S294  1  0.52477128  0.91622964  0.27514554  1
  S  S295  1  0.50520348  0.59282815  0.29571464  1
  S  S296  1  0.18316557  0.52888085  0.37006817  1
  S  S297  1  0.87462336  0.61746699  0.37425930  1
  S  S298  1  0.19592729  0.67934776  0.29898747  1
  S  S299  1  0.83165800  0.83098756  0.26970937  1
  S  S300  1  0.51293737  0.76305019  0.34013562  1
  S  S301  1  0.65355261  0.29560530  0.30719256  1
  S  S302  1  0.33763539  0.23516531  0.37869520  1
  S  S303  1  0.04881026  0.15384984  0.33275803  1
  S  S304  1  0.37421019  0.21483741  0.26107633  1
  S  S305  1  0.74444650  0.64679378  0.29034146  1
  S  S306  1  0.42689593  0.57736188  0.36104163  1
  S  S307  1  0.96576499  0.79408244  0.35176150  1
  S  S308  1  0.28714110  0.86138182  0.27937870  1
  S  S309  1  0.84956489  0.27971007  0.37492552  1
  S  S310  1  0.17537328  0.34294537  0.30435682  1
  S  S311  1  0.85382557  0.16760078  0.26522257  1
  S  S312  1  0.53702855  0.09782994  0.33766552  1
  S  S313  1  0.98326333  0.39810148  0.50114402  1
  S  S314  1  0.33729749  0.48249323  0.42822336  1
  S  S315  1  0.40817668  0.78931614  0.42535423  1
  S  S316  1  0.23205865  0.22987206  0.44602469  1
  S  S317  1  0.16908666  0.94949624  0.45930026  1
  S  S318  1  0.99935325  0.98560071  0.40547674  1
  S  S319  1  0.32909330  0.27127510  0.50525309  1
  S  S320  1  0.72615662  0.26332392  0.44735095  1
  S  S321  1  0.56913307  0.75324819  0.48102745  1
  S  S322  1  0.87552073  0.79465765  0.41810254  1
  S  S323  1  0.83761927  0.46350422  0.44099969  1
  S  S324  1  0.54538597  0.56604717  0.44135247  1
  S  S325  1  0.18540906  0.70899329  0.41272999  1
  S  S326  1  0.87020779  0.63393544  0.48203323  1
  S  S327  1  0.00088134  0.16724889  0.44491174  1
  S  S328  1  0.40192608  0.04085863  0.47755494  1
  S  S329  1  0.71862895  0.08606512  0.40530615  1
  S  S330  1  0.10450008  0.52390485  0.43665669  1
  S  S331  1  0.74324913  0.49890419  0.50664796  1
  S  S332  1  0.64243907  0.73694168  0.41472483  1
  S  S333  1  0.17909050  0.14924254  0.50997238  1
  S  S334  1  0.51624233  0.22289288  0.44543865  1
  S  S335  1  0.19830080  0.04279118  0.39867529  1
  S  S336  1  0.41756336  0.31711236  0.57687872  1
  S  S337  1  0.99009190  0.92153269  0.49948559  1
  S  S338  1  0.33786519  0.00347582  0.57493628  1
  S  S339  1  0.16162857  0.46231876  0.53845217  1
  S  S340  1  0.47754596  0.53853364  0.60559878  1
  S  S341  1  0.19715848  0.79276033  0.55526898  1
  S  S342  1  0.59864643  0.84491874  0.61041320  1
  S  S343  1  0.33247511  0.81935151  0.50277995  1
  S  S344  1  0.73491795  0.78482611  0.54870322  1
  S  S345  1  0.01307737  0.51390207  0.59862125  1
  S  S346  1  0.84749530  0.98432371  0.55894266  1
  S  S347  1  0.55828804  0.28502019  0.51810698  1
  S  S348  1  0.88035897  0.31692426  0.58085939  1
  S  S349  1  0.19802726  0.23245224  0.59087514  1
  S  S350  1  0.86830795  0.15575251  0.51571694  1
  S  S351  1  0.54892966  0.09219359  0.55733217  1
  S  S352  1  0.38392290  0.59359775  0.53198727  1
  S  S353  1  0.72359836  0.61347958  0.59227530  1
  S  S354  1  0.99956554  0.68324700  0.55237678  1
  S  S355  1  0.65365829  0.25811257  0.58323769  1
  S  S356  1  0.09832713  0.06271664  0.56960578  1
  S  S357  1  0.74778247  0.00926759  0.49362380  1
  S  S358  1  0.20964297  0.56981524  0.59531788  1
  S  S359  1  0.19369839  0.69100912  0.48920447  1
  S  S360  1  0.51837127  0.76035366  0.55467378  1
  S  S361  1  0.06264822  0.44000720  0.71431926  1
  S  S362  1  0.73888490  0.37331421  0.64247768  1
  S  S363  1  0.66923731  0.06312407  0.64529436  1
  S  S364  1  0.98915772  0.13638334  0.71363328  1
  S  S365  1  0.80694535  0.59810752  0.67613275  1
  S  S366  1  0.14546719  0.65794636  0.74521047  1
  S  S367  1  0.91870102  0.90977877  0.68165887  1
  S  S368  1  0.23801093  0.97115839  0.75428753  1
  S  S369  1  0.06606695  0.85423174  0.62215260  1
  S  S370  1  0.38985404  0.91973659  0.69590277  1
  S  S371  1  0.66331807  0.65070288  0.73672389  1
  S  S372  1  0.34447337  0.58668712  0.66779545  1
  S  S373  1  0.51564013  0.12243169  0.70374901  1
  S  S374  1  0.19008299  0.05796125  0.63454159  1
  S  S375  1  0.21572718  0.37881014  0.65613709  1
  S  S376  1  0.53998386  0.44563987  0.72520433  1
  S  S377  1  0.84412544  0.35994252  0.73008535  1
  S  S378  1  0.52544311  0.29187938  0.65951473  1
  S  S379  1  0.88064829  0.14645544  0.62699380  1
  S  S380  1  0.20675952  0.21056495  0.70156126  1
  S  S381  1  0.06119064  0.68254777  0.66763822  1
  S  S382  1  0.38590813  0.74491732  0.73972195  1
  S  S383  1  0.66583782  0.82493137  0.69198998  1
  S  S384  1  0.34189825  0.76396994  0.62362674  1
  S  S385  1  0.97226420  0.32810998  0.64583916  1
  S  S386  1  0.29936033  0.39173774  0.72096956  1
  S  S387  1  0.75574943  0.17563337  0.71068206  1
  S  S388  1  0.43442538  0.11024312  0.63841997  1
  S  S389  1  0.86655519  0.69693409  0.73391495  1
  S  S390  1  0.54724857  0.63265207  0.66309877  1
  S  S391  1  0.86276861  0.80576908  0.62438088  1
  S  S392  1  0.18814172  0.86907240  0.69562498  1
  S  S393  1  0.71362567  0.56508105  0.85317789  1
  S  S394  1  0.39801917  0.49335099  0.78599783  1
  S  S395  1  0.32412884  0.19128331  0.78608421  1
  S  S396  1  0.64178060  0.25659630  0.85656014  1
  S  S397  1  0.46516304  0.71886304  0.81764802  1
  S  S398  1  0.79077954  0.78427984  0.88741019  1
  S  S399  1  0.57773257  0.03129714  0.82301391  1
  S  S400  1  0.90303881  0.09483445  0.89553974  1
  S  S401  1  0.72363561  0.97999313  0.76276558  1
  S  S402  1  0.04338301  0.04100265  0.83472181  1
  S  S403  1  0.32213849  0.77229405  0.87809826  1
  S  S404  1  0.99714033  0.71049099  0.80469648  1
  S  S405  1  0.17073195  0.25242838  0.84418519  1
  S  S406  1  0.85066813  0.18302799  0.77505633  1
  S  S407  1  0.86938648  0.50749870  0.79542791  1
  S  S408  1  0.19243316  0.57186894  0.87038096  1
  S  S409  1  0.50068940  0.48240233  0.87429305  1
  S  S410  1  0.17966891  0.42150999  0.79899994  1
  S  S411  1  0.54293518  0.26918355  0.76962886  1
  S  S412  1  0.86257642  0.33703870  0.83980585  1
  S  S413  1  0.72052539  0.80534856  0.80714510  1
  S  S414  1  0.03629443  0.86543085  0.87817552  1
  S  S415  1  0.32509822  0.94599935  0.83244863  1
  S  S416  1  0.00090107  0.88448292  0.76058260  1
  S  S417  1  0.63119856  0.45265390  0.79021262  1
  S  S418  1  0.94753761  0.52357210  0.86075103  1
  S  S419  1  0.40793283  0.30725212  0.85173539  1
  S  S420  1  0.08776646  0.24007532  0.77932000  1
  S  S421  1  0.52533027  0.82078599  0.87449359  1
  S  S422  1  0.19933645  0.75690883  0.80411074  1
  S  S423  1  0.52041981  0.93326721  0.76491037  1
  S  S424  1  0.83646154  0.00326071  0.83733918  1
  S  S425  1  0.39049282  0.70201046  0.99995233  1
  S  S426  1  0.03821156  0.61785300  0.92848951  1
  S  S427  1  0.96706690  0.31078733  0.92513251  1
  S  S428  1  0.14238426  0.87173113  0.94533603  1
  S  S429  1  0.20758002  0.15146814  0.95871959  1
  S  S430  1  0.37579130  0.11394842  0.90429717  1
  S  S431  1  0.04521187  0.82825269  0.00430974  1
  S  S432  1  0.64874869  0.83701247  0.94679214  1
  S  S433  1  0.80565505  0.34705109  0.98070092  1
  S  S434  1  0.49965875  0.30457009  0.91797127  1
  S  S435  1  0.53912605  0.63558424  0.94054894  1
  S  S436  1  0.83022983  0.53404033  0.94121095  1
  S  S437  1  0.18959010  0.39137443  0.91292285  1
  S  S438  1  0.50428857  0.46581265  0.98142744  1
  S  S439  1  0.37440516  0.93339912  0.94434380  1
  S  S440  1  0.97257236  0.05955860  0.97711696  1
  S  S441  1  0.65566576  0.01421373  0.90468032  1
  S  S442  1  0.27105101  0.57609984  0.93693927  1
  S  S443  1  0.63068288  0.60063555  0.00648874  1
  S  S444  1  0.73296753  0.36385798  0.91424944  1
  S  S445  1  0.19532658  0.95030312  0.00951644  1
  S  S446  1  0.85826634  0.87826413  0.94481716  1
  S  S447  1  0.17602390  0.05822317  0.89832798  1
