# generated using pymatgen
data_Li3PS4
_symmetry_space_group_name_H-M   'P 1'
_cell_length_a   14.91536200
_cell_length_b   18.09023401
_cell_length_c   53.40595037
_cell_angle_alpha   90.00000000
_cell_angle_beta   90.00000000
_cell_angle_gamma   54.48401034
_symmetry_Int_Tables_number   1
_chemical_formula_structural   Li3PS4
_chemical_formula_sum   'Li216 P72 S288'
_cell_volume   11729.16748871
_cell_formula_units_Z   72
loop_
 _symmetry_equiv_pos_site_id
 _symmetry_equiv_pos_as_xyz
  1  'x, y, z'
loop_
 _atom_site_type_symbol
 _atom_site_label
 _atom_site_symmetry_multiplicity
 _atom_site_fract_x
 _atom_site_fract_y
 _atom_site_fract_z
 _atom_site_occupancy
  Li  Li0  1  0.86907009  0.92493484  0.99422293  1
  Li  Li1  1  0.45420910  0.71026860  0.06765291  1
  Li  Li2  1  0.67481359  0.01878228  0.04695799  1
  Li  Li3  1  0.64860605  0.55330347  0.03879237  1
  Li  Li4  1  0.45934718  0.46196962  0.08521230  1
  Li  Li5  1  0.40387436  0.10714718  0.08493881  1
  Li  Li6  1  0.58595242  0.28408002  0.03171330  1
  Li  Li7  1  0.21355402  0.17829073  0.04032955  1
  Li  Li8  1  0.93648240  0.47945209  0.07939479  1
  Li  Li9  1  0.23292710  0.56403315  0.03029267  1
  Li  Li10  1  0.96635078  0.12177268  0.02973916  1
  Li  Li11  1  0.43024241  0.18335099  0.02446287  1
  Li  Li12  1  0.02100821  0.62988298  0.07490358  1
  Li  Li13  1  0.27633667  0.76832243  0.00948509  1
  Li  Li14  1  0.63669502  0.82163207  0.05111940  1
  Li  Li15  1  0.73169770  0.37189503  0.04324239  1
  Li  Li16  1  0.44303201  0.25668402  0.09372307  1
  Li  Li17  1  0.97225882  0.29510425  0.08905381  1
  Li  Li18  1  0.98708727  0.46763176  0.02268244  1
  Li  Li19  1  0.06620666  0.85785238  0.04435517  1
  Li  Li20  1  0.19814342  0.54521647  0.12525718  1
  Li  Li21  1  0.93071238  0.44150106  0.17590562  1
  Li  Li22  1  0.38843223  0.92185276  0.09560241  1
  Li  Li23  1  0.10663847  0.81803879  0.15763126  1
  Li  Li24  1  0.19371971  0.34330245  0.13881925  1
  Li  Li25  1  0.89868733  0.24409722  0.19651785  1
  Li  Li26  1  0.84439493  0.91104443  0.19335096  1
  Li  Li27  1  0.12004911  0.01151706  0.13721679  1
  Li  Li28  1  0.65888762  0.00309497  0.14570384  1
  Li  Li29  1  0.92545990  0.13201778  0.08705995  1
  Li  Li30  1  0.38058962  0.26463951  0.18692699  1
  Li  Li31  1  0.65907747  0.37024013  0.12997657  1
  Li  Li32  1  0.58401217  0.83091384  0.14652460  1
  Li  Li33  1  0.87535625  0.93818001  0.09028573  1
  Li  Li34  1  0.46541957  0.42605788  0.18374476  1
  Li  Li35  1  0.72475547  0.54206120  0.13012802  1
  Li  Li36  1  0.97573344  0.64178352  0.16517706  1
  Li  Li37  1  0.24901586  0.75284390  0.10544867  1
  Li  Li38  1  0.16170811  0.16259135  0.14783993  1
  Li  Li39  1  0.88531460  0.05837027  0.20190368  1
  Li  Li40  1  0.41369461  0.08158493  0.19785761  1
  Li  Li41  1  0.69243920  0.18654670  0.14142971  1
  Li  Li42  1  0.80142718  0.74784360  0.10196232  1
  Li  Li43  1  0.51454128  0.62799473  0.17308482  1
  Li  Li44  1  0.64356970  0.34051791  0.23575712  1
  Li  Li45  1  0.37562126  0.22966501  0.28791770  1
  Li  Li46  1  0.82874588  0.71746152  0.21159785  1
  Li  Li47  1  0.55961756  0.60554801  0.26397414  1
  Li  Li48  1  0.63013371  0.13873750  0.25066159  1
  Li  Li49  1  0.34907013  0.03705002  0.30720339  1
  Li  Li50  1  0.30557261  0.70079362  0.30346073  1
  Li  Li51  1  0.57224885  0.80309059  0.24861954  1
  Li  Li52  1  0.09748969  0.79633314  0.25721014  1
  Li  Li53  1  0.37868313  0.90339187  0.19974579  1
  Li  Li54  1  0.82591344  0.04465185  0.29982405  1
  Li  Li55  1  0.10383850  0.15680200  0.24205049  1
  Li  Li56  1  0.02832276  0.62115446  0.25785782  1
  Li  Li57  1  0.29524581  0.73360010  0.20351897  1
  Li  Li58  1  0.90789499  0.21328119  0.29643954  1
  Li  Li59  1  0.17573177  0.32590407  0.24185648  1
  Li  Li60  1  0.42059688  0.43349290  0.27633518  1
  Li  Li61  1  0.78286714  0.51250506  0.22317640  1
  Li  Li62  1  0.60644318  0.95661156  0.25544569  1
  Li  Li63  1  0.31948503  0.88398595  0.30003111  1
  Li  Li64  1  0.80173732  0.86482780  0.30318949  1
  Li  Li65  1  0.12061503  0.97710055  0.25169187  1
  Li  Li66  1  0.23947682  0.53528414  0.21321055  1
  Li  Li67  1  0.96360003  0.41253791  0.28654768  1
  Li  Li68  1  0.09436942  0.12972867  0.34278310  1
  Li  Li69  1  0.81365544  0.02724904  0.40431360  1
  Li  Li70  1  0.27304175  0.50580072  0.32379945  1
  Li  Li71  1  0.00436510  0.40333413  0.37446225  1
  Li  Li72  1  0.08156754  0.93577226  0.36305330  1
  Li  Li73  1  0.79847393  0.84148048  0.41530955  1
  Li  Li74  1  0.74390966  0.48730711  0.41487272  1
  Li  Li75  1  0.01135266  0.60359979  0.36121769  1
  Li  Li76  1  0.54517505  0.57698627  0.36995752  1
  Li  Li77  1  0.82459438  0.68466224  0.31245605  1
  Li  Li78  1  0.27747209  0.81694797  0.41291548  1
  Li  Li79  1  0.54382426  0.94578767  0.35417149  1
  Li  Li80  1  0.47794621  0.40563630  0.36954179  1
  Li  Li81  1  0.73768195  0.52257980  0.31579788  1
  Li  Li82  1  0.32597991  0.00982963  0.40975287  1
  Li  Li83  1  0.61983960  0.11677943  0.35347863  1
  Li  Li84  1  0.95136459  0.19702031  0.39449581  1
  Li  Li85  1  0.22880568  0.30534578  0.33471329  1
  Li  Li86  1  0.04252161  0.78433106  0.35295494  1
  Li  Li87  1  0.76070505  0.69174984  0.40666711  1
  Li  Li88  1  0.23351935  0.65190634  0.41122931  1
  Li  Li89  1  0.51305361  0.75994255  0.35851032  1
  Li  Li90  1  0.68783841  0.32050520  0.32635013  1
  Li  Li91  1  0.40105511  0.20004608  0.39793313  1
  Li  Li92  1  0.52658047  0.93089203  0.45292285  1
  Li  Li93  1  0.74717553  0.23941429  0.43234364  1
  Li  Li94  1  0.33095652  0.02501360  0.50578957  1
  Li  Li95  1  0.61564551  0.66565718  0.46825571  1
  Li  Li96  1  0.55451804  0.39567972  0.46109817  1
  Li  Li97  1  0.96970859  0.38533586  0.46943544  1
  Li  Li98  1  0.26694032  0.46888897  0.42081157  1
  Li  Li99  1  0.98924052  0.76997158  0.45971089  1
  Li  Li100  1  0.92410468  0.18164571  0.49013255  1
  Li  Li101  1  0.18182605  0.31876454  0.42491885  1
  Li  Li102  1  0.77049448  0.76682921  0.47570315  1
  Li  Li103  1  0.23369944  0.82848135  0.47036761  1
  Li  Li104  1  0.56593419  0.12730597  0.44880693  1
  Li  Li105  1  0.47124773  0.57727251  0.45706494  1
  Li  Li106  1  0.21358864  0.48067626  0.47755911  1
  Li  Li107  1  0.13483943  0.09190832  0.45546485  1
  Li  Li108  1  0.83267166  0.02424926  0.49426548  1
  Li  Li109  1  0.24572882  0.24045577  0.56770629  1
  Li  Li110  1  0.02594825  0.93091830  0.54712607  1
  Li  Li111  1  0.05055161  0.39676798  0.53871908  1
  Li  Li112  1  0.24019204  0.48837197  0.58522393  1
  Li  Li113  1  0.29638635  0.84298083  0.58508397  1
  Li  Li114  1  0.11378275  0.66581806  0.53172358  1
  Li  Li115  1  0.48624946  0.77186258  0.54041107  1
  Li  Li116  1  0.76368420  0.47035943  0.57935202  1
  Li  Li117  1  0.46673399  0.38588406  0.53040252  1
  Li  Li118  1  0.73261378  0.82885026  0.52987390  1
  Li  Li119  1  0.26980623  0.76674549  0.52450791  1
  Li  Li120  1  0.67965044  0.31978760  0.57490746  1
  Li  Li121  1  0.42389362  0.18126067  0.50965104  1
  Li  Li122  1  0.06380895  0.12821269  0.55110650  1
  Li  Li123  1  0.96887463  0.57743448  0.54346719  1
  Li  Li124  1  0.25734236  0.69332723  0.59383508  1
  Li  Li125  1  0.72787365  0.65497195  0.58917304  1
  Li  Li126  1  0.71301733  0.48276868  0.52276447  1
  Li  Li127  1  0.63411236  0.09246675  0.54438764  1
  Li  Li128  1  0.50205956  0.40468012  0.62524739  1
  Li  Li129  1  0.77022173  0.50821320  0.67614814  1
  Li  Li130  1  0.31148852  0.02855614  0.59549616  1
  Li  Li131  1  0.59285575  0.13278618  0.65771664  1
  Li  Li132  1  0.50710843  0.60657220  0.63894976  1
  Li  Li133  1  0.80213131  0.70384974  0.69658947  1
  Li  Li134  1  0.85345958  0.03763647  0.69332104  1
  Li  Li135  1  0.57846863  0.93876615  0.63709839  1
  Li  Li136  1  0.04103695  0.94710501  0.64574732  1
  Li  Li137  1  0.77492619  0.81836175  0.58717234  1
  Li  Li138  1  0.31984157  0.68544259  0.68699195  1
  Li  Li139  1  0.04078743  0.58011561  0.63000810  1
  Li  Li140  1  0.11769142  0.11821947  0.64659428  1
  Li  Li141  1  0.82429622  0.01178730  0.59023753  1
  Li  Li142  1  0.23326514  0.52411395  0.68366939  1
  Li  Li143  1  0.97509122  0.40785613  0.63010798  1
  Li  Li144  1  0.72613828  0.30769514  0.66516978  1
  Li  Li145  1  0.45050931  0.19769237  0.60562621  1
  Li  Li146  1  0.53792460  0.78775933  0.64786751  1
  Li  Li147  1  0.81745338  0.88613062  0.69976163  1
  Li  Li148  1  0.28573576  0.86897131  0.69818460  1
  Li  Li149  1  0.00888189  0.76283201  0.64133379  1
  Li  Li150  1  0.89898446  0.20170853  0.60200455  1
  Li  Li151  1  0.18435942  0.32184081  0.67268205  1
  Li  Li152  1  0.05563701  0.60980582  0.73616355  1
  Li  Li153  1  0.32376992  0.71908390  0.78757231  1
  Li  Li154  1  0.87241356  0.23055193  0.71177374  1
  Li  Li155  1  0.14044357  0.34595173  0.76445217  1
  Li  Li156  1  0.06827824  0.81292213  0.75061408  1
  Li  Li157  1  0.34741959  0.91209145  0.80698494  1
  Li  Li158  1  0.39557055  0.24719553  0.80334216  1
  Li  Li159  1  0.13247400  0.14743867  0.74893026  1
  Li  Li160  1  0.59722134  0.16050827  0.75604811  1
  Li  Li161  1  0.32262924  0.04558234  0.70055474  1
  Li  Li162  1  0.87823954  0.89709267  0.80003876  1
  Li  Li163  1  0.59307064  0.79909707  0.74252236  1
  Li  Li164  1  0.67264269  0.32992195  0.75799424  1
  Li  Li165  1  0.40086866  0.21636116  0.70312265  1
  Li  Li166  1  0.79003349  0.73583826  0.79661502  1
  Li  Li167  1  0.52536470  0.62467519  0.74181246  1
  Li  Li168  1  0.28020706  0.51647281  0.77617202  1
  Li  Li169  1  0.91853696  0.43602591  0.72347096  1
  Li  Li170  1  0.08828721  0.99931106  0.75746792  1
  Li  Li171  1  0.38519895  0.06032245  0.79814821  1
  Li  Li172  1  0.85076080  0.07726372  0.80712219  1
  Li  Li173  1  0.61798181  0.97969180  0.74801522  1
  Li  Li174  1  0.45980176  0.41624015  0.71300499  1
  Li  Li175  1  0.73574815  0.53750615  0.78673361  1
  Li  Li176  1  0.60402078  0.82319970  0.84278323  1
  Li  Li177  1  0.88764942  0.92228384  0.90469758  1
  Li  Li178  1  0.42693986  0.44321603  0.82362872  1
  Li  Li179  1  0.69454225  0.54749150  0.87474369  1
  Li  Li180  1  0.62251620  0.01518946  0.86303351  1
  Li  Li181  1  0.90291781  0.10873882  0.91528902  1
  Li  Li182  1  0.95658422  0.46303919  0.91478868  1
  Li  Li183  1  0.68736397  0.34841759  0.86117289  1
  Li  Li184  1  0.15529814  0.37285542  0.86983236  1
  Li  Li185  1  0.87887911  0.25802908  0.81194100  1
  Li  Li186  1  0.42273860  0.13215074  0.91290007  1
  Li  Li187  1  0.15369234  0.00543917  0.85273818  1
  Li  Li188  1  0.22269974  0.54427885  0.86938201  1
  Li  Li189  1  0.96103962  0.42709555  0.81623393  1
  Li  Li190  1  0.37102617  0.94050718  0.90947851  1
  Li  Li191  1  0.08102719  0.83409424  0.85348742  1
  Li  Li192  1  0.74667102  0.75421296  0.89445351  1
  Li  Li193  1  0.47183401  0.64520039  0.83443515  1
  Li  Li194  1  0.65503918  0.17070171  0.85524303  1
  Li  Li195  1  0.94030281  0.25861445  0.90579357  1
  Li  Li196  1  0.46583145  0.29854307  0.91140311  1
  Li  Li197  1  0.18796843  0.18917278  0.85818731  1
  Li  Li198  1  0.01166436  0.62872835  0.82642477  1
  Li  Li199  1  0.29882073  0.75076768  0.89764728  1
  Li  Li200  1  0.17348653  0.02017775  0.95307352  1
  Li  Li201  1  0.95350239  0.71024297  0.93210815  1
  Li  Li202  1  0.36949068  0.92496480  0.00585176  1
  Li  Li203  1  0.08388626  0.28444504  0.96814969  1
  Li  Li204  1  0.14668258  0.55411408  0.96109386  1
  Li  Li205  1  0.73094188  0.56584538  0.96932988  1
  Li  Li206  1  0.43295682  0.48109133  0.92057790  1
  Li  Li207  1  0.71137645  0.17966260  0.95952150  1
  Li  Li208  1  0.77647853  0.76874021  0.99010379  1
  Li  Li209  1  0.51808032  0.63150977  0.92478600  1
  Li  Li210  1  0.92945094  0.18346132  0.97559865  1
  Li  Li211  1  0.46632184  0.12165928  0.97035248  1
  Li  Li212  1  0.13435903  0.82291368  0.94858900  1
  Li  Li213  1  0.22939991  0.37246386  0.95697773  1
  Li  Li214  1  0.48657410  0.46885908  0.97748870  1
  Li  Li215  1  0.56533930  0.85817237  0.95540060  1
  P  P216  1  0.93103601  0.77580573  0.03742416  1
  P  P217  1  0.52229902  0.99590898  0.01788084  1
  P  P218  1  0.21100094  0.91572770  0.06932287  1
  P  P219  1  0.18227680  0.36788326  0.08255406  1
  P  P220  1  0.46442544  0.52055682  0.03110017  1
  P  P221  1  0.96531340  0.30013468  0.03038765  1
  P  P222  1  0.68283451  0.20303699  0.08205793  1
  P  P223  1  0.64266075  0.68830919  0.09235619  1
  P  P224  1  0.35474943  0.58216772  0.14783165  1
  P  P225  1  0.95434424  0.79210950  0.12974925  1
  P  P226  1  0.67911426  0.68296385  0.18598863  1
  P  P227  1  0.62277613  0.16661226  0.19535219  1
  P  P228  1  0.89780450  0.27322667  0.14124621  1
  P  P229  1  0.41395926  0.09154983  0.13907576  1
  P  P230  1  0.13383691  0.99173406  0.19324984  1
  P  P231  1  0.08259472  0.47217704  0.20249851  1
  P  P232  1  0.80724942  0.36591656  0.26023161  1
  P  P233  1  0.39562951  0.58131230  0.23955682  1
  P  P234  1  0.12135556  0.47498598  0.29723185  1
  P  P235  1  0.07088770  0.95461144  0.30708541  1
  P  P236  1  0.34677556  0.05847820  0.25180816  1
  P  P237  1  0.85472071  0.88721898  0.24833762  1
  P  P238  1  0.57973815  0.78204543  0.30432047  1
  P  P239  1  0.52548192  0.26329574  0.31371712  1
  P  P240  1  0.24650413  0.15642851  0.37039440  1
  P  P241  1  0.84725945  0.36671170  0.35181157  1
  P  P242  1  0.55922380  0.26073123  0.40761376  1
  P  P243  1  0.51994382  0.74545088  0.41775740  1
  P  P244  1  0.78908502  0.85673255  0.36116889  1
  P  P245  1  0.30617730  0.67415142  0.35874809  1
  P  P246  1  0.02077170  0.58050968  0.41748005  1
  P  P247  1  0.99084006  0.03331902  0.43043251  1
  P  P248  1  0.67899957  0.95375611  0.48215210  1
  P  P249  1  0.27052221  0.17323963  0.46241910  1
  P  P250  1  0.23786335  0.64857667  0.46966459  1
  P  P251  1  0.73847955  0.42838224  0.46889512  1
  P  P252  1  0.76995183  0.17381465  0.53734564  1
  P  P253  1  0.17790393  0.95419358  0.51785480  1
  P  P254  1  0.48896865  0.03483512  0.56941849  1
  P  P255  1  0.51808907  0.58204772  0.58264422  1
  P  P256  1  0.23475108  0.42971434  0.53120000  1
  P  P257  1  0.73446699  0.65020568  0.53049970  1
  P  P258  1  0.01763360  0.74661718  0.58207103  1
  P  P259  1  0.05755863  0.26148442  0.59233514  1
  P  P260  1  0.34463060  0.36819452  0.64765544  1
  P  P261  1  0.74581124  0.15749968  0.62973158  1
  P  P262  1  0.02214540  0.26566662  0.68615022  1
  P  P263  1  0.07787951  0.78253933  0.69535013  1
  P  P264  1  0.80202141  0.67719978  0.64132053  1
  P  P265  1  0.28584962  0.85877469  0.63925440  1
  P  P266  1  0.56720827  0.95792034  0.69301848  1
  P  P267  1  0.61847036  0.47737306  0.70264610  1
  P  P268  1  0.89160052  0.58421565  0.76038711  1
  P  P269  1  0.30313609  0.36964457  0.73912742  1
  P  P270  1  0.57856760  0.47469156  0.79745712  1
  P  P271  1  0.63250221  0.99599266  0.80639288  1
  P  P272  1  0.35040001  0.89147395  0.75216176  1
  P  P273  1  0.84125885  0.06219458  0.74876866  1
  P  P274  1  0.12326299  0.16805921  0.80397158  1
  P  P275  1  0.17459340  0.68582540  0.81389409  1
  P  P276  1  0.45250511  0.79456238  0.86994344  1
  P  P277  1  0.85118149  0.58387676  0.85208154  1
  P  P278  1  0.14144507  0.68924286  0.90745892  1
  P  P279  1  0.18002848  0.20463717  0.91763056  1
  P  P280  1  0.90945322  0.09332758  0.86116909  1
  P  P281  1  0.39386572  0.27589120  0.85872545  1
  P  P282  1  0.67914472  0.36933114  0.91747980  1
  P  P283  1  0.70986685  0.91655945  0.93057050  1
  P  P284  1  0.02135890  0.99648447  0.98201352  1
  P  P285  1  0.42933762  0.77722292  0.96227803  1
  P  P286  1  0.46310284  0.30096775  0.96958420  1
  P  P287  1  0.96262116  0.52156103  0.96887503  1
  S  S288  1  0.08812031  0.70291541  0.05203437  1
  S  S289  1  0.36098453  0.08588233  0.00714832  1
  S  S290  1  0.04366257  0.99475600  0.06246497  1
  S  S291  1  0.08832612  0.47692574  0.05904038  1
  S  S292  1  0.33543634  0.60871734  0.00772738  1
  S  S293  1  0.04676334  0.19187549  0.05439593  1
  S  S294  1  0.86246830  0.29079068  0.00805631  1
  S  S295  1  0.58803013  0.17649066  0.06132865  1
  S  S296  1  0.50333070  0.55833006  0.06343797  1
  S  S297  1  0.54002941  0.98811984  0.05632056  1
  S  S298  1  0.62567492  0.69028740  0.05395623  1
  S  S299  1  0.93425002  0.76514877  0.99953523  1
  S  S300  1  0.57881301  0.86810593  0.00565509  1
  S  S301  1  0.26283821  0.78747752  0.05698514  1
  S  S302  1  0.87009607  0.91103204  0.04524889  1
  S  S303  1  0.85972526  0.42156357  0.05034749  1
  S  S304  1  0.29560445  0.25047248  0.06271194  1
  S  S305  1  0.60578516  0.46507508  0.01045312  1
  S  S306  1  0.84560692  0.73136523  0.05373644  1
  S  S307  1  0.29939857  0.95784937  0.05426206  1
  S  S308  1  0.60569356  0.04607221  0.00432478  1
  S  S309  1  0.42299991  0.43467080  0.04322341  1
  S  S310  1  0.08263984  0.30539643  0.01284067  1
  S  S311  1  0.76309338  0.23209468  0.05703158  1
  S  S312  1  0.80294939  0.60539623  0.10480262  1
  S  S313  1  0.52124553  0.49831490  0.15566431  1
  S  S314  1  0.79423420  0.87971234  0.11792289  1
  S  S315  1  0.51628966  0.76632124  0.17594607  1
  S  S316  1  0.52881835  0.27264321  0.17108583  1
  S  S317  1  0.80808232  0.38112774  0.11695524  1
  S  S318  1  0.51887228  0.98372040  0.16211919  1
  S  S319  1  0.79648267  0.09712862  0.10409133  1
  S  S320  1  0.31890779  0.07153160  0.11646935  1
  S  S321  1  0.03881489  0.97278575  0.17021054  1
  S  S322  1  0.27035623  0.39178096  0.10673482  1
  S  S323  1  0.98684133  0.28861938  0.16740814  1
  S  S324  1  0.97590342  0.78210652  0.16786446  1
  S  S325  1  0.24664313  0.89554874  0.10725311  1
  S  S326  1  0.05999585  0.47648741  0.16435321  1
  S  S327  1  0.31591204  0.59038122  0.11069767  1
  S  S328  1  0.00057322  0.66300211  0.11950032  1
  S  S329  1  0.72914529  0.55294404  0.17591362  1
  S  S330  1  0.59294245  0.81944471  0.10076339  1
  S  S331  1  0.30731887  0.71076698  0.15810604  1
  S  S332  1  0.30163543  0.19908980  0.16232446  1
  S  S333  1  0.57486696  0.30869998  0.10592574  1
  S  S334  1  0.74101492  0.05959201  0.17282362  1
  S  S335  1  0.01498958  0.16591007  0.11901202  1
  S  S336  1  0.27947962  0.53190826  0.16601129  1
  S  S337  1  0.54970400  0.65485790  0.10944683  1
  S  S338  1  0.76047384  0.72908466  0.16884142  1
  S  S339  1  0.04106037  0.83645851  0.11448255  1
  S  S340  1  0.08137724  0.35126905  0.10426051  1
  S  S341  1  0.79309757  0.25389513  0.15992105  1
  S  S342  1  0.51035034  0.11454002  0.11796414  1
  S  S343  1  0.22846733  0.01594705  0.17216717  1
  S  S344  1  0.24423930  0.39130766  0.21363674  1
  S  S345  1  0.97206193  0.28180609  0.26941183  1
  S  S346  1  0.23066942  0.66595998  0.23066692  1
  S  S347  1  0.95961102  0.55580399  0.28613529  1
  S  S348  1  0.96934496  0.06125189  0.28350865  1
  S  S349  1  0.25245892  0.16717802  0.22843671  1
  S  S350  1  0.95357624  0.77830815  0.27147967  1
  S  S351  1  0.23869195  0.88403227  0.21635728  1
  S  S352  1  0.75976576  0.87123455  0.22427500  1
  S  S353  1  0.49139680  0.76070423  0.27952265  1
  S  S354  1  0.71149177  0.18596221  0.22065529  1
  S  S355  1  0.43687054  0.07544876  0.27723171  1
  S  S356  1  0.42919150  0.56995802  0.27711171  1
  S  S357  1  0.70834035  0.67465269  0.22392253  1
  S  S358  1  0.49805002  0.27047178  0.27573613  1
  S  S359  1  0.77471386  0.37608328  0.22267841  1
  S  S360  1  0.44388653  0.45207827  0.22906546  1
  S  S361  1  0.17458846  0.34383197  0.28749503  1
  S  S362  1  0.02946815  0.60327850  0.21227801  1
  S  S363  1  0.75887912  0.49539705  0.27052686  1
  S  S364  1  0.74082592  0.99197433  0.27216704  1
  S  S365  1  0.02110002  0.09628836  0.21734080  1
  S  S366  1  0.18541294  0.84958407  0.28328357  1
  S  S367  1  0.46296157  0.95300211  0.22870934  1
  S  S368  1  0.72545320  0.32038048  0.27743680  1
  S  S369  1  0.00089530  0.42578027  0.21935124  1
  S  S370  1  0.20312114  0.52128744  0.28040009  1
  S  S371  1  0.47777372  0.62653893  0.22235625  1
  S  S372  1  0.52286323  0.14411048  0.21503839  1
  S  S373  1  0.24571920  0.03541418  0.27111545  1
  S  S374  1  0.95237860  0.91148200  0.22853412  1
  S  S375  1  0.67886474  0.80554850  0.28424827  1
  S  S376  1  0.68803970  0.18078467  0.32406889  1
  S  S377  1  0.40698048  0.06830032  0.38199974  1
  S  S378  1  0.68107360  0.45050055  0.34369047  1
  S  S379  1  0.39906831  0.34332737  0.39509341  1
  S  S380  1  0.40675518  0.85086306  0.39552293  1
  S  S381  1  0.68518224  0.96379217  0.33786727  1
  S  S382  1  0.39644482  0.56611791  0.38292527  1
  S  S383  1  0.67692822  0.67603843  0.32829767  1
  S  S384  1  0.21640836  0.65867473  0.33284099  1
  S  S385  1  0.93290092  0.55666479  0.39319871  1
  S  S386  1  0.16435929  0.97405375  0.33062613  1
  S  S387  1  0.88377788  0.87694778  0.38385361  1
  S  S388  1  0.88544323  0.35924626  0.38897010  1
  S  S389  1  0.14392357  0.47080272  0.33540261  1
  S  S390  1  0.95529319  0.05346834  0.39249179  1
  S  S391  1  0.22327461  0.16726050  0.33234401  1
  S  S392  1  0.89435493  0.23797723  0.34181332  1
  S  S393  1  0.60922815  0.12945103  0.39925901  1
  S  S394  1  0.47427120  0.39367688  0.32375325  1
  S  S395  1  0.20174058  0.28530225  0.38042332  1
  S  S396  1  0.18944085  0.78127972  0.38111532  1
  S  S397  1  0.46213031  0.88797727  0.32714691  1
  S  S398  1  0.62875433  0.63963878  0.39395604  1
  S  S399  1  0.90261317  0.74867877  0.33807813  1
  S  S400  1  0.15978794  0.11246901  0.38588383  1
  S  S401  1  0.44411387  0.21694874  0.33077784  1
  S  S402  1  0.65233926  0.29404366  0.39055383  1
  S  S403  1  0.92308981  0.41657390  0.33366451  1
  S  S404  1  0.97488812  0.93071505  0.32769403  1
  S  S405  1  0.69225392  0.83396754  0.38212783  1
  S  S406  1  0.41055527  0.69357791  0.33989775  1
  S  S407  1  0.12183832  0.59741921  0.39596609  1
  S  S408  1  0.15823179  0.95444903  0.43734021  1
  S  S409  1  0.84024567  0.86333299  0.49287105  1
  S  S410  1  0.11376672  0.24634140  0.44765551  1
  S  S411  1  0.15603909  0.75671808  0.44559412  1
  S  S412  1  0.86793314  0.34001314  0.49204853  1
  S  S413  1  0.11475039  0.47117368  0.44091291  1
  S  S414  1  0.69988679  0.39084268  0.43646781  1
  S  S415  1  0.61377208  0.77273605  0.43862200  1
  S  S416  1  0.33978331  0.65879051  0.49208823  1
  S  S417  1  0.26638465  0.18440824  0.50030254  1
  S  S418  1  0.57589314  0.25913449  0.44601860  1
  S  S419  1  0.66192453  0.96114406  0.44368867  1
  S  S420  1  0.33119421  0.03800158  0.45470558  1
  S  S421  1  0.93867917  0.16175226  0.44269772  1
  S  S422  1  0.62264276  0.08153766  0.49432798  1
  S  S423  1  0.59746495  0.48293401  0.48961313  1
  S  S424  1  0.90703077  0.69764240  0.43740069  1
  S  S425  1  0.34406181  0.52739048  0.44966107  1
  S  S426  1  0.59469773  0.90430915  0.49562096  1
  S  S427  1  0.90285261  0.99099100  0.44557629  1
  S  S428  1  0.35687453  0.21699505  0.44618412  1
  S  S429  1  0.43919651  0.71674283  0.44270327  1
  S  S430  1  0.12064492  0.64259823  0.48701739  1
  S  S431  1  0.77895968  0.51508801  0.45693166  1
  S  S432  1  0.61267609  0.24678603  0.55188120  1
  S  S433  1  0.33910060  0.86398622  0.50711754  1
  S  S434  1  0.65642747  0.95579310  0.56262974  1
  S  S435  1  0.61162690  0.47309343  0.55905571  1
  S  S436  1  0.36414103  0.34092279  0.50802607  1
  S  S437  1  0.65292755  0.75822420  0.55458985  1
  S  S438  1  0.83734485  0.65989631  0.50829272  1
  S  S439  1  0.11251936  0.77285363  0.56124677  1
  S  S440  1  0.19451054  0.39305038  0.56356884  1
  S  S441  1  0.16062941  0.96192713  0.55630685  1
  S  S442  1  0.07491141  0.25937946  0.55394167  1
  S  S443  1  0.76713116  0.18407982  0.49944590  1
  S  S444  1  0.12160694  0.08192842  0.50562717  1
  S  S445  1  0.43720521  0.16308776  0.55710673  1
  S  S446  1  0.83069008  0.03867503  0.54527303  1
  S  S447  1  0.84010535  0.52840807  0.55031886  1
  S  S448  1  0.40455664  0.69960754  0.56286835  1
  S  S449  1  0.09383513  0.48499376  0.51038605  1
  S  S450  1  0.85511106  0.21838326  0.55372232  1
  S  S451  1  0.40103774  0.99248469  0.55424319  1
  S  S452  1  0.09411541  0.90422834  0.50439417  1
  S  S453  1  0.27662725  0.51536412  0.54323965  1
  S  S454  1  0.61710638  0.64502952  0.51291854  1
  S  S455  1  0.93699882  0.71753254  0.55719968  1
  S  S456  1  0.89722241  0.34440957  0.60474188  1
  S  S457  1  0.17812454  0.45148635  0.65549706  1
  S  S458  1  0.90582501  0.06980027  0.61785958  1
  S  S459  1  0.18521613  0.18244560  0.67620733  1
  S  S460  1  0.17206159  0.67674422  0.67103040  1
  S  S461  1  0.89185170  0.56926943  0.61704945  1
  S  S462  1  0.18073311  0.96630537  0.66233895  1
  S  S463  1  0.90445997  0.85271750  0.60413055  1
  S  S464  1  0.38042872  0.87938932  0.61664239  1
  S  S465  1  0.66073564  0.97744485  0.66955953  1
  S  S466  1  0.43014360  0.55816384  0.60687929  1
  S  S467  1  0.71277802  0.66147941  0.66733057  1
  S  S468  1  0.72468003  0.16762707  0.66786993  1
  S  S469  1  0.45288317  0.05512066  0.60731875  1
  S  S470  1  0.64121856  0.47310802  0.66449461  1
  S  S471  1  0.38387802  0.36013664  0.61055033  1
  S  S472  1  0.69968562  0.28666462  0.61954195  1
  S  S473  1  0.97170895  0.39569245  0.67594298  1
  S  S474  1  0.10731531  0.13041629  0.60079452  1
  S  S475  1  0.39228958  0.23937044  0.65776822  1
  S  S476  1  0.39864968  0.75122751  0.66243594  1
  S  S477  1  0.12561190  0.64109830  0.60598532  1
  S  S478  1  0.95966369  0.88957030  0.67272354  1
  S  S479  1  0.68518616  0.78445993  0.61903882  1
  S  S480  1  0.41942444  0.41880757  0.66585686  1
  S  S481  1  0.15040350  0.29494820  0.60947197  1
  S  S482  1  0.94121010  0.21904914  0.66903239  1
  S  S483  1  0.65873724  0.11344863  0.61451532  1
  S  S484  1  0.61942797  0.59829451  0.60428752  1
  S  S485  1  0.90681129  0.69633590  0.66007704  1
  S  S486  1  0.18976823  0.83557049  0.61808865  1
  S  S487  1  0.47125709  0.93416883  0.67237961  1
  S  S488  1  0.45667119  0.55876357  0.71367954  1
  S  S489  1  0.72640131  0.66843559  0.76913502  1
  S  S490  1  0.46688424  0.28539146  0.72920076  1
  S  S491  1  0.74099299  0.39346513  0.78695370  1
  S  S492  1  0.73459015  0.88656680  0.78359731  1
  S  S493  1  0.44646644  0.78341646  0.72864223  1
  S  S494  1  0.74074684  0.17312558  0.77124189  1
  S  S495  1  0.46536288  0.06434607  0.71666283  1
  S  S496  1  0.93674333  0.07720076  0.72476551  1
  S  S497  1  0.21286554  0.19057401  0.77982857  1
  S  S498  1  0.98866556  0.76350592  0.72056657  1
  S  S499  1  0.25921630  0.87366956  0.77710479  1
  S  S500  1  0.27399857  0.37902065  0.77687070  1
  S  S501  1  0.99271765  0.27373912  0.72405563  1
  S  S502  1  0.19871754  0.68036463  0.77579880  1
  S  S503  1  0.92583504  0.57294369  0.72289626  1
  S  S504  1  0.25458330  0.49920376  0.72897246  1
  S  S505  1  0.52540652  0.60559366  0.78741442  1
  S  S506  1  0.67115220  0.34633539  0.71237974  1
  S  S507  1  0.94058547  0.45483127  0.77089235  1
  S  S508  1  0.95338093  0.95841093  0.77278662  1
  S  S509  1  0.68168648  0.85263094  0.71677740  1
  S  S510  1  0.51932959  0.09970200  0.78237476  1
  S  S511  1  0.23477559  0.99740130  0.72903817  1
  S  S512  1  0.97264517  0.63036433  0.77767148  1
  S  S513  1  0.70062196  0.52317009  0.71959467  1
  S  S514  1  0.49736688  0.42818746  0.78037817  1
  S  S515  1  0.21936024  0.32526692  0.72233029  1
  S  S516  1  0.17692665  0.80552134  0.71511232  1
  S  S517  1  0.45073873  0.91453328  0.77140744  1
  S  S518  1  0.74368716  0.03786289  0.72840319  1
  S  S519  1  0.02542513  0.14446667  0.78385789  1
  S  S520  1  0.01309017  0.76739544  0.82506129  1
  S  S521  1  0.29114816  0.88278772  0.88098343  1
  S  S522  1  0.01741790  0.49987442  0.84398802  1
  S  S523  1  0.30145077  0.60680698  0.89484047  1
  S  S524  1  0.29326049  0.09889957  0.89549764  1
  S  S525  1  0.00944514  0.98786009  0.83723543  1
  S  S526  1  0.30385197  0.38398118  0.88288903  1
  S  S527  1  0.02406850  0.27307116  0.82811491  1
  S  S528  1  0.48430862  0.29036032  0.83278769  1
  S  S529  1  0.76647704  0.39391819  0.89323198  1
  S  S530  1  0.53921116  0.97831475  0.83036732  1
  S  S531  1  0.81647961  0.07258023  0.88440374  1
  S  S532  1  0.81322327  0.59168882  0.88927490  1
  S  S533  1  0.55348735  0.48039759  0.83552706  1
  S  S534  1  0.74559953  0.89672153  0.89262585  1
  S  S535  1  0.47799118  0.78301455  0.83199198  1
  S  S536  1  0.80411931  0.71255859  0.84196766  1
  S  S537  1  0.09137616  0.82069055  0.89921288  1
  S  S538  1  0.22622727  0.55513066  0.82358773  1
  S  S539  1  0.49719547  0.66594600  0.88024348  1
  S  S540  1  0.51038518  0.16896867  0.88127496  1
  S  S541  1  0.24033872  0.06154042  0.82684669  1
  S  S542  1  0.07175848  0.31046871  0.89377432  1
  S  S543  1  0.79378199  0.20236656  0.83856492  1
  S  S544  1  0.53794960  0.83928949  0.88575027  1
  S  S545  1  0.25628876  0.73228430  0.83064160  1
  S  S546  1  0.04825116  0.65598917  0.89041481  1
  S  S547  1  0.77557601  0.53382976  0.83397384  1
  S  S548  1  0.72926761  0.02027178  0.82711189  1
  S  S549  1  0.00784443  0.11557824  0.88159789  1
  S  S550  1  0.28990247  0.25626488  0.83986778  1
  S  S551  1  0.57843283  0.35198344  0.89590836  1
  S  S552  1  0.54256068  0.99523258  0.93744840  1
  S  S553  1  0.85994800  0.08649667  0.99265988  1
  S  S554  1  0.58614038  0.70420976  0.94747231  1
  S  S555  1  0.54460720  0.19282685  0.94556035  1
  S  S556  1  0.83334925  0.61012446  0.99205024  1
  S  S557  1  0.58448484  0.47888147  0.94079143  1
  S  S558  1  0.00180413  0.55870377  0.93643913  1
  S  S559  1  0.08516853  0.17794543  0.93827995  1
  S  S560  1  0.36086698  0.29112358  0.99200758  1
  S  S561  1  0.43359371  0.76561050  0.00014096  1
  S  S562  1  0.12488784  0.69071798  0.94585859  1
  S  S563  1  0.03919995  0.98906093  0.94356878  1
  S  S564  1  0.36875916  0.91248554  0.95461743  1
  S  S565  1  0.76199774  0.78803158  0.94271188  1
  S  S566  1  0.07780529  0.86860720  0.99414197  1
  S  S567  1  0.10362272  0.46670860  0.98960377  1
  S  S568  1  0.79315978  0.25242338  0.93736669  1
  S  S569  1  0.35687021  0.42209599  0.94952411  1
  S  S570  1  0.10501551  0.04626515  0.99565746  1
  S  S571  1  0.79773436  0.95884833  0.94581211  1
  S  S572  1  0.34306129  0.73360937  0.94593760  1
  S  S573  1  0.26080144  0.23304393  0.94267740  1
  S  S574  1  0.58026626  0.30682980  0.98697698  1
  S  S575  1  0.92132053  0.43545525  0.95686549  1
