# generated using pymatgen
data_Li3PS4
_symmetry_space_group_name_H-M   'P 1'
_cell_length_a   14.91536200
_cell_length_b   18.09023401
_cell_length_c   53.58273821
_cell_angle_alpha   90.00000000
_cell_angle_beta   90.00000000
_cell_angle_gamma   54.48401034
_symmetry_Int_Tables_number   1
_chemical_formula_structural   Li3PS4
_chemical_formula_sum   'Li216 P72 S288'
_cell_volume   11767.99413946
_cell_formula_units_Z   72
loop_
 _symmetry_equiv_pos_site_id
 _symmetry_equiv_pos_as_xyz
  1  'x, y, z'
loop_
 _atom_site_type_symbol
 _atom_site_label
 _atom_site_symmetry_multiplicity
 _atom_site_fract_x
 _atom_site_fract_y
 _atom_site_fract_z
 _atom_site_occupancy
  Li  Li0  1  0.79119526  0.69944297  0.01230272  1
  Li  Li1  1  0.40469403  0.70206486  0.06612097  1
  Li  Li2  1  0.31142048  0.96362774  0.09768356  1
  Li  Li3  1  0.59484530  0.08332680  0.04215733  1
  Li  Li4  1  0.63157708  0.57681474  0.03640379  1
  Li  Li5  1  0.39996458  0.50033775  0.08204862  1
  Li  Li6  1  0.33032593  0.16028611  0.08676523  1
  Li  Li7  1  0.40232739  0.36515143  0.02824973  1
  Li  Li8  1  0.12798402  0.23271939  0.05276238  1
  Li  Li9  1  0.85011083  0.15579444  0.09048068  1
  Li  Li10  1  0.87198572  0.51555051  0.07715993  1
  Li  Li11  1  0.14173234  0.62698377  0.01469035  1
  Li  Li12  1  0.03091331  0.08439520  0.03903032  1
  Li  Li13  1  0.76227392  0.98040949  0.09277676  1
  Li  Li14  1  0.95393624  0.67617751  0.07362545  1
  Li  Li15  1  0.21724759  0.79619088  0.01790744  1
  Li  Li16  1  0.57626309  0.87672891  0.06359967  1
  Li  Li17  1  0.64249426  0.39095637  0.03355199  1
  Li  Li18  1  0.36773181  0.30624503  0.09281314  1
  Li  Li19  1  0.88285314  0.33534534  0.08913908  1
  Li  Li20  1  0.07720302  0.43766576  0.02214839  1
  Li  Li21  1  0.32047881  0.95950112  0.01304763  1
  Li  Li22  1  0.98360421  0.87272802  0.06288029  1
  Li  Li23  1  0.13078884  0.58562754  0.12334193  1
  Li  Li24  1  0.85624547  0.47238675  0.17741627  1
  Li  Li25  1  0.75364603  0.75415109  0.21135803  1
  Li  Li26  1  0.03851964  0.85346243  0.15327418  1
  Li  Li27  1  0.11265104  0.38228574  0.14086569  1
  Li  Li28  1  0.82167201  0.27738547  0.19742516  1
  Li  Li29  1  0.77676023  0.94352368  0.19279886  1
  Li  Li30  1  0.04424944  0.04820031  0.13859081  1
  Li  Li31  1  0.57960683  0.04199706  0.14695048  1
  Li  Li32  1  0.30434209  0.93746516  0.19990493  1
  Li  Li33  1  0.30318550  0.29865131  0.18747788  1
  Li  Li34  1  0.58563009  0.40314136  0.13142611  1
  Li  Li35  1  0.50120574  0.87070410  0.14839920  1
  Li  Li36  1  0.21663213  0.76908422  0.20447045  1
  Li  Li37  1  0.38906054  0.45934477  0.18411524  1
  Li  Li38  1  0.64839043  0.57296633  0.13188990  1
  Li  Li39  1  0.91658041  0.67442598  0.16602320  1
  Li  Li40  1  0.26004054  0.76272090  0.11238085  1
  Li  Li41  1  0.08537791  0.19815554  0.14768209  1
  Li  Li42  1  0.81146715  0.09371414  0.20210082  1
  Li  Li43  1  0.32675418  0.11893772  0.19731959  1
  Li  Li44  1  0.60913934  0.22472152  0.14069736  1
  Li  Li45  1  0.72146234  0.76357500  0.11709823  1
  Li  Li46  1  0.44294515  0.65944538  0.17627879  1
  Li  Li47  1  0.56921626  0.37735020  0.23489422  1
  Li  Li48  1  0.29833912  0.25877700  0.28991361  1
  Li  Li49  1  0.19552926  0.54501717  0.32281094  1
  Li  Li50  1  0.48359347  0.64223759  0.26495973  1
  Li  Li51  1  0.55427672  0.17838307  0.25134351  1
  Li  Li52  1  0.27744035  0.06360442  0.30711522  1
  Li  Li53  1  0.22806005  0.73436054  0.30040659  1
  Li  Li54  1  0.49374105  0.84519604  0.24976402  1
  Li  Li55  1  0.01953522  0.83411462  0.25773799  1
  Li  Li56  1  0.75098070  0.71340152  0.31217120  1
  Li  Li57  1  0.74892798  0.08193476  0.29787149  1
  Li  Li58  1  0.02931356  0.19426729  0.24148459  1
  Li  Li59  1  0.95288961  0.65650643  0.25832599  1
  Li  Li60  1  0.66193112  0.55182042  0.31621342  1
  Li  Li61  1  0.83347233  0.24739004  0.29615912  1
  Li  Li62  1  0.10150111  0.36312820  0.24236883  1
  Li  Li63  1  0.34487758  0.46504710  0.27617967  1
  Li  Li64  1  0.70859905  0.55102573  0.22426134  1
  Li  Li65  1  0.51829908  0.02539271  0.24551025  1
  Li  Li66  1  0.25591329  0.88534903  0.31131882  1
  Li  Li67  1  0.71627197  0.89857208  0.30184480  1
  Li  Li68  1  0.05705119  0.01305322  0.25245388  1
  Li  Li69  1  0.16366086  0.57088163  0.21328796  1
  Li  Li70  1  0.88831600  0.44652827  0.28725472  1
  Li  Li71  1  0.01547798  0.16508069  0.34633713  1
  Li  Li72  1  0.74037296  0.04711067  0.40370840  1
  Li  Li73  1  0.65681454  0.29753491  0.43557861  1
  Li  Li74  1  0.92311973  0.43143445  0.37750170  1
  Li  Li75  1  0.99697727  0.97137223  0.36089395  1
  Li  Li76  1  0.74692570  0.84144054  0.41519667  1
  Li  Li77  1  0.66842357  0.51047341  0.41787808  1
  Li  Li78  1  0.94217456  0.63402762  0.36086533  1
  Li  Li79  1  0.46131338  0.62551181  0.36695844  1
  Li  Li80  1  0.19477945  0.50159427  0.42780779  1
  Li  Li81  1  0.21175820  0.85914219  0.40197127  1
  Li  Li82  1  0.47367159  0.97749451  0.35439943  1
  Li  Li83  1  0.40295482  0.43980387  0.36944919  1
  Li  Li84  1  0.11201871  0.32724835  0.42617423  1
  Li  Li85  1  0.28402507  0.03854069  0.40833304  1
  Li  Li86  1  0.55345600  0.14493200  0.35301447  1
  Li  Li87  1  0.79548578  0.24863753  0.38875213  1
  Li  Li88  1  0.14159516  0.34090104  0.33463957  1
  Li  Li89  1  0.95932025  0.82273213  0.35009866  1
  Li  Li90  1  0.69099777  0.70384327  0.41275431  1
  Li  Li91  1  0.16138700  0.69211525  0.40861971  1
  Li  Li92  1  0.50355613  0.79531114  0.36419620  1
  Li  Li93  1  0.60856626  0.35691729  0.32435488  1
  Li  Li94  1  0.33263842  0.24932060  0.38525274  1
  Li  Li95  1  0.46728013  0.93578317  0.45683576  1
  Li  Li96  1  0.22399911  0.32233625  0.49093611  1
  Li  Li97  1  0.63839804  0.64959087  0.47382208  1
  Li  Li98  1  0.43684128  0.44425712  0.46201332  1
  Li  Li99  1  0.92102409  0.38331489  0.48371879  1
  Li  Li100  1  0.95333542  0.74559907  0.45920620  1
  Li  Li101  1  0.84126487  0.20635077  0.48337731  1
  Li  Li102  1  0.15844157  0.87568170  0.45939637  1
  Li  Li103  1  0.49100471  0.13291586  0.44084120  1
  Li  Li104  1  0.43440491  0.60727583  0.45972735  1
  Li  Li105  1  0.93176202  0.58245449  0.47952460  1
  Li  Li106  1  0.06813145  0.13322330  0.43866682  1
  Li  Li107  1  0.75623833  0.03992472  0.47868246  1
  Li  Li108  1  0.73898713  0.81189485  0.51335885  1
  Li  Li109  1  0.11641626  0.82411192  0.56444447  1
  Li  Li110  1  0.20510185  0.56409664  0.59595681  1
  Li  Li111  1  0.93365459  0.44837556  0.54372423  1
  Li  Li112  1  0.88232169  0.97632430  0.53676827  1
  Li  Li113  1  0.13611058  0.02345166  0.58172441  1
  Li  Li114  1  0.21654422  0.35146265  0.58388757  1
  Li  Li115  1  0.13665982  0.16044022  0.52784022  1
  Li  Li116  1  0.41239413  0.36089645  0.54811768  1
  Li  Li117  1  0.68245434  0.38675152  0.59782627  1
  Li  Li118  1  0.65048310  0.02536021  0.57822066  1
  Li  Li119  1  0.39067480  0.89934807  0.51313037  1
  Li  Li120  1  0.66918180  0.40431124  0.53545561  1
  Li  Li121  1  0.76448015  0.55021074  0.59326967  1
  Li  Li122  1  0.56841442  0.84907164  0.57288705  1
  Li  Li123  1  0.30439893  0.73136235  0.51703724  1
  Li  Li124  1  0.94728013  0.64498127  0.56431037  1
  Li  Li125  1  0.89493287  0.13551375  0.53750017  1
  Li  Li126  1  0.16867080  0.21218392  0.58964343  1
  Li  Li127  1  0.70054134  0.21917104  0.58589813  1
  Li  Li128  1  0.46432366  0.08679018  0.51962588  1
  Li  Li129  1  0.20639061  0.56605862  0.51408674  1
  Li  Li130  1  0.53514750  0.65307263  0.56504654  1
  Li  Li131  1  0.39094607  0.93651051  0.62060135  1
  Li  Li132  1  0.66990443  0.04585580  0.67558881  1
  Li  Li133  1  0.76408817  0.77238532  0.70799655  1
  Li  Li134  1  0.48987616  0.66941525  0.65336334  1
  Li  Li135  1  0.40875354  0.14033209  0.63918153  1
  Li  Li136  1  0.69539579  0.23991375  0.69794335  1
  Li  Li137  1  0.75023966  0.57280098  0.69329962  1
  Li  Li138  1  0.47117768  0.47875767  0.63830283  1
  Li  Li139  1  0.94781203  0.48844779  0.64616459  1
  Li  Li140  1  0.22541524  0.58581090  0.70108282  1
  Li  Li141  1  0.22566993  0.22539424  0.68804172  1
  Li  Li142  1  0.94823637  0.13529713  0.63581435  1
  Li  Li143  1  0.03023158  0.65626475  0.64722005  1
  Li  Li144  1  0.30927820  0.75547467  0.70392064  1
  Li  Li145  1  0.15119335  0.05614165  0.68521896  1
  Li  Li146  1  0.87766240  0.95777921  0.63108663  1
  Li  Li147  1  0.54069772  0.86841967  0.66685065  1
  Li  Li148  1  0.26015991  0.75968080  0.61156365  1
  Li  Li149  1  0.44223337  0.32061353  0.64502616  1
  Li  Li150  1  0.73181358  0.39162600  0.68881645  1
  Li  Li151  1  0.19296527  0.40782978  0.69754941  1
  Li  Li152  1  0.98267120  0.30539592  0.63720941  1
  Li  Li153  1  0.79911094  0.77176200  0.61995349  1
  Li  Li154  1  0.08354359  0.86586057  0.67580707  1
  Li  Li155  1  0.95235260  0.15218057  0.73484358  1
  Li  Li156  1  0.22304436  0.26292559  0.78887078  1
  Li  Li157  1  0.32566897  0.97522417  0.82234977  1
  Li  Li158  1  0.03800479  0.88452135  0.76443759  1
  Li  Li159  1  0.96944771  0.35374722  0.75044166  1
  Li  Li160  1  0.24064017  0.45378503  0.80724708  1
  Li  Li161  1  0.28824386  0.78118574  0.80048877  1
  Li  Li162  1  0.02495774  0.68666012  0.74844044  1
  Li  Li163  1  0.49961119  0.70089579  0.75877342  1
  Li  Li164  1  0.77190665  0.80818064  0.81276553  1
  Li  Li165  1  0.77656918  0.44268964  0.79874914  1
  Li  Li166  1  0.49222626  0.34401824  0.74292870  1
  Li  Li167  1  0.58032545  0.86598279  0.75906035  1
  Li  Li168  1  0.85906212  0.97017415  0.81628348  1
  Li  Li169  1  0.68895689  0.27576335  0.79583625  1
  Li  Li170  1  0.43018020  0.16666002  0.74206106  1
  Li  Li171  1  0.16900206  0.06115634  0.77700082  1
  Li  Li172  1  0.81670251  0.97339349  0.72335349  1
  Li  Li173  1  0.98999155  0.53233117  0.75324711  1
  Li  Li174  1  0.28152442  0.60070597  0.79819843  1
  Li  Li175  1  0.80003348  0.62667406  0.80318728  1
  Li  Li176  1  0.53034162  0.51859018  0.74657936  1
  Li  Li177  1  0.36324337  0.96863324  0.72822457  1
  Li  Li178  1  0.63410231  0.08003311  0.78762514  1
  Li  Li179  1  0.50494222  0.35972362  0.84563329  1
  Li  Li180  1  0.78250070  0.47846971  0.90765692  1
  Li  Li181  1  0.86318201  0.22641368  0.93729914  1
  Li  Li182  1  0.59678975  0.09523662  0.87758791  1
  Li  Li183  1  0.52145954  0.55343557  0.86024696  1
  Li  Li184  1  0.76169721  0.69102177  0.91363154  1
  Li  Li185  1  0.85439873  0.01189727  0.91718881  1
  Li  Li186  1  0.57816347  0.89191726  0.86105219  1
  Li  Li187  1  0.06202448  0.90941172  0.86847869  1
  Li  Li188  1  0.32349371  0.02396626  0.92782050  1
  Li  Li189  1  0.30958468  0.66582805  0.90160107  1
  Li  Li190  1  0.04468708  0.55698305  0.85534126  1
  Li  Li191  1  0.11449398  0.08786234  0.86896834  1
  Li  Li192  1  0.40787492  0.19845609  0.92667672  1
  Li  Li193  1  0.23112164  0.48809432  0.90774184  1
  Li  Li194  1  0.96305816  0.38262257  0.85295179  1
  Li  Li195  1  0.72841479  0.27752633  0.88872796  1
  Li  Li196  1  0.37997843  0.18202489  0.83439894  1
  Li  Li197  1  0.55949860  0.70244492  0.84991976  1
  Li  Li198  1  0.83217865  0.81836229  0.91017874  1
  Li  Li199  1  0.36371234  0.83084193  0.90895939  1
  Li  Li200  1  0.07084279  0.73609379  0.85892042  1
  Li  Li201  1  0.91147433  0.16793139  0.82424959  1
  Li  Li202  1  0.18381379  0.27182084  0.88138587  1
  Li  Li203  1  0.05058403  0.58883514  0.95830963  1
  Li  Li204  1  0.29041738  0.20795061  0.99342537  1
  Li  Li205  1  0.88414260  0.86776409  0.97228124  1
  Li  Li206  1  0.08094308  0.07693049  0.96066584  1
  Li  Li207  1  0.60820481  0.12631410  0.98146113  1
  Li  Li208  1  0.56725130  0.77858105  0.95990113  1
  Li  Li209  1  0.61460639  0.29236690  0.97497996  1
  Li  Li210  1  0.36730885  0.64346116  0.95829560  1
  Li  Li211  1  0.04143370  0.40893489  0.93370161  1
  Li  Li212  1  0.08501333  0.91459407  0.95922160  1
  Li  Li213  1  0.59228076  0.94176364  0.98064489  1
  Li  Li214  1  0.44935633  0.38775197  0.93289896  1
  Li  Li215  1  0.75546322  0.46874002  0.97913183  1
  P  P216  1  0.56324722  0.71820590  0.09232358  1
  P  P217  1  0.83114563  0.82884137  0.03552401  1
  P  P218  1  0.43983483  0.03650445  0.02896407  1
  P  P219  1  0.14760983  0.93307117  0.07502609  1
  P  P220  1  0.11225885  0.41138488  0.08643794  1
  P  P221  1  0.38708012  0.53773356  0.02379531  1
  P  P222  1  0.89659880  0.34083877  0.03159861  1
  P  P223  1  0.60628937  0.25047832  0.08099250  1
  P  P224  1  0.00426640  0.50962281  0.20304253  1
  P  P225  1  0.28970039  0.61372906  0.14845729  1
  P  P226  1  0.87555078  0.82671785  0.12983014  1
  P  P227  1  0.60320944  0.71899777  0.18613058  1
  P  P228  1  0.54904831  0.20029734  0.19598157  1
  P  P229  1  0.82399431  0.30504771  0.14276795  1
  P  P230  1  0.33528743  0.13386687  0.13961465  1
  P  P231  1  0.06063804  0.02565006  0.19358230  1
  P  P232  1  0.44795755  0.29710620  0.31463209  1
  P  P233  1  0.73184412  0.40135465  0.26021430  1
  P  P234  1  0.32162521  0.61445422  0.24019966  1
  P  P235  1  0.04882485  0.50666829  0.29714001  1
  P  P236  1  0.99327573  0.99146500  0.30626737  1
  P  P237  1  0.26977207  0.09616934  0.25185539  1
  P  P238  1  0.77808585  0.92373366  0.24775332  1
  P  P239  1  0.50758951  0.81224830  0.30492641  1
  P  P240  1  0.91425037  0.06619538  0.42423337  1
  P  P241  1  0.17926270  0.18786676  0.37034480  1
  P  P242  1  0.76470199  0.40046980  0.35254830  1
  P  P243  1  0.48754469  0.29620993  0.40967581  1
  P  P244  1  0.44542909  0.77077233  0.41993264  1
  P  P245  1  0.71811932  0.87994514  0.36077732  1
  P  P246  1  0.21975270  0.71577727  0.35397398  1
  P  P247  1  0.94944453  0.59410250  0.41558463  1
  P  P248  1  0.62882985  0.96383728  0.47472179  1
  P  P249  1  0.22337183  0.17833063  0.46545928  1
  P  P250  1  0.20670432  0.64048356  0.46211847  1
  P  P251  1  0.67853650  0.47123087  0.47496539  1
  P  P252  1  0.95306416  0.81659989  0.59102988  1
  P  P253  1  0.69288710  0.68864375  0.53579691  1
  P  P254  1  0.08696066  0.49043912  0.52816929  1
  P  P255  1  0.37853448  0.58414725  0.57451212  1
  P  P256  1  0.41482565  0.11058417  0.58458420  1
  P  P257  1  0.14031679  0.99209302  0.52375427  1
  P  P258  1  0.64428189  0.18826423  0.53482780  1
  P  P259  1  0.92733509  0.28140398  0.58188586  1
  P  P260  1  0.51849719  0.01699615  0.70344449  1
  P  P261  1  0.24125351  0.90679475  0.64746794  1
  P  P262  1  0.65025904  0.69968814  0.63029843  1
  P  P263  1  0.92461815  0.80495250  0.68540423  1
  P  P264  1  0.98294333  0.32136747  0.69568090  1
  P  P265  1  0.70542009  0.22158711  0.64349613  1
  P  P266  1  0.19274720  0.39087777  0.63891507  1
  P  P267  1  0.46896879  0.49621374  0.69276903  1
  P  P268  1  0.07173122  0.22823849  0.81437006  1
  P  P269  1  0.79186060  0.12244123  0.75998934  1
  P  P270  1  0.20253833  0.90990526  0.74037720  1
  P  P271  1  0.47326448  0.01804252  0.79670310  1
  P  P272  1  0.53238962  0.53106544  0.80539428  1
  P  P273  1  0.25006001  0.43183030  0.75217562  1
  P  P274  1  0.74059592  0.60500549  0.74845833  1
  P  P275  1  0.01767487  0.70964177  0.80398086  1
  P  P276  1  0.60053219  0.45885773  0.92328396  1
  P  P277  1  0.33906864  0.33584429  0.87006633  1
  P  P278  1  0.75562864  0.12464836  0.85230412  1
  P  P279  1  0.03446153  0.22622537  0.90979639  1
  P  P280  1  0.07777728  0.75268810  0.91876297  1
  P  P281  1  0.80101235  0.64506927  0.86120429  1
  P  P282  1  0.29961038  0.80963899  0.85400651  1
  P  P283  1  0.56909446  0.93282681  0.91604614  1
  P  P284  1  0.88290237  0.55317726  0.97118761  1
  P  P285  1  0.30261513  0.34826599  0.96676308  1
  P  P286  1  0.31149413  0.88528422  0.96241329  1
  P  P287  1  0.84209248  0.04622330  0.97471363  1
  S  S288  1  0.72338353  0.63258723  0.10445278  1
  S  S289  1  0.00088060  0.74595679  0.04133383  1
  S  S290  1  0.27203892  0.11310956  0.02340903  1
  S  S291  1  0.98198153  0.01034558  0.06750085  1
  S  S292  1  0.02268879  0.52001163  0.06254268  1
  S  S293  1  0.28893659  0.64644641  0.00011826  1
  S  S294  1  0.96343792  0.22940238  0.05515645  1
  S  S295  1  0.70276264  0.13652356  0.10326478  1
  S  S296  1  0.79647836  0.34291016  0.00505115  1
  S  S297  1  0.50677736  0.23775549  0.05769907  1
  S  S298  1  0.48397005  0.55151179  0.04838087  1
  S  S299  1  0.48467301  0.04301487  0.06454262  1
  S  S300  1  0.54411338  0.72559459  0.05451543  1
  S  S301  1  0.78853535  0.83094039  0.99909924  1
  S  S302  1  0.51205699  0.90339199  0.02150022  1
  S  S303  1  0.20414616  0.80257080  0.06342549  1
  S  S304  1  0.51298485  0.84811743  0.10320813  1
  S  S305  1  0.78521845  0.95361206  0.04803174  1
  S  S306  1  0.79323974  0.45193619  0.05471696  1
  S  S307  1  0.49503693  0.35463365  0.10549136  1
  S  S308  1  0.22730392  0.30253794  0.06489429  1
  S  S309  1  0.49276394  0.42102552  0.00452842  1
  S  S310  1  0.77312102  0.76659244  0.05534313  1
  S  S311  1  0.21762655  0.98749396  0.05717521  1
  S  S312  1  0.49358551  0.09104572  0.00405112  1
  S  S313  1  0.00772157  0.39095505  0.10503296  1
  S  S314  1  0.28364003  0.52354332  0.04518402  1
  S  S315  1  0.03036944  0.33084251  0.01901275  1
  S  S316  1  0.70982123  0.27119728  0.06382799  1
  S  S317  1  0.16719195  0.42853313  0.21332503  1
  S  S318  1  0.45327984  0.52976028  0.15833605  1
  S  S319  1  0.70984101  0.90665612  0.12176531  1
  S  S320  1  0.44054907  0.80028754  0.17593331  1
  S  S321  1  0.45190336  0.30644496  0.17209338  1
  S  S322  1  0.73336041  0.41525928  0.11965843  1
  S  S323  1  0.43813340  0.02301539  0.16197587  1
  S  S324  1  0.16628422  0.91788427  0.21652115  1
  S  S325  1  0.24280094  0.11595395  0.11533072  1
  S  S326  1  0.96606789  0.00569623  0.17074789  1
  S  S327  1  0.19725743  0.43104988  0.11269060  1
  S  S328  1  0.91362499  0.31900222  0.16908114  1
  S  S329  1  0.91093777  0.81625307  0.16723912  1
  S  S330  1  0.18556621  0.92377683  0.11233398  1
  S  S331  1  0.97692555  0.51538471  0.16535277  1
  S  S332  1  0.26106986  0.62280708  0.11071678  1
  S  S333  1  0.92922847  0.69592229  0.11934261  1
  S  S334  1  0.65478141  0.58819895  0.17706509  1
  S  S335  1  0.95348573  0.64028916  0.21285034  1
  S  S336  1  0.23902469  0.74328705  0.15918200  1
  S  S337  1  0.21988629  0.23670547  0.16355334  1
  S  S338  1  0.94823610  0.12959709  0.21769170  1
  S  S339  1  0.66695769  0.09451014  0.17338427  1
  S  S340  1  0.94031838  0.19990841  0.11985581  1
  S  S341  1  0.20661422  0.56827543  0.16511124  1
  S  S342  1  0.47575983  0.67623604  0.10879092  1
  S  S343  1  0.68436094  0.76541386  0.16851467  1
  S  S344  1  0.95098742  0.87632536  0.11203932  1
  S  S345  1  0.44850900  0.17762160  0.21578363  1
  S  S346  1  0.72039451  0.28297912  0.16081121  1
  S  S347  1  0.43165649  0.16290900  0.12145697  1
  S  S348  1  0.15496256  0.05076095  0.17268041  1
  S  S349  1  0.61186943  0.21476804  0.32391014  1
  S  S350  1  0.89627822  0.31691090  0.26950183  1
  S  S351  1  0.15586532  0.69958133  0.23207731  1
  S  S352  1  0.88698422  0.58761164  0.28611094  1
  S  S353  1  0.89421297  0.09752777  0.28252320  1
  S  S354  1  0.17702863  0.20652582  0.22881934  1
  S  S355  1  0.87445818  0.81524544  0.27107133  1
  S  S356  1  0.60665858  0.70245434  0.32798052  1
  S  S357  1  0.68558545  0.90783251  0.22283953  1
  S  S358  1  0.41431941  0.79679183  0.28028412  1
  S  S359  1  0.63651600  0.22139126  0.22114331  1
  S  S360  1  0.36535030  0.10655947  0.27709089  1
  S  S361  1  0.35874477  0.59960709  0.27741863  1
  S  S362  1  0.62995369  0.71541070  0.22389545  1
  S  S363  1  0.41655907  0.30306104  0.27704440  1
  S  S364  1  0.70041916  0.41298631  0.22275126  1
  S  S365  1  0.36903938  0.48605300  0.22907879  1
  S  S366  1  0.09908534  0.37583256  0.28785191  1
  S  S367  1  0.39762592  0.42715671  0.32413498  1
  S  S368  1  0.68318006  0.53032372  0.27112299  1
  S  S369  1  0.66234873  0.02868204  0.27121778  1
  S  S370  1  0.39419619  0.91652448  0.32876463  1
  S  S371  1  0.11013095  0.88685500  0.28296411  1
  S  S372  1  0.38429491  0.99165485  0.22808644  1
  S  S373  1  0.65003506  0.35462014  0.27677317  1
  S  S374  1  0.92441066  0.46307121  0.22064702  1
  S  S375  1  0.12994771  0.55189759  0.27943139  1
  S  S376  1  0.40099414  0.66298467  0.22348928  1
  S  S377  1  0.89393856  0.96786175  0.32560406  1
  S  S378  1  0.16920629  0.07360795  0.27084916  1
  S  S379  1  0.87774224  0.94731454  0.22870912  1
  S  S380  1  0.60535879  0.83597371  0.28490157  1
  S  S381  1  0.08281530  0.99433789  0.42738626  1
  S  S382  1  0.34356450  0.10780698  0.37992780  1
  S  S383  1  0.59939834  0.48449021  0.34392397  1
  S  S384  1  0.32742847  0.38149982  0.39761225  1
  S  S385  1  0.35941075  0.88056635  0.39629191  1
  S  S386  1  0.61516924  0.99159825  0.33872266  1
  S  S387  1  0.31485887  0.60447406  0.37584280  1
  S  S388  1  0.03167641  0.48342224  0.43826357  1
  S  S389  1  0.12759590  0.70290355  0.32825431  1
  S  S390  1  0.85432600  0.58737778  0.38905365  1
  S  S391  1  0.08308714  0.01195917  0.33078866  1
  S  S392  1  0.81331081  0.89638833  0.38431319  1
  S  S393  1  0.79942292  0.38720644  0.39000352  1
  S  S394  1  0.07410519  0.50257852  0.33493551  1
  S  S395  1  0.86143493  0.08951772  0.38770492  1
  S  S396  1  0.14916464  0.19664778  0.33271578  1
  S  S397  1  0.81378622  0.27173265  0.34140848  1
  S  S398  1  0.53878073  0.16573182  0.39886675  1
  S  S399  1  0.85644144  0.19467912  0.43806002  1
  S  S400  1  0.12584613  0.31863654  0.38078008  1
  S  S401  1  0.10675049  0.81778080  0.37848992  1
  S  S402  1  0.83965177  0.70181215  0.43909247  1
  S  S403  1  0.55772535  0.66297592  0.39670941  1
  S  S404  1  0.83002326  0.77677001  0.33667330  1
  S  S405  1  0.10152567  0.13977477  0.38778160  1
  S  S406  1  0.36904005  0.24956004  0.33265130  1
  S  S407  1  0.57576741  0.33743439  0.39321663  1
  S  S408  1  0.84491044  0.44802406  0.33563974  1
  S  S409  1  0.33539943  0.75230192  0.43566842  1
  S  S410  1  0.62261840  0.85343395  0.38108398  1
  S  S411  1  0.32188325  0.74165568  0.33704350  1
  S  S412  1  0.05410376  0.61456697  0.39708153  1
  S  S413  1  0.79539129  0.88311604  0.48381601  1
  S  S414  1  0.05636351  0.26093814  0.45715913  1
  S  S415  1  0.09590788  0.77439751  0.45233018  1
  S  S416  1  0.78059403  0.36035679  0.49764910  1
  S  S417  1  0.59496882  0.44997730  0.44821409  1
  S  S418  1  0.54035448  0.78042696  0.44535175  1
  S  S419  1  0.30677082  0.61619162  0.49251078  1
  S  S420  1  0.25674748  0.17760893  0.50253622  1
  S  S421  1  0.50461848  0.29033231  0.44764775  1
  S  S422  1  0.59396417  0.95964133  0.43783927  1
  S  S423  1  0.27236398  0.05160822  0.45335020  1
  S  S424  1  0.56968227  0.09404854  0.48216251  1
  S  S425  1  0.56454443  0.58022823  0.49559593  1
  S  S426  1  0.31532047  0.56654144  0.43387185  1
  S  S427  1  0.54916000  0.92754181  0.49772720  1
  S  S428  1  0.85943508  0.99870371  0.44071864  1
  S  S429  1  0.28833673  0.23808637  0.44745125  1
  S  S430  1  0.12245782  0.58610117  0.46750138  1
  S  S431  1  0.77560608  0.49749925  0.45516647  1
  S  S432  1  0.79579299  0.90104103  0.60484766  1
  S  S433  1  0.52295567  0.77260071  0.54062306  1
  S  S434  1  0.25252698  0.41105157  0.51996736  1
  S  S435  1  0.54647955  0.51197934  0.57038603  1
  S  S436  1  0.51719455  0.00040527  0.56177553  1
  S  S437  1  0.23511014  0.88219301  0.50012756  1
  S  S438  1  0.59846750  0.31439557  0.54600975  1
  S  S439  1  0.84020868  0.39208402  0.60534436  1
  S  S440  1  0.76654813  0.13641897  0.50662965  1
  S  S441  1  0.01969802  0.29244289  0.55636713  1
  S  S442  1  0.04714844  0.97763854  0.54948026  1
  S  S443  1  0.05411759  0.47810852  0.56449022  1
  S  S444  1  0.96244641  0.81829145  0.55309041  1
  S  S445  1  0.73965119  0.68241248  0.49956668  1
  S  S446  1  0.01433401  0.62485376  0.52256634  1
  S  S447  1  0.31949995  0.71461695  0.56208909  1
  S  S448  1  0.00558181  0.68551204  0.60160282  1
  S  S449  1  0.73946009  0.56396910  0.54897141  1
  S  S450  1  0.73884071  0.09264203  0.56219237  1
  S  S451  1  0.03789462  0.17238062  0.60465266  1
  S  S452  1  0.29790654  0.21194048  0.56167291  1
  S  S453  1  0.03655270  0.11089406  0.50480698  1
  S  S454  1  0.75054083  0.75000921  0.55587362  1
  S  S455  1  0.30820970  0.52978787  0.55687882  1
  S  S456  1  0.02426617  0.44027277  0.50412229  1
  S  S457  1  0.50431868  0.14435743  0.60381712  1
  S  S458  1  0.24829826  0.00329534  0.54428573  1
  S  S459  1  0.49809409  0.20856071  0.53051982  1
  S  S460  1  0.81056061  0.27173890  0.56509923  1
  S  S461  1  0.35757279  0.10233567  0.71518966  1
  S  S462  1  0.07923406  0.99331682  0.65817613  1
  S  S463  1  0.81560353  0.62376571  0.62197197  1
  S  S464  1  0.08949650  0.72411395  0.67681282  1
  S  S465  1  0.08315289  0.21071998  0.67295312  1
  S  S466  1  0.81041908  0.11442396  0.62084179  1
  S  S467  1  0.09063006  0.50266028  0.66103641  1
  S  S468  1  0.36916430  0.60333827  0.71622605  1
  S  S469  1  0.28376353  0.40976925  0.61456154  1
  S  S470  1  0.56011101  0.51627884  0.66853603  1
  S  S471  1  0.33109413  0.08683663  0.61054785  1
  S  S472  1  0.61237049  0.20094954  0.66677777  1
  S  S473  1  0.61774741  0.70525734  0.66781213  1
  S  S474  1  0.33417323  0.59917859  0.61153291  1
  S  S475  1  0.54025043  0.00879275  0.66560222  1
  S  S476  1  0.26604927  0.89594896  0.60949043  1
  S  S477  1  0.59144548  0.83098820  0.61968253  1
  S  S478  1  0.87291082  0.93602650  0.67619757  1
  S  S479  1  0.56589184  0.88788735  0.71397381  1
  S  S480  1  0.28927377  0.77838219  0.65847883  1
  S  S481  1  0.30579496  0.28728222  0.66274444  1
  S  S482  1  0.58464763  0.39177215  0.71633763  1
  S  S483  1  0.86986085  0.42536816  0.67179079  1
  S  S484  1  0.59221312  0.32713993  0.61981746  1
  S  S485  1  0.32566289  0.95162269  0.66372267  1
  S  S486  1  0.04638658  0.85381403  0.60719722  1
  S  S487  1  0.84745828  0.75695627  0.66727539  1
  S  S488  1  0.57827241  0.64647331  0.61255480  1
  S  S489  1  0.07979927  0.34672004  0.71546176  1
  S  S490  1  0.80027167  0.24775355  0.66388315  1
  S  S491  1  0.09599335  0.36392537  0.61945294  1
  S  S492  1  0.37230363  0.47032491  0.67329468  1
  S  S493  1  0.90889233  0.30919445  0.82433553  1
  S  S494  1  0.62631066  0.20772073  0.76839038  1
  S  S495  1  0.36743471  0.82790553  0.73163073  1
  S  S496  1  0.63667983  0.93822163  0.78690640  1
  S  S497  1  0.63801355  0.42291135  0.78259154  1
  S  S498  1  0.34860712  0.32441057  0.72875001  1
  S  S499  1  0.64661112  0.71302309  0.77217171  1
  S  S500  1  0.91991206  0.81696087  0.82760773  1
  S  S501  1  0.83301152  0.62002200  0.72342006  1
  S  S502  1  0.10710327  0.72898366  0.77897116  1
  S  S503  1  0.88918749  0.30613228  0.72021412  1
  S  S504  1  0.15558811  0.41546676  0.77633877  1
  S  S505  1  0.16672239  0.92149715  0.77764478  1
  S  S506  1  0.88884234  0.81149255  0.72276916  1
  S  S507  1  0.10021269  0.22311713  0.77666863  1
  S  S508  1  0.82764358  0.10921661  0.72272056  1
  S  S509  1  0.15328939  0.03993081  0.73018186  1
  S  S510  1  0.42246732  0.14879677  0.78745494  1
  S  S511  1  0.12380898  0.09766277  0.82383744  1
  S  S512  1  0.83882398  0.99421300  0.77107155  1
  S  S513  1  0.85705838  0.49993155  0.77186248  1
  S  S514  1  0.13384020  0.60425903  0.82693610  1
  S  S515  1  0.41901538  0.63345660  0.78107680  1
  S  S516  1  0.13569866  0.53713176  0.72861572  1
  S  S517  1  0.87260480  0.16980234  0.77675428  1
  S  S518  1  0.60342230  0.06152376  0.71956755  1
  S  S519  1  0.39416185  0.97048555  0.77871262  1
  S  S520  1  0.12443556  0.86136101  0.72309751  1
  S  S521  1  0.62757191  0.55687355  0.82564139  1
  S  S522  1  0.34809788  0.45496958  0.77212688  1
  S  S523  1  0.64141165  0.58146074  0.72921782  1
  S  S524  1  0.91750218  0.68713615  0.78410077  1
  S  S525  1  0.43229813  0.52792947  0.92535396  1
  S  S526  1  0.17412021  0.41618927  0.87911459  1
  S  S527  1  0.92060064  0.04004441  0.84323475  1
  S  S528  1  0.19391252  0.14145655  0.89705026  1
  S  S529  1  0.16532418  0.64221170  0.89517995  1
  S  S530  1  0.90830821  0.53412719  0.83922708  1
  S  S531  1  0.21328787  0.92275935  0.87558535  1
  S  S532  1  0.48452603  0.04359422  0.93868277  1
  S  S533  1  0.39066314  0.81758710  0.82686810  1
  S  S534  1  0.66311439  0.94087694  0.88941231  1
  S  S535  1  0.43895330  0.51171083  0.82886944  1
  S  S536  1  0.70585531  0.62557921  0.88382967  1
  S  S537  1  0.72217204  0.13774304  0.88972055  1
  S  S538  1  0.44380587  0.02157987  0.83422641  1
  S  S539  1  0.66029542  0.43845111  0.88747086  1
  S  S540  1  0.37271113  0.32488365  0.83259491  1
  S  S541  1  0.70628578  0.25334316  0.84107215  1
  S  S542  1  0.98245866  0.35675597  0.89839715  1
  S  S543  1  0.66238553  0.32742502  0.93546026  1
  S  S544  1  0.39300226  0.20582198  0.88111361  1
  S  S545  1  0.41345446  0.70734452  0.87835328  1
  S  S546  1  0.67909175  0.82498681  0.93927832  1
  S  S547  1  0.96937288  0.86111797  0.89531998  1
  S  S548  1  0.68809037  0.74810097  0.83689544  1
  S  S549  1  0.41450248  0.38725817  0.88682577  1
  S  S550  1  0.15091982  0.27666281  0.83189417  1
  S  S551  1  0.94451581  0.18630865  0.89344944  1
  S  S552  1  0.67536994  0.07667136  0.83551828  1
  S  S553  1  0.18793684  0.76919873  0.93540215  1
  S  S554  1  0.89189140  0.67641297  0.88080955  1
  S  S555  1  0.19402063  0.78538329  0.83824058  1
  S  S556  1  0.46607764  0.91080562  0.89728300  1
  S  S557  1  0.71994506  0.63554697  0.98372089  1
  S  S558  1  0.47094066  0.26473833  0.95751468  1
  S  S559  1  0.42351968  0.75059046  0.95365507  1
  S  S560  1  0.74129004  0.15162226  0.99812792  1
  S  S561  1  0.92315965  0.07231600  0.94813768  1
  S  S562  1  0.98109347  0.74151643  0.94302432  1
  S  S563  1  0.20995728  0.91300504  0.99294881  1
  S  S564  1  0.27735287  0.34786315  0.00425100  1
  S  S565  1  0.02135168  0.22767401  0.94760438  1
  S  S566  1  0.91682980  0.58152396  0.93653319  1
  S  S567  1  0.24951247  0.47423336  0.95341446  1
  S  S568  1  0.92972476  0.42532369  0.96763685  1
  S  S569  1  0.96076410  0.93351805  0.99374603  1
  S  S570  1  0.20574218  0.95490723  0.93351805  1
  S  S571  1  0.97290074  0.57386104  0.99663158  1
  S  S572  1  0.64641318  0.52860194  0.94206195  1
  S  S573  1  0.23581606  0.28883039  0.94987883  1
  S  S574  1  0.39528500  0.94011706  0.96777446  1
  S  S575  1  0.74980721  0.01705190  0.95343524  1
