# generated using pymatgen
data_Li3PS4
_symmetry_space_group_name_H-M   'P 1'
_cell_length_a   14.91536200
_cell_length_b   18.09023401
_cell_length_c   53.55089363
_cell_angle_alpha   90.00000000
_cell_angle_beta   90.00000000
_cell_angle_gamma   54.48401034
_symmetry_Int_Tables_number   1
_chemical_formula_structural   Li3PS4
_chemical_formula_sum   'Li216 P72 S288'
_cell_volume   11761.00034130
_cell_formula_units_Z   72
loop_
 _symmetry_equiv_pos_site_id
 _symmetry_equiv_pos_as_xyz
  1  'x, y, z'
loop_
 _atom_site_type_symbol
 _atom_site_label
 _atom_site_symmetry_multiplicity
 _atom_site_fract_x
 _atom_site_fract_y
 _atom_site_fract_z
 _atom_site_occupancy
  Li  Li0  1  0.83986486  0.71911881  0.01566817  1
  Li  Li1  1  0.52674895  0.64522031  0.06667270  1
  Li  Li2  1  0.77345148  0.02467229  0.02754512  1
  Li  Li3  1  0.77393769  0.54460914  0.02970921  1
  Li  Li4  1  0.51738271  0.43542614  0.08156864  1
  Li  Li5  1  0.46389225  0.08380861  0.07999431  1
  Li  Li6  1  0.60651358  0.27919036  0.02872964  1
  Li  Li7  1  0.25005979  0.17848029  0.04386656  1
  Li  Li8  1  0.96795145  0.08032863  0.09185723  1
  Li  Li9  1  0.97591278  0.43756650  0.07805804  1
  Li  Li10  1  0.26647878  0.53413791  0.01526330  1
  Li  Li11  1  0.17882463  0.99539994  0.03267626  1
  Li  Li12  1  0.82207473  0.92948146  0.08531447  1
  Li  Li13  1  0.08177178  0.60466163  0.07522553  1
  Li  Li14  1  0.25965186  0.74094367  0.02497287  1
  Li  Li15  1  0.69861531  0.80026782  0.06279634  1
  Li  Li16  1  0.76583274  0.34136130  0.03566705  1
  Li  Li17  1  0.48048953  0.24419890  0.08866743  1
  Li  Li18  1  0.94978574  0.25376842  0.08102850  1
  Li  Li19  1  0.09376620  0.41841171  0.01952949  1
  Li  Li20  1  0.46743279  0.87277537  0.02945424  1
  Li  Li21  1  0.11411891  0.80476810  0.07139234  1
  Li  Li22  1  0.25622532  0.52299666  0.12189934  1
  Li  Li23  1  0.97785338  0.41628434  0.17575564  1
  Li  Li24  1  0.43473264  0.89668552  0.10255364  1
  Li  Li25  1  0.15954412  0.79175993  0.15565713  1
  Li  Li26  1  0.23247993  0.32960911  0.13924480  1
  Li  Li27  1  0.96269975  0.22155385  0.19544859  1
  Li  Li28  1  0.89860888  0.89043713  0.19397686  1
  Li  Li29  1  0.17104870  0.99677690  0.13914697  1
  Li  Li30  1  0.69935435  0.97541117  0.14736002  1
  Li  Li31  1  0.42214385  0.86536250  0.20348177  1
  Li  Li32  1  0.42525682  0.22655148  0.18859402  1
  Li  Li33  1  0.70065571  0.33225592  0.13301102  1
  Li  Li34  1  0.61817935  0.81214160  0.15108811  1
  Li  Li35  1  0.33891667  0.70397647  0.20499994  1
  Li  Li36  1  0.49822743  0.39967018  0.18601266  1
  Li  Li37  1  0.76995303  0.50739059  0.13119806  1
  Li  Li38  1  0.10602968  0.59650903  0.16783943  1
  Li  Li39  1  0.37867714  0.70118196  0.11338213  1
  Li  Li40  1  0.19247837  0.17988516  0.12980289  1
  Li  Li41  1  0.91725271  0.07503638  0.18700120  1
  Li  Li42  1  0.38768829  0.05080601  0.19143466  1
  Li  Li43  1  0.67675832  0.15459744  0.13628332  1
  Li  Li44  1  0.84894085  0.69555547  0.12191786  1
  Li  Li45  1  0.56476189  0.59403802  0.17594324  1
  Li  Li46  1  0.69658642  0.31334451  0.23348025  1
  Li  Li47  1  0.42402220  0.19767287  0.28877246  1
  Li  Li48  1  0.88381243  0.68767501  0.20965203  1
  Li  Li49  1  0.60742660  0.57784745  0.26525434  1
  Li  Li50  1  0.68869572  0.11414440  0.25072418  1
  Li  Li51  1  0.41536358  0.00459507  0.30601832  1
  Li  Li52  1  0.34752415  0.67556356  0.30381551  1
  Li  Li53  1  0.62761385  0.78233971  0.24913865  1
  Li  Li54  1  0.14529564  0.75986634  0.25905661  1
  Li  Li55  1  0.87591762  0.65284409  0.31481085  1
  Li  Li56  1  0.87457953  0.01225143  0.30004013  1
  Li  Li57  1  0.15333755  0.11790726  0.24423048  1
  Li  Li58  1  0.06732383  0.59766449  0.26002634  1
  Li  Li59  1  0.79047898  0.49368306  0.31518884  1
  Li  Li60  1  0.95670429  0.18370652  0.29426651  1
  Li  Li61  1  0.21870906  0.29591183  0.24197101  1
  Li  Li62  1  0.48191454  0.39960602  0.27744971  1
  Li  Li63  1  0.83164834  0.48797108  0.22346845  1
  Li  Li64  1  0.64140449  0.96843330  0.24115629  1
  Li  Li65  1  0.36920715  0.85800001  0.29690542  1
  Li  Li66  1  0.83920458  0.83674850  0.30389871  1
  Li  Li67  1  0.11259727  0.94278698  0.24704136  1
  Li  Li68  1  0.28562075  0.49153543  0.22810863  1
  Li  Li69  1  0.01296793  0.38359692  0.28697538  1
  Li  Li70  1  0.14761673  0.09975668  0.34249158  1
  Li  Li71  1  0.86817160  0.98930594  0.40349828  1
  Li  Li72  1  0.32385936  0.47948322  0.32261645  1
  Li  Li73  1  0.05322134  0.36582031  0.37707996  1
  Li  Li74  1  0.14163190  0.89898583  0.36070157  1
  Li  Li75  1  0.87027313  0.78189601  0.42040300  1
  Li  Li76  1  0.78571362  0.45752524  0.41271573  1
  Li  Li77  1  0.07948959  0.56776359  0.36429181  1
  Li  Li78  1  0.59197413  0.54677421  0.36833336  1
  Li  Li79  1  0.33512990  0.43757764  0.42945792  1
  Li  Li80  1  0.33134070  0.80152606  0.40764176  1
  Li  Li81  1  0.60698918  0.89717002  0.35568928  1
  Li  Li82  1  0.52495312  0.38088069  0.36943636  1
  Li  Li83  1  0.25234240  0.26464063  0.42673988  1
  Li  Li84  1  0.42534111  0.96583880  0.40579799  1
  Li  Li85  1  0.68181274  0.07865978  0.35227477  1
  Li  Li86  1  0.92802948  0.18143572  0.38397501  1
  Li  Li87  1  0.26759898  0.27887286  0.33410507  1
  Li  Li88  1  0.09023150  0.75649835  0.35423896  1
  Li  Li89  1  0.81528490  0.63858953  0.40572525  1
  Li  Li90  1  0.29526151  0.62937780  0.41582843  1
  Li  Li91  1  0.56522062  0.72516929  0.35764999  1
  Li  Li92  1  0.73726221  0.29235052  0.32360914  1
  Li  Li93  1  0.46256646  0.18740018  0.38119942  1
  Li  Li94  1  0.58041677  0.86047334  0.46658440  1
  Li  Li95  1  0.78077771  0.25905270  0.42901268  1
  Li  Li96  1  0.53552230  0.18731577  0.46867030  1
  Li  Li97  1  0.77505895  0.60019250  0.47556208  1
  Li  Li98  1  0.58577412  0.37518498  0.46824111  1
  Li  Li99  1  0.04353145  0.34293440  0.47587479  1
  Li  Li100  1  0.06313398  0.70092094  0.47010451  1
  Li  Li101  1  0.04776222  0.16227191  0.46906223  1
  Li  Li102  1  0.13637679  0.88249151  0.46545093  1
  Li  Li103  1  0.62406856  0.02789564  0.43516526  1
  Li  Li104  1  0.54531505  0.56306332  0.46341391  1
  Li  Li105  1  0.09075690  0.51967314  0.47928481  1
  Li  Li106  1  0.20123264  0.07328502  0.42789511  1
  Li  Li107  1  0.83245827  0.10346424  0.47462901  1
  Li  Li108  1  0.76024622  0.78085164  0.51568507  1
  Li  Li109  1  0.07334270  0.85473224  0.56664417  1
  Li  Li110  1  0.82647397  0.47525130  0.52755467  1
  Li  Li111  1  0.82571993  0.95546413  0.52969569  1
  Li  Li112  1  0.08245114  0.06453107  0.58157620  1
  Li  Li113  1  0.13612813  0.41603049  0.58004561  1
  Li  Li114  1  0.99327809  0.22083768  0.52875792  1
  Li  Li115  1  0.34981901  0.32147061  0.54387765  1
  Li  Li116  1  0.63200053  0.41955378  0.59183908  1
  Li  Li117  1  0.62406357  0.06236071  0.57804852  1
  Li  Li118  1  0.33333067  0.96613776  0.51527311  1
  Li  Li119  1  0.42132771  0.50452344  0.53271393  1
  Li  Li120  1  0.77807432  0.57032643  0.58531075  1
  Li  Li121  1  0.51835516  0.89522738  0.57521458  1
  Li  Li122  1  0.34040001  0.75906811  0.52500309  1
  Li  Li123  1  0.90156675  0.69961708  0.56279379  1
  Li  Li124  1  0.83414973  0.15860014  0.53567297  1
  Li  Li125  1  0.11944485  0.25568688  0.58866686  1
  Li  Li126  1  0.65029644  0.24610300  0.58103919  1
  Li  Li127  1  0.50606078  0.08164883  0.51954293  1
  Li  Li128  1  0.13264027  0.62712920  0.52942223  1
  Li  Li129  1  0.48592806  0.69523586  0.57138326  1
  Li  Li130  1  0.34384905  0.97690651  0.62189750  1
  Li  Li131  1  0.62230561  0.08343378  0.67572947  1
  Li  Li132  1  0.16523987  0.60319302  0.60252584  1
  Li  Li133  1  0.44049104  0.70821494  0.65566643  1
  Li  Li134  1  0.36753058  0.17047072  0.63926505  1
  Li  Li135  1  0.63720138  0.27840742  0.69542932  1
  Li  Li136  1  0.70149651  0.60954273  0.69398745  1
  Li  Li137  1  0.42915902  0.50313449  0.63914053  1
  Li  Li138  1  0.90060144  0.52454205  0.64735500  1
  Li  Li139  1  0.17795636  0.63453465  0.70345860  1
  Li  Li140  1  0.17473057  0.27339780  0.68861302  1
  Li  Li141  1  0.89958230  0.16772538  0.63304773  1
  Li  Li142  1  0.98177432  0.68775092  0.65108205  1
  Li  Li143  1  0.26106972  0.79597796  0.70502071  1
  Li  Li144  1  0.10198334  0.10030340  0.68605252  1
  Li  Li145  1  0.83006192  0.99257086  0.63114416  1
  Li  Li146  1  0.49396642  0.90345797  0.66784581  1
  Li  Li147  1  0.22134669  0.79871234  0.61340521  1
  Li  Li148  1  0.40762615  0.32002839  0.62982057  1
  Li  Li149  1  0.68282026  0.42484658  0.68701456  1
  Li  Li150  1  0.21232790  0.44917086  0.69143625  1
  Li  Li151  1  0.92321781  0.34533440  0.63629169  1
  Li  Li152  1  0.75108670  0.80438971  0.62192319  1
  Li  Li153  1  0.03522642  0.90592453  0.67592096  1
  Li  Li154  1  0.90343422  0.18660506  0.73345873  1
  Li  Li155  1  0.17596089  0.30231209  0.78875348  1
  Li  Li156  1  0.71610512  0.81234353  0.70965216  1
  Li  Li157  1  0.99257395  0.92210078  0.76525561  1
  Li  Li158  1  0.91119400  0.38591549  0.75073547  1
  Li  Li159  1  0.18485176  0.49535368  0.80603706  1
  Li  Li160  1  0.25256918  0.82449806  0.80384762  1
  Li  Li161  1  0.97244889  0.71775676  0.74910236  1
  Li  Li162  1  0.45463881  0.74022817  0.75905273  1
  Li  Li163  1  0.72422336  0.84716597  0.81479121  1
  Li  Li164  1  0.72537144  0.48782517  0.80007456  1
  Li  Li165  1  0.44657307  0.38205436  0.74420954  1
  Li  Li166  1  0.53287126  0.90229364  0.76003351  1
  Li  Li167  1  0.80951220  0.00637928  0.81517735  1
  Li  Li168  1  0.64329099  0.31637455  0.79424916  1
  Li  Li169  1  0.38141467  0.20407275  0.74198992  1
  Li  Li170  1  0.11799565  0.10039768  0.77746120  1
  Li  Li171  1  0.76847819  0.01206006  0.72342982  1
  Li  Li172  1  0.95858617  0.53160197  0.74117274  1
  Li  Li173  1  0.23088763  0.64198111  0.79690708  1
  Li  Li174  1  0.76075812  0.66334995  0.80390691  1
  Li  Li175  1  0.48749310  0.55721702  0.74703752  1
  Li  Li176  1  0.31439225  0.00849678  0.72812084  1
  Li  Li177  1  0.58707130  0.11642127  0.78697010  1
  Li  Li178  1  0.45240428  0.40027467  0.84246684  1
  Li  Li179  1  0.73177447  0.51062226  0.90346180  1
  Li  Li180  1  0.27613329  0.02067558  0.82258046  1
  Li  Li181  1  0.54673333  0.13428796  0.87707484  1
  Li  Li182  1  0.45831483  0.60115085  0.86071717  1
  Li  Li183  1  0.72967859  0.71802003  0.92041730  1
  Li  Li184  1  0.81426531  0.04251375  0.91274056  1
  Li  Li185  1  0.52058626  0.93228075  0.86429482  1
  Li  Li186  1  0.00800157  0.95319238  0.86834230  1
  Li  Li187  1  0.26486565  0.06255955  0.92943401  1
  Li  Li188  1  0.26863246  0.69871390  0.90766866  1
  Li  Li189  1  0.99288724  0.60296466  0.85568242  1
  Li  Li190  1  0.07528603  0.11914438  0.86944427  1
  Li  Li191  1  0.34772151  0.23533499  0.92673730  1
  Li  Li192  1  0.17473806  0.53425226  0.90571528  1
  Li  Li193  1  0.91818311  0.42131256  0.85226238  1
  Li  Li194  1  0.67162339  0.31857870  0.88399098  1
  Li  Li195  1  0.33226749  0.22117441  0.83410431  1
  Li  Li196  1  0.50970352  0.74363739  0.85421959  1
  Li  Li197  1  0.78465243  0.86145837  0.90572363  1
  Li  Li198  1  0.30486495  0.87077683  0.91583597  1
  Li  Li199  1  0.03477346  0.77486060  0.85763827  1
  Li  Li200  1  0.86286431  0.20761320  0.82360380  1
  Li  Li201  1  0.13738937  0.31266613  0.88121022  1
  Li  Li202  1  0.01961193  0.63953998  0.96655239  1
  Li  Li203  1  0.81917630  0.24101785  0.92901339  1
  Li  Li204  1  0.06451558  0.31266814  0.96866437  1
  Li  Li205  1  0.82503482  0.89972026  0.97556696  1
  Li  Li206  1  0.01420897  0.12486337  0.96823546  1
  Li  Li207  1  0.55641576  0.15714013  0.97588143  1
  Li  Li208  1  0.53687404  0.79906436  0.97012409  1
  Li  Li209  1  0.55214460  0.33784711  0.96907420  1
  Li  Li210  1  0.46378566  0.61757474  0.96545196  1
  Li  Li211  1  0.97579135  0.47214799  0.93517065  1
  Li  Li212  1  0.05461011  0.93706252  0.96343284  1
  Li  Li213  1  0.50920080  0.98031685  0.97928290  1
  Li  Li214  1  0.39870895  0.42677853  0.92789120  1
  Li  Li215  1  0.76765716  0.39653133  0.97466618  1
  P  P216  1  0.68246988  0.66063446  0.09475796  1
  P  P217  1  0.98282527  0.75926041  0.03742588  1
  P  P218  1  0.59090696  0.96485381  0.02911401  1
  P  P219  1  0.26899788  0.87314195  0.07839038  1
  P  P220  1  0.22395932  0.34818202  0.08415547  1
  P  P221  1  0.50596281  0.48452402  0.02544425  1
  P  P222  1  0.01473940  0.26119922  0.02634948  1
  P  P223  1  0.72697614  0.17898979  0.08075374  1
  P  P224  1  0.12953938  0.44499141  0.20375324  1
  P  P225  1  0.40892409  0.54936016  0.14874646  1
  P  P226  1  0.99852717  0.76671349  0.13128342  1
  P  P227  1  0.72354020  0.65659817  0.18639913  1
  P  P228  1  0.66936338  0.14049342  0.19565797  1
  P  P229  1  0.94411390  0.24510460  0.14014139  1
  P  P230  1  0.45441885  0.07542584  0.13773951  1
  P  P231  1  0.18012755  0.96512500  0.19386108  1
  P  P232  1  0.57623993  0.23285899  0.31448401  1
  P  P233  1  0.85786283  0.33819298  0.25952927  1
  P  P234  1  0.44372109  0.55150142  0.24132228  1
  P  P235  1  0.17241709  0.44476410  0.29725899  1
  P  P236  1  0.11916378  0.92522154  0.30620403  1
  P  P237  1  0.39602716  0.03059095  0.25109749  1
  P  P238  1  0.90408727  0.85877333  0.24940659  1
  P  P239  1  0.63302151  0.75052373  0.30430420  1
  P  P240  1  0.03449527  0.01952039  0.42215415  1
  P  P241  1  0.31277670  0.12107095  0.36866904  1
  P  P242  1  0.89333502  0.33885097  0.35034667  1
  P  P243  1  0.61876977  0.23019897  0.40700554  1
  P  P244  1  0.57245427  0.70876442  0.41708753  1
  P  P245  1  0.84814522  0.81566888  0.36454401  1
  P  P246  1  0.35264638  0.64578912  0.35914386  1
  P  P247  1  0.09238098  0.52995191  0.42008809  1
  P  P248  1  0.76821993  0.92682199  0.48108796  1
  P  P249  1  0.34395749  0.10185933  0.46449992  1
  P  P250  1  0.31141097  0.60791779  0.47420577  1
  P  P251  1  0.80307431  0.42150274  0.46768616  1
  P  P252  1  0.91745895  0.83941262  0.59475529  1
  P  P253  1  0.61721654  0.74065593  0.53741424  1
  P  P254  1  0.00917919  0.53503611  0.52912975  1
  P  P255  1  0.33103502  0.62680367  0.57839338  1
  P  P256  1  0.37604482  0.15176723  0.58418532  1
  P  P257  1  0.09400759  0.01547391  0.52545257  1
  P  P258  1  0.58522331  0.23877109  0.52635987  1
  P  P259  1  0.87293092  0.32102628  0.58075215  1
  P  P260  1  0.47042310  0.05504245  0.70376109  1
  P  P261  1  0.19104440  0.95063514  0.64877109  1
  P  P262  1  0.60147943  0.73328746  0.63126259  1
  P  P263  1  0.87649618  0.84327767  0.68637577  1
  P  P264  1  0.93063281  0.35951708  0.69566328  1
  P  P265  1  0.65609723  0.25472887  0.64012773  1
  P  P266  1  0.14554628  0.42448017  0.63775775  1
  P  P267  1  0.41995151  0.53480803  0.69387237  1
  P  P268  1  0.02378060  0.26715287  0.81446625  1
  P  P269  1  0.74211720  0.16182008  0.75952598  1
  P  P270  1  0.15625278  0.94853611  0.74133486  1
  P  P271  1  0.42768056  0.05518422  0.79725646  1
  P  P272  1  0.48082873  0.57482462  0.80620645  1
  P  P273  1  0.20392210  0.46945695  0.75110625  1
  P  P274  1  0.69586549  0.64122649  0.74941622  1
  P  P275  1  0.96705039  0.74946424  0.80427391  1
  P  P276  1  0.56540221  0.48060295  0.92214192  1
  P  P277  1  0.28726568  0.37891053  0.86862999  1
  P  P278  1  0.70668194  0.16114690  0.85033656  1
  P  P279  1  0.98119634  0.26980148  0.90700344  1
  P  P280  1  0.02752807  0.79128218  0.91706907  1
  P  P281  1  0.75191564  0.68432712  0.86454659  1
  P  P282  1  0.24729418  0.85436358  0.85917210  1
  P  P283  1  0.50760459  0.97013349  0.92009070  1
  P  P284  1  0.83162470  0.57313812  0.98108714  1
  P  P285  1  0.25591654  0.39819930  0.96446847  1
  P  P286  1  0.28862847  0.89215464  0.97420012  1
  P  P287  1  0.79687099  0.07854366  0.96769684  1
  S  S288  1  0.14987368  0.67102353  0.04562826  1
  S  S289  1  0.42395957  0.03826400  0.02786776  1
  S  S290  1  0.10734717  0.94786491  0.06828671  1
  S  S291  1  0.11521531  0.45955855  0.06244014  1
  S  S292  1  0.39150964  0.59548176  0.00478083  1
  S  S293  1  0.10318169  0.15427276  0.05048284  1
  S  S294  1  0.92090974  0.24268937  0.00281314  1
  S  S295  1  0.63598044  0.16145844  0.05606960  1
  S  S296  1  0.59483987  0.49645568  0.05241457  1
  S  S297  1  0.64291718  0.95843530  0.06477465  1
  S  S298  1  0.65985821  0.67587535  0.05683279  1
  S  S299  1  0.95952046  0.75722951  0.99976855  1
  S  S300  1  0.64305995  0.83706242  0.01665780  1
  S  S301  1  0.32937784  0.74272626  0.06660387  1
  S  S302  1  0.93785407  0.88474425  0.04860301  1
  S  S303  1  0.90049092  0.37542713  0.04776680  1
  S  S304  1  0.33954738  0.24239360  0.06208040  1
  S  S305  1  0.62494613  0.38547704  0.00180323  1
  S  S306  1  0.90559269  0.71429687  0.05742807  1
  S  S307  1  0.33891676  0.93116964  0.06249111  1
  S  S308  1  0.64252341  0.01351004  0.00220073  1
  S  S309  1  0.43187669  0.43110278  0.04235826  1
  S  S310  1  0.13006155  0.27233751  0.00948581  1
  S  S311  1  0.82900649  0.20045138  0.06187726  1
  S  S312  1  0.84486923  0.57034703  0.10478219  1
  S  S313  1  0.57103003  0.46304300  0.15951196  1
  S  S314  1  0.83307926  0.84216011  0.12270650  1
  S  S315  1  0.55907658  0.73699752  0.17739765  1
  S  S316  1  0.56426413  0.24774974  0.17257049  1
  S  S317  1  0.84019207  0.35302280  0.11705479  1
  S  S318  1  0.54903216  0.96892777  0.16190081  1
  S  S319  1  0.81995854  0.06603186  0.10299944  1
  S  S320  1  0.37042944  0.05347797  0.11189861  1
  S  S321  1  0.09044189  0.94753404  0.16865411  1
  S  S322  1  0.31133504  0.37351448  0.10819646  1
  S  S323  1  0.04091301  0.26276786  0.16293233  1
  S  S324  1  0.02794632  0.75828279  0.16916576  1
  S  S325  1  0.30353175  0.86233439  0.11587090  1
  S  S326  1  0.10362156  0.45747838  0.16597250  1
  S  S327  1  0.38515061  0.55925872  0.11079640  1
  S  S328  1  0.05618319  0.63437347  0.12100623  1
  S  S329  1  0.77565483  0.52575491  0.17665575  1
  S  S330  1  0.63662409  0.78793825  0.10634801  1
  S  S331  1  0.36047734  0.67779911  0.15993635  1
  S  S332  1  0.33545821  0.18106305  0.16026233  1
  S  S333  1  0.61268423  0.28566882  0.10411693  1
  S  S334  1  0.78241118  0.03621903  0.17182676  1
  S  S335  1  0.05464877  0.13959423  0.11637978  1
  S  S336  1  0.32335542  0.50513500  0.16484851  1
  S  S337  1  0.59535273  0.61694493  0.11010008  1
  S  S338  1  0.80172216  0.70490859  0.16890778  1
  S  S339  1  0.07416480  0.81831923  0.11553192  1
  S  S340  1  0.12738104  0.32302437  0.10476323  1
  S  S341  1  0.84925958  0.22122638  0.16139709  1
  S  S342  1  0.55613455  0.09862538  0.11898487  1
  S  S343  1  0.28175784  0.98644842  0.17465116  1
  S  S344  1  0.29157176  0.35826717  0.21457254  1
  S  S345  1  0.02191056  0.25384140  0.26908533  1
  S  S346  1  0.27916026  0.63268847  0.23227101  1
  S  S347  1  0.00925577  0.52589172  0.28748173  1
  S  S348  1  0.01145588  0.03358139  0.28357715  1
  S  S349  1  0.29086207  0.14073775  0.22878432  1
  S  S350  1  0.99621759  0.75164888  0.27356574  1
  S  S351  1  0.27280672  0.85766837  0.21783376  1
  S  S352  1  0.81576426  0.84144490  0.22359571  1
  S  S353  1  0.54563868  0.73191331  0.27846999  1
  S  S354  1  0.76386428  0.15989933  0.21880010  1
  S  S355  1  0.49390411  0.04649791  0.27402648  1
  S  S356  1  0.47686733  0.54191751  0.27877396  1
  S  S357  1  0.75710143  0.64996107  0.22385526  1
  S  S358  1  0.54645379  0.23875178  0.27686857  1
  S  S359  1  0.82802451  0.34877572  0.22192563  1
  S  S360  1  0.49465215  0.42098116  0.23111883  1
  S  S361  1  0.22406806  0.31427627  0.28742633  1
  S  S362  1  0.08284857  0.57323576  0.21496791  1
  S  S363  1  0.80853929  0.46728236  0.27031198  1
  S  S364  1  0.78655482  0.96568687  0.27191665  1
  S  S365  1  0.06329203  0.07255334  0.21644425  1
  S  S366  1  0.23050099  0.82134569  0.28210620  1
  S  S367  1  0.50623574  0.92732386  0.22677570  1
  S  S368  1  0.77428271  0.29230562  0.27574261  1
  S  S369  1  0.04524223  0.39953273  0.21964701  1
  S  S370  1  0.25252871  0.49204779  0.27965726  1
  S  S371  1  0.52332217  0.59858804  0.22402362  1
  S  S372  1  0.57524022  0.11535313  0.21670114  1
  S  S373  1  0.30178900  0.00558483  0.27209028  1
  S  S374  1  0.00597476  0.87978753  0.23022959  1
  S  S375  1  0.73475344  0.77273280  0.28553491  1
  S  S376  1  0.73944950  0.15071615  0.32404256  1
  S  S377  1  0.47727800  0.04202213  0.37759559  1
  S  S378  1  0.72884366  0.42177703  0.34100239  1
  S  S379  1  0.45543763  0.31752474  0.39772783  1
  S  S380  1  0.47439177  0.81890424  0.39365639  1
  S  S381  1  0.74379802  0.92437312  0.34149460  1
  S  S382  1  0.44421591  0.53739650  0.38269887  1
  S  S383  1  0.72598542  0.64432611  0.32858012  1
  S  S384  1  0.26032302  0.63221010  0.33352325  1
  S  S385  1  0.00248361  0.51390009  0.39402231  1
  S  S386  1  0.21485796  0.94515617  0.32864445  1
  S  S387  1  0.94163798  0.83436831  0.38810139  1
  S  S388  1  0.92359522  0.32691120  0.38780773  1
  S  S389  1  0.20112314  0.43907431  0.33498862  1
  S  S390  1  0.99546275  0.02022935  0.38530070  1
  S  S391  1  0.28016971  0.13522258  0.33112376  1
  S  S392  1  0.94542578  0.20922941  0.33893883  1
  S  S393  1  0.66520981  0.09984060  0.39803965  1
  S  S394  1  0.52473838  0.36337033  0.32414970  1
  S  S395  1  0.25621987  0.25118412  0.38076488  1
  S  S396  1  0.23806013  0.75230929  0.38213214  1
  S  S397  1  0.51429086  0.85683649  0.32672104  1
  S  S398  1  0.67914173  0.60333731  0.39218627  1
  S  S399  1  0.95981116  0.71139591  0.34057379  1
  S  S400  1  0.23847996  0.06609464  0.38371043  1
  S  S401  1  0.49612628  0.18517933  0.33198299  1
  S  S402  1  0.70576600  0.26673949  0.38781187  1
  S  S403  1  0.97421050  0.38764584  0.33448319  1
  S  S404  1  0.02569199  0.89968007  0.32729519  1
  S  S405  1  0.75354542  0.79046931  0.38526859  1
  S  S406  1  0.45380136  0.66736577  0.33974086  1
  S  S407  1  0.19180682  0.55305974  0.40041865  1
  S  S408  1  0.19807154  0.94015557  0.43095950  1
  S  S409  1  0.93042323  0.85571051  0.49056414  1
  S  S410  1  0.18032942  0.19543089  0.45268854  1
  S  S411  1  0.20289504  0.72376957  0.45403520  1
  S  S412  1  0.90872187  0.30455505  0.48708331  1
  S  S413  1  0.18955228  0.41730369  0.44266921  1
  S  S414  1  0.70430796  0.40974202  0.44315254  1
  S  S415  1  0.67510615  0.72300107  0.43848167  1
  S  S416  1  0.40791779  0.61655445  0.49967080  1
  S  S417  1  0.34817674  0.09657775  0.50200365  1
  S  S418  1  0.64130104  0.23603444  0.44478592  1
  S  S419  1  0.73099750  0.87084689  0.45278239  1
  S  S420  1  0.39309344  0.97784011  0.45045475  1
  S  S421  1  0.98100533  0.15207469  0.42939474  1
  S  S422  1  0.71741559  0.05177293  0.46831532  1
  S  S423  1  0.69764608  0.52037246  0.49203499  1
  S  S424  1  0.98138027  0.63534301  0.44343476  1
  S  S425  1  0.42014420  0.50989636  0.44854664  1
  S  S426  1  0.68350109  0.93826249  0.51276826  1
  S  S427  1  0.95602173  0.98024597  0.44344945  1
  S  S428  1  0.42599656  0.14817012  0.44655450  1
  S  S429  1  0.46826781  0.69396599  0.43662312  1
  S  S430  1  0.23147096  0.56172283  0.49140111  1
  S  S431  1  0.89233636  0.45359529  0.44712988  1
  S  S432  1  0.45015851  0.82897475  0.54560812  1
  S  S433  1  0.17610483  0.46166758  0.52784067  1
  S  S434  1  0.49268427  0.55208355  0.56829562  1
  S  S435  1  0.48472046  0.04039860  0.56245313  1
  S  S436  1  0.20850980  0.90450122  0.50479841  1
  S  S437  1  0.49682746  0.34562476  0.55051210  1
  S  S438  1  0.67894687  0.25739849  0.50282252  1
  S  S439  1  0.96386919  0.33864520  0.55607799  1
  S  S440  1  0.00511898  0.00357007  0.55242016  1
  S  S441  1  0.95724426  0.54150636  0.56480689  1
  S  S442  1  0.94001457  0.82418836  0.55682862  1
  S  S443  1  0.64054885  0.74274834  0.49976308  1
  S  S444  1  0.95706582  0.66279893  0.51664173  1
  S  S445  1  0.27069720  0.75721854  0.56661298  1
  S  S446  1  0.66219288  0.61516951  0.54859026  1
  S  S447  1  0.69957570  0.12447014  0.54775095  1
  S  S448  1  0.26043000  0.25752778  0.56210943  1
  S  S449  1  0.97505065  0.11453783  0.50180817  1
  S  S450  1  0.69449413  0.78553341  0.55743334  1
  S  S451  1  0.26112637  0.56878071  0.56247788  1
  S  S452  1  0.95751117  0.48634633  0.50223610  1
  S  S453  1  0.16799977  0.06893544  0.54239506  1
  S  S454  1  0.46987271  0.22767027  0.50948828  1
  S  S455  1  0.77093497  0.29955645  0.56186613  1
  S  S456  1  0.75503830  0.92963838  0.60478903  1
  S  S457  1  0.02901003  0.03697092  0.65957441  1
  S  S458  1  0.76692357  0.65776198  0.62268474  1
  S  S459  1  0.04098148  0.76275689  0.67738892  1
  S  S460  1  0.03575525  0.25224131  0.67257640  1
  S  S461  1  0.76023640  0.14694001  0.61703151  1
  S  S462  1  0.05088474  0.53101772  0.66190504  1
  S  S463  1  0.77995960  0.43389059  0.60302117  1
  S  S464  1  0.22955047  0.44641745  0.61192070  1
  S  S465  1  0.50962266  0.55243721  0.66867419  1
  S  S466  1  0.28871270  0.12645140  0.60823900  1
  S  S467  1  0.55933249  0.23691452  0.66288983  1
  S  S468  1  0.57213825  0.74166748  0.66915345  1
  S  S469  1  0.29656726  0.63754673  0.61587671  1
  S  S470  1  0.49626855  0.04254820  0.66597643  1
  S  S471  1  0.21477832  0.94078091  0.61082254  1
  S  S472  1  0.54385925  0.86563252  0.62100211  1
  S  S473  1  0.82440193  0.97409682  0.67658490  1
  S  S474  1  0.96334776  0.71209050  0.60633810  1
  S  S475  1  0.23946746  0.82219339  0.65995576  1
  S  S476  1  0.26452751  0.31890180  0.66028505  1
  S  S477  1  0.98729680  0.21433433  0.60409885  1
  S  S478  1  0.81755529  0.46379312  0.67183147  1
  S  S479  1  0.54550554  0.36029797  0.61639040  1
  S  S480  1  0.27672030  0.99478930  0.66485237  1
  S  S481  1  0.00465248  0.88307706  0.61007501  1
  S  S482  1  0.79828518  0.79492855  0.66891701  1
  S  S483  1  0.52566479  0.68183766  0.61551440  1
  S  S484  1  0.47262877  0.17697458  0.60476313  1
  S  S485  1  0.75087531  0.27859287  0.66141929  1
  S  S486  1  0.04387586  0.40122432  0.61900196  1
  S  S487  1  0.31836284  0.51344155  0.67465611  1
  S  S488  1  0.30843232  0.14180601  0.71458854  1
  S  S489  1  0.57807265  0.24625755  0.76909509  1
  S  S490  1  0.32079157  0.86737835  0.73227140  1
  S  S491  1  0.59088398  0.97407564  0.78748528  1
  S  S492  1  0.58857861  0.46646549  0.78358344  1
  S  S493  1  0.30893382  0.35928025  0.72878559  1
  S  S494  1  0.60375749  0.74832943  0.77357818  1
  S  S495  1  0.32715298  0.64224224  0.71785020  1
  S  S496  1  0.78418187  0.65856606  0.72360608  1
  S  S497  1  0.05449079  0.76802439  0.77844238  1
  S  S498  1  0.83616758  0.34005411  0.71880125  1
  S  S499  1  0.10608330  0.45358402  0.77406239  1
  S  S500  1  0.12305496  0.95810021  0.77878435  1
  S  S501  1  0.84281898  0.85010960  0.72382851  1
  S  S502  1  0.05349973  0.26123447  0.77685429  1
  S  S503  1  0.77194495  0.15126877  0.72191718  1
  S  S504  1  0.10527242  0.07911514  0.73115392  1
  S  S505  1  0.37594292  0.18568753  0.78742450  1
  S  S506  1  0.51712595  0.92679014  0.71499162  1
  S  S507  1  0.79143884  0.03272378  0.77029501  1
  S  S508  1  0.81344715  0.53433986  0.77193114  1
  S  S509  1  0.53678356  0.42735169  0.71644966  1
  S  S510  1  0.36947882  0.67870747  0.78211090  1
  S  S511  1  0.09372316  0.57270932  0.72677907  1
  S  S512  1  0.82569127  0.20771975  0.77571588  1
  S  S513  1  0.55476966  0.10049243  0.71963051  1
  S  S514  1  0.34759897  0.00787178  0.77966259  1
  S  S515  1  0.07665740  0.90146955  0.72403089  1
  S  S516  1  0.02474528  0.38465416  0.71670677  1
  S  S517  1  0.29828129  0.49440999  0.77207345  1
  S  S518  1  0.59400321  0.62019896  0.73023581  1
  S  S519  1  0.86527364  0.72728002  0.78550928  1
  S  S520  1  0.86058847  0.34925303  0.82403318  1
  S  S521  1  0.12273829  0.45804171  0.87752256  1
  S  S522  1  0.87118555  0.07822358  0.84099802  1
  S  S523  1  0.14458208  0.18258744  0.89773063  1
  S  S524  1  0.12567502  0.68118524  0.89363941  1
  S  S525  1  0.85613427  0.57565915  0.84148307  1
  S  S526  1  0.15558890  0.96269921  0.88272669  1
  S  S527  1  0.87415291  0.85571728  0.82854254  1
  S  S528  1  0.33952583  0.86810068  0.83356971  1
  S  S529  1  0.59745609  0.98625701  0.89402947  1
  S  S530  1  0.38516429  0.55485275  0.82864248  1
  S  S531  1  0.65842189  0.66560930  0.88809774  1
  S  S532  1  0.67641167  0.17310042  0.88780014  1
  S  S533  1  0.39900350  0.06088744  0.83498765  1
  S  S534  1  0.60440733  0.47984106  0.88528511  1
  S  S535  1  0.32004688  0.36462087  0.83108960  1
  S  S536  1  0.65463243  0.29075809  0.83893024  1
  S  S537  1  0.93476774  0.40015159  0.89802406  1
  S  S538  1  0.07529150  0.13664931  0.82414461  1
  S  S539  1  0.34365795  0.24885748  0.88075660  1
  S  S540  1  0.36196618  0.74780890  0.88213885  1
  S  S541  1  0.08563961  0.64322572  0.82672211  1
  S  S542  1  0.92076531  0.89669351  0.89217486  1
  S  S543  1  0.64029900  0.78860420  0.84056998  1
  S  S544  1  0.36149159  0.43394399  0.88368052  1
  S  S545  1  0.10386503  0.31484947  0.83196943  1
  S  S546  1  0.89426942  0.23321830  0.88780449  1
  S  S547  1  0.62578363  0.11237984  0.83447880  1
  S  S548  1  0.57424511  0.60040764  0.82731378  1
  S  S549  1  0.84656663  0.70948964  0.88527116  1
  S  S550  1  0.14626623  0.83266748  0.83976481  1
  S  S551  1  0.40812618  0.94713687  0.90039449  1
  S  S552  1  0.40185585  0.55997907  0.93097337  1
  S  S553  1  0.66940613  0.64421591  0.99053071  1
  S  S554  1  0.41962459  0.30462398  0.95268114  1
  S  S555  1  0.39718400  0.77631780  0.95402748  1
  S  S556  1  0.69120946  0.19549554  0.98707545  1
  S  S557  1  0.41050052  0.08272496  0.94269128  1
  S  S558  1  0.89565561  0.09028720  0.94316409  1
  S  S559  1  0.92488622  0.77700014  0.93846377  1
  S  S560  1  0.19208582  0.88348805  0.99964630  1
  S  S561  1  0.25132143  0.40377462  0.00196843  1
  S  S562  1  0.95867298  0.26396665  0.94479133  1
  S  S563  1  0.86885065  0.62917804  0.95279725  1
  S  S564  1  0.20681081  0.52217149  0.95037299  1
  S  S565  1  0.61886474  0.34806940  0.92941057  1
  S  S566  1  0.88264560  0.44812218  0.96832090  1
  S  S567  1  0.90226943  0.97969329  0.99205396  1
  S  S568  1  0.61858339  0.86468189  0.94342304  1
  S  S569  1  0.17987027  0.99021677  0.94855942  1
  S  S570  1  0.91610558  0.56183530  0.01279463  1
  S  S571  1  0.64401401  0.51974660  0.94343720  1
  S  S572  1  0.17398175  0.35178516  0.94652078  1
  S  S573  1  0.13158632  0.80625769  0.93660155  1
  S  S574  1  0.36856871  0.93828254  0.99142828  1
  S  S575  1  0.70770801  0.04636519  0.94713449  1
