# generated using pymatgen
data_Li3PS4
_symmetry_space_group_name_H-M   'P 1'
_cell_length_a   14.91536200
_cell_length_b   18.09023401
_cell_length_c   53.40463136
_cell_angle_alpha   90.00000000
_cell_angle_beta   90.00000000
_cell_angle_gamma   54.48401034
_symmetry_Int_Tables_number   1
_chemical_formula_structural   Li3PS4
_chemical_formula_sum   'Li216 P72 S288'
_cell_volume   11728.87780310
_cell_formula_units_Z   72
loop_
 _symmetry_equiv_pos_site_id
 _symmetry_equiv_pos_as_xyz
  1  'x, y, z'
loop_
 _atom_site_type_symbol
 _atom_site_label
 _atom_site_symmetry_multiplicity
 _atom_site_fract_x
 _atom_site_fract_y
 _atom_site_fract_z
 _atom_site_occupancy
  Li  Li0  1  0.85744487  0.92439157  0.99412189  1
  Li  Li1  1  0.44087915  0.71071790  0.06771192  1
  Li  Li2  1  0.66150969  0.01937092  0.04697133  1
  Li  Li3  1  0.63393341  0.55411676  0.03890127  1
  Li  Li4  1  0.44377443  0.46327608  0.08517108  1
  Li  Li5  1  0.38858435  0.10925973  0.08462092  1
  Li  Li6  1  0.57245649  0.28425681  0.03178343  1
  Li  Li7  1  0.19928087  0.18025253  0.04020036  1
  Li  Li8  1  0.91034774  0.13251327  0.08710028  1
  Li  Li9  1  0.92037638  0.48146656  0.07929167  1
  Li  Li10  1  0.21859548  0.56497166  0.03055732  1
  Li  Li11  1  0.95516779  0.12124039  0.02968123  1
  Li  Li12  1  0.41825077  0.18273394  0.02434578  1
  Li  Li13  1  0.00572616  0.63154578  0.07504328  1
  Li  Li14  1  0.26451612  0.76775154  0.01006468  1
  Li  Li15  1  0.62161918  0.82307901  0.05142698  1
  Li  Li16  1  0.71777517  0.37208504  0.04299506  1
  Li  Li17  1  0.42644274  0.25929128  0.09320270  1
  Li  Li18  1  0.95421930  0.29810759  0.08861110  1
  Li  Li19  1  0.97477037  0.46898916  0.02234325  1
  Li  Li20  1  0.05318548  0.85802744  0.04452266  1
  Li  Li21  1  0.18184814  0.54781164  0.12529964  1
  Li  Li22  1  0.91274167  0.44549170  0.17610164  1
  Li  Li23  1  0.37403570  0.92335946  0.09562475  1
  Li  Li24  1  0.09060092  0.82256260  0.15723076  1
  Li  Li25  1  0.17512539  0.34814229  0.13868768  1
  Li  Li26  1  0.88204522  0.24864836  0.19640640  1
  Li  Li27  1  0.83358004  0.91327966  0.19287362  1
  Li  Li28  1  0.10416448  0.01522681  0.13704303  1
  Li  Li29  1  0.64286905  0.00598002  0.14559655  1
  Li  Li30  1  0.36148074  0.90667534  0.19950189  1
  Li  Li31  1  0.36202669  0.26691134  0.18725187  1
  Li  Li32  1  0.64190863  0.37378310  0.12996726  1
  Li  Li33  1  0.56726524  0.83464998  0.14649711  1
  Li  Li34  1  0.86069252  0.94045711  0.09005495  1
  Li  Li35  1  0.44829502  0.42876256  0.18385141  1
  Li  Li36  1  0.70893741  0.54467443  0.13045958  1
  Li  Li37  1  0.95720806  0.64637086  0.16530752  1
  Li  Li38  1  0.23524470  0.75433624  0.10572433  1
  Li  Li39  1  0.14409190  0.16694800  0.14684928  1
  Li  Li40  1  0.86927523  0.06241727  0.20193610  1
  Li  Li41  1  0.38517419  0.08701654  0.19663136  1
  Li  Li42  1  0.67506217  0.19017474  0.14150794  1
  Li  Li43  1  0.78638549  0.75033282  0.10205105  1
  Li  Li44  1  0.49780509  0.63111076  0.17318125  1
  Li  Li45  1  0.62587373  0.34621276  0.23568591  1
  Li  Li46  1  0.35703027  0.23382574  0.28825947  1
  Li  Li47  1  0.80993713  0.72075663  0.21233762  1
  Li  Li48  1  0.54176772  0.61128158  0.26376928  1
  Li  Li49  1  0.61397845  0.14825241  0.25114536  1
  Li  Li50  1  0.33806926  0.04010325  0.30673634  1
  Li  Li51  1  0.28825404  0.70530718  0.30344416  1
  Li  Li52  1  0.55524852  0.81333736  0.24926401  1
  Li  Li53  1  0.07986522  0.80017374  0.25740140  1
  Li  Li54  1  0.80544139  0.68737006  0.31291926  1
  Li  Li55  1  0.80877173  0.04783293  0.29947474  1
  Li  Li56  1  0.08637104  0.16072161  0.24241806  1
  Li  Li57  1  0.01034446  0.62614853  0.25810980  1
  Li  Li58  1  0.27729016  0.73761161  0.20333903  1
  Li  Li59  1  0.89036137  0.21724626  0.29652435  1
  Li  Li60  1  0.15755928  0.33130870  0.24201798  1
  Li  Li61  1  0.40237913  0.43881063  0.27652793  1
  Li  Li62  1  0.76471092  0.51775287  0.22349838  1
  Li  Li63  1  0.57786073  0.99552936  0.24480992  1
  Li  Li64  1  0.30335088  0.88818471  0.30000886  1
  Li  Li65  1  0.77295632  0.87004528  0.30195980  1
  Li  Li66  1  0.10112992  0.98050641  0.25131955  1
  Li  Li67  1  0.22166030  0.53955863  0.21325630  1
  Li  Li68  1  0.94559439  0.41708296  0.28677388  1
  Li  Li69  1  0.07866194  0.13369621  0.34254721  1
  Li  Li70  1  0.79809290  0.02971744  0.40441978  1
  Li  Li71  1  0.25530002  0.50974903  0.32405224  1
  Li  Li72  1  0.98807409  0.40642253  0.37454323  1
  Li  Li73  1  0.06494908  0.93977306  0.36287668  1
  Li  Li74  1  0.78290027  0.84425179  0.41496322  1
  Li  Li75  1  0.72695849  0.48917472  0.41477269  1
  Li  Li76  1  0.99261126  0.60839115  0.36111018  1
  Li  Li77  1  0.52713737  0.58102458  0.36993743  1
  Li  Li78  1  0.25018485  0.47131336  0.42059630  1
  Li  Li79  1  0.26166307  0.81918052  0.41283189  1
  Li  Li80  1  0.52702793  0.94879630  0.35415107  1
  Li  Li81  1  0.46263204  0.40846294  0.36986837  1
  Li  Li82  1  0.71947833  0.52568548  0.31606859  1
  Li  Li83  1  0.31073318  0.01297502  0.40973188  1
  Li  Li84  1  0.60285147  0.12039615  0.35343350  1
  Li  Li85  1  0.93642105  0.19920735  0.39457404  1
  Li  Li86  1  0.21113195  0.30942912  0.33483452  1
  Li  Li87  1  0.02410111  0.78910061  0.35210157  1
  Li  Li88  1  0.74341913  0.69476276  0.40598223  1
  Li  Li89  1  0.21405136  0.65603827  0.41090346  1
  Li  Li90  1  0.49489866  0.76404401  0.35860676  1
  Li  Li91  1  0.67089642  0.32375100  0.32645745  1
  Li  Li92  1  0.38529617  0.20287168  0.39805066  1
  Li  Li93  1  0.51282056  0.93142047  0.45295176  1
  Li  Li94  1  0.73263163  0.24042558  0.43253944  1
  Li  Li95  1  0.32002968  0.02419553  0.50586745  1
  Li  Li96  1  0.60146732  0.66605233  0.46821494  1
  Li  Li97  1  0.53774232  0.39768739  0.46119897  1
  Li  Li98  1  0.95400358  0.38617180  0.46985784  1
  Li  Li99  1  0.97330714  0.77237778  0.45968820  1
  Li  Li100  1  0.91090171  0.18168928  0.49057730  1
  Li  Li101  1  0.16599372  0.32067961  0.42524669  1
  Li  Li102  1  0.75729493  0.76695664  0.47556974  1
  Li  Li103  1  0.22036619  0.82905900  0.47023436  1
  Li  Li104  1  0.55033704  0.12905347  0.44902577  1
  Li  Li105  1  0.45495889  0.57887622  0.45663669  1
  Li  Li106  1  0.20028852  0.48299126  0.47725949  1
  Li  Li107  1  0.12109692  0.09280542  0.45567931  1
  Li  Li108  1  0.81814171  0.02511925  0.49429388  1
  Li  Li109  1  0.23489484  0.23882018  0.56778897  1
  Li  Li110  1  0.01430452  0.93036829  0.54713660  1
  Li  Li111  1  0.04181070  0.39492539  0.53883777  1
  Li  Li112  1  0.23156512  0.48632089  0.58514114  1
  Li  Li113  1  0.28671824  0.84038117  0.58490682  1
  Li  Li114  1  0.10326855  0.66542176  0.53182265  1
  Li  Li115  1  0.47682229  0.76954238  0.54026909  1
  Li  Li116  1  0.76495338  0.81608577  0.58705999  1
  Li  Li117  1  0.75500830  0.46831568  0.57921627  1
  Li  Li118  1  0.45708062  0.38414953  0.53088278  1
  Li  Li119  1  0.72106504  0.82833348  0.52967475  1
  Li  Li120  1  0.25736772  0.76681004  0.52449087  1
  Li  Li121  1  0.67002360  0.31808724  0.57520882  1
  Li  Li122  1  0.41143430  0.18100720  0.51015822  1
  Li  Li123  1  0.05403426  0.12638816  0.55134807  1
  Li  Li124  1  0.95941004  0.57647525  0.54296823  1
  Li  Li125  1  0.24788219  0.69067632  0.59371872  1
  Li  Li126  1  0.72055678  0.65188946  0.58884707  1
  Li  Li127  1  0.70089278  0.48073977  0.52243413  1
  Li  Li128  1  0.62249999  0.09137802  0.54456880  1
  Li  Li129  1  0.49282586  0.40221398  0.62544790  1
  Li  Li130  1  0.76062260  0.50501679  0.67591622  1
  Li  Li131  1  0.30190941  0.02592898  0.59582178  1
  Li  Li132  1  0.58441198  0.12814003  0.65762173  1
  Li  Li133  1  0.49840473  0.60365467  0.63874075  1
  Li  Li134  1  0.79283204  0.70161263  0.69655589  1
  Li  Li135  1  0.84692196  0.03513989  0.69329535  1
  Li  Li136  1  0.57146787  0.93494439  0.63720336  1
  Li  Li137  1  0.03197894  0.94385461  0.64573770  1
  Li  Li138  1  0.31289274  0.04254233  0.69953764  1
  Li  Li139  1  0.31125454  0.68145612  0.68685463  1
  Li  Li140  1  0.03294866  0.57628232  0.63015497  1
  Li  Li141  1  0.10741234  0.11578932  0.64656993  1
  Li  Li142  1  0.81406626  0.00895284  0.59024640  1
  Li  Li143  1  0.22657328  0.52036103  0.68409450  1
  Li  Li144  1  0.96611033  0.40521669  0.63027476  1
  Li  Li145  1  0.71567554  0.30450363  0.66524287  1
  Li  Li146  1  0.44027022  0.19533627  0.60571285  1
  Li  Li147  1  0.52998716  0.78378580  0.64758355  1
  Li  Li148  1  0.80669283  0.88713131  0.70184543  1
  Li  Li149  1  0.27808039  0.86439434  0.69788618  1
  Li  Li150  1  0.99909336  0.75975677  0.64154090  1
  Li  Li151  1  0.88925882  0.19908371  0.60208733  1
  Li  Li152  1  0.17642989  0.31922988  0.67356619  1
  Li  Li153  1  0.04788450  0.60555051  0.73590146  1
  Li  Li154  1  0.31637045  0.71598753  0.78764754  1
  Li  Li155  1  0.86323080  0.22827542  0.71166041  1
  Li  Li156  1  0.13192676  0.34025743  0.76413672  1
  Li  Li157  1  0.06177425  0.80733838  0.75065182  1
  Li  Li158  1  0.34300063  0.90841177  0.80723105  1
  Li  Li159  1  0.38672831  0.24444953  0.80339908  1
  Li  Li160  1  0.11999126  0.14280105  0.74858503  1
  Li  Li161  1  0.59504136  0.14916808  0.75720586  1
  Li  Li162  1  0.86770015  0.26163095  0.81227595  1
  Li  Li163  1  0.86608229  0.90089155  0.79961602  1
  Li  Li164  1  0.58857103  0.78857481  0.74211672  1
  Li  Li165  1  0.66343190  0.32530627  0.75792966  1
  Li  Li166  1  0.39707181  0.21232107  0.70358394  1
  Li  Li167  1  0.78482908  0.73228985  0.79665749  1
  Li  Li168  1  0.51613928  0.62006317  0.74191446  1
  Li  Li169  1  0.27058682  0.51242965  0.77647923  1
  Li  Li170  1  0.90783732  0.43380103  0.72333339  1
  Li  Li171  1  0.08586471  0.98899155  0.75540641  1
  Li  Li172  1  0.37302142  0.06107009  0.79990576  1
  Li  Li173  1  0.89030491  0.08130445  0.80310849  1
  Li  Li174  1  0.57098005  0.96838123  0.75158151  1
  Li  Li175  1  0.45214993  0.41085048  0.71340804  1
  Li  Li176  1  0.72829530  0.53381902  0.78682152  1
  Li  Li177  1  0.59758579  0.81627270  0.84287845  1
  Li  Li178  1  0.87754110  0.92033011  0.90438354  1
  Li  Li179  1  0.41899973  0.44063256  0.82382303  1
  Li  Li180  1  0.68727313  0.54326125  0.87464250  1
  Li  Li181  1  0.61094966  0.01031909  0.86295480  1
  Li  Li182  1  0.89283839  0.10572614  0.91517689  1
  Li  Li183  1  0.94913919  0.46005819  0.91470545  1
  Li  Li184  1  0.68143859  0.34309014  0.86117971  1
  Li  Li185  1  0.14789790  0.36882380  0.87004258  1
  Li  Li186  1  0.42489952  0.47879097  0.92055594  1
  Li  Li187  1  0.41393827  0.13028149  0.91269398  1
  Li  Li188  1  0.14786325  0.00074245  0.85409988  1
  Li  Li189  1  0.21326179  0.54157569  0.86957811  1
  Li  Li190  1  0.95479579  0.42357096  0.81603347  1
  Li  Li191  1  0.36475613  0.93662232  0.90982339  1
  Li  Li192  1  0.07194597  0.82973954  0.85335261  1
  Li  Li193  1  0.73989453  0.74993644  0.89454519  1
  Li  Li194  1  0.46245831  0.64122942  0.83481305  1
  Li  Li195  1  0.64997747  0.16168041  0.85230863  1
  Li  Li196  1  0.93123431  0.25511172  0.90648623  1
  Li  Li197  1  0.46016664  0.29452455  0.91093096  1
  Li  Li198  1  0.17926649  0.18597649  0.85851169  1
  Li  Li199  1  0.00439950  0.62552394  0.82656043  1
  Li  Li200  1  0.29047743  0.74691175  0.89809224  1
  Li  Li201  1  0.16350396  0.01742041  0.95303959  1
  Li  Li202  1  0.94323580  0.70920625  0.93241118  1
  Li  Li203  1  0.35619800  0.92466102  0.00596768  1
  Li  Li204  1  0.07493253  0.28271905  0.96819966  1
  Li  Li205  1  0.13801998  0.55186080  0.96104887  1
  Li  Li206  1  0.72235546  0.56241724  0.96974452  1
  Li  Li207  1  0.70229260  0.17728412  0.95964143  1
  Li  Li208  1  0.76457645  0.76724227  0.99061618  1
  Li  Li209  1  0.51020036  0.62871147  0.92531860  1
  Li  Li210  1  0.91840581  0.18251178  0.97562782  1
  Li  Li211  1  0.45558097  0.12049903  0.97011783  1
  Li  Li212  1  0.12555525  0.82033387  0.94901665  1
  Li  Li213  1  0.22059778  0.37055902  0.95644996  1
  Li  Li214  1  0.47525216  0.46675956  0.97734187  1
  Li  Li215  1  0.55478721  0.85680960  0.95564931  1
  P  P216  1  0.91741578  0.77677234  0.03751300  1
  P  P217  1  0.50909718  0.99607556  0.01795824  1
  P  P218  1  0.19703733  0.91674419  0.06956424  1
  P  P219  1  0.16659113  0.36999308  0.08238227  1
  P  P220  1  0.45013497  0.52124922  0.03109327  1
  P  P221  1  0.95108954  0.30095152  0.03029884  1
  P  P222  1  0.66794830  0.20453476  0.08225490  1
  P  P223  1  0.62852425  0.68961356  0.09249965  1
  P  P224  1  0.33834066  0.58466879  0.14784646  1
  P  P225  1  0.93962221  0.79473472  0.12955883  1
  P  P226  1  0.66017485  0.68798567  0.18618009  1
  P  P227  1  0.60683810  0.16900335  0.19547702  1
  P  P228  1  0.88052632  0.27676575  0.14105270  1
  P  P229  1  0.39784228  0.09454750  0.13873276  1
  P  P230  1  0.11666508  0.99644685  0.19301544  1
  P  P231  1  0.06433664  0.47665705  0.20251650  1
  P  P232  1  0.78998615  0.36998415  0.26036922  1
  P  P233  1  0.37797950  0.58565535  0.23953500  1
  P  P234  1  0.10318986  0.47943328  0.29737840  1
  P  P235  1  0.05378650  0.95907310  0.30688528  1
  P  P236  1  0.32940368  0.06449840  0.25133353  1
  P  P237  1  0.83722376  0.89268824  0.24784819  1
  P  P238  1  0.56337590  0.78473273  0.30458218  1
  P  P239  1  0.50721611  0.26803445  0.31377887  1
  P  P240  1  0.23123462  0.15943641  0.37031344  1
  P  P241  1  0.83075223  0.36962103  0.35206288  1
  P  P242  1  0.54425148  0.26224637  0.40775287  1
  P  P243  1  0.50422760  0.74763706  0.41786737  1
  P  P244  1  0.77178040  0.86047795  0.36074806  1
  P  P245  1  0.28827863  0.67837493  0.35874376  1
  P  P246  1  0.00446907  0.58316214  0.41735719  1
  P  P247  1  0.97573465  0.03558247  0.43059905  1
  P  P248  1  0.66477081  0.95470156  0.48220362  1
  P  P249  1  0.25689944  0.17416494  0.46269729  1
  P  P250  1  0.22150770  0.65042537  0.46964675  1
  P  P251  1  0.72223013  0.43005783  0.46878717  1
  P  P252  1  0.75816505  0.17273380  0.53770128  1
  P  P253  1  0.16656870  0.95347188  0.51788030  1
  P  P254  1  0.47867066  0.03271747  0.56967916  1
  P  P255  1  0.50877800  0.57972358  0.58245705  1
  P  P256  1  0.22562781  0.42772622  0.53108632  1
  P  P257  1  0.72550634  0.64847150  0.53034633  1
  P  P258  1  0.00739601  0.74491511  0.58221796  1
  P  P259  1  0.04726411  0.25970616  0.59246894  1
  P  P260  1  0.33618231  0.36502051  0.64806226  1
  P  P261  1  0.73610028  0.15459264  0.62975556  1
  P  P262  1  0.01229449  0.26352398  0.68604880  1
  P  P263  1  0.06905200  0.77933747  0.69541258  1
  P  P264  1  0.79399404  0.67341512  0.64128674  1
  P  P265  1  0.27689914  0.85557796  0.63917915  1
  P  P266  1  0.55789630  0.95393458  0.69317198  1
  P  P267  1  0.60894061  0.47419624  0.70251948  1
  P  P268  1  0.88460599  0.57987945  0.76045798  1
  P  P269  1  0.29604073  0.36446834  0.73983137  1
  P  P270  1  0.57050578  0.47170362  0.79732563  1
  P  P271  1  0.62150750  0.99070785  0.80693205  1
  P  P272  1  0.34548225  0.88713593  0.75178002  1
  P  P273  1  0.83759691  0.05849657  0.74825923  1
  P  P274  1  0.11257893  0.16374160  0.80430158  1
  P  P275  1  0.16628970  0.68295196  0.81359487  1
  P  P276  1  0.44529794  0.78977890  0.87049527  1
  P  P277  1  0.84471761  0.57947631  0.85209281  1
  P  P278  1  0.13157804  0.68730207  0.90752777  1
  P  P279  1  0.17146258  0.20145792  0.91779618  1
  P  P280  1  0.90259496  0.09023363  0.86110871  1
  P  P281  1  0.38633567  0.27219237  0.85866280  1
  P  P282  1  0.67069349  0.36676584  0.91746028  1
  P  P283  1  0.70017183  0.91399513  0.93056808  1
  P  P284  1  0.01089417  0.99492555  0.98214400  1
  P  P285  1  0.41948340  0.77483523  0.96277609  1
  P  P286  1  0.45402745  0.29905099  0.96950948  1
  P  P287  1  0.95394467  0.51907569  0.96872582  1
  S  S288  1  0.07412035  0.70386881  0.05234864  1
  S  S289  1  0.34783120  0.08618394  0.00721810  1
  S  S290  1  0.02979298  0.99543212  0.06250364  1
  S  S291  1  0.07194094  0.47937401  0.05900694  1
  S  S292  1  0.32105370  0.60932468  0.00780015  1
  S  S293  1  0.03312471  0.19279059  0.05431364  1
  S  S294  1  0.84897399  0.29075864  0.00792611  1
  S  S295  1  0.57394008  0.17734927  0.06141808  1
  S  S296  1  0.48857989  0.55914371  0.06348881  1
  S  S297  1  0.52628365  0.98929127  0.05642067  1
  S  S298  1  0.61251089  0.69068309  0.05409223  1
  S  S299  1  0.92161978  0.76505647  0.99965591  1
  S  S300  1  0.56547362  0.86815914  0.00589322  1
  S  S301  1  0.24931180  0.78805051  0.05752735  1
  S  S302  1  0.85675373  0.91215335  0.04506664  1
  S  S303  1  0.84474059  0.42204900  0.05030982  1
  S  S304  1  0.28085794  0.25309629  0.06245757  1
  S  S305  1  0.59138254  0.46623210  0.01043836  1
  S  S306  1  0.83075567  0.73336786  0.05378359  1
  S  S307  1  0.28534554  0.95862857  0.05431736  1
  S  S308  1  0.59323813  0.04546455  0.00432670  1
  S  S309  1  0.40923012  0.43489393  0.04312340  1
  S  S310  1  0.06791415  0.30711582  0.01282829  1
  S  S311  1  0.74900116  0.23283763  0.05725684  1
  S  S312  1  0.78844361  0.60689004  0.10514893  1
  S  S313  1  0.50460944  0.50104200  0.15590283  1
  S  S314  1  0.77922913  0.88263420  0.11788819  1
  S  S315  1  0.49813553  0.77048126  0.17552212  1
  S  S316  1  0.51001731  0.27488829  0.17141589  1
  S  S317  1  0.79049185  0.38458248  0.11678084  1
  S  S318  1  0.50199473  0.98773909  0.16207642  1
  S  S319  1  0.78094528  0.09888792  0.10444772  1
  S  S320  1  0.30349164  0.07369736  0.11613397  1
  S  S321  1  0.02157222  0.97773466  0.16989516  1
  S  S322  1  0.25405595  0.39442840  0.10661185  1
  S  S323  1  0.97000460  0.29244590  0.16700096  1
  S  S324  1  0.96249939  0.78422243  0.16760964  1
  S  S325  1  0.23175179  0.89798298  0.10753474  1
  S  S326  1  0.04125439  0.48113172  0.16437679  1
  S  S327  1  0.30046913  0.59200920  0.11067592  1
  S  S328  1  0.98466060  0.66580833  0.11951361  1
  S  S329  1  0.71144658  0.55749608  0.17623319  1
  S  S330  1  0.57856800  0.82099770  0.10073971  1
  S  S331  1  0.29083973  0.71351475  0.15789292  1
  S  S332  1  0.28404637  0.20279538  0.16173521  1
  S  S333  1  0.55925003  0.31043727  0.10602698  1
  S  S334  1  0.72459954  0.06264864  0.17287104  1
  S  S335  1  0.99756909  0.16943608  0.11876000  1
  S  S336  1  0.26281698  0.53474698  0.16606862  1
  S  S337  1  0.53473329  0.65686922  0.10950613  1
  S  S338  1  0.74223471  0.73403110  0.16935295  1
  S  S339  1  0.02633417  0.83870807  0.11408678  1
  S  S340  1  0.06610829  0.35246810  0.10392810  1
  S  S341  1  0.77629353  0.25735657  0.15994146  1
  S  S342  1  0.49446744  0.11728941  0.11768551  1
  S  S343  1  0.21150260  0.02069170  0.17201217  1
  S  S344  1  0.22632520  0.39568831  0.21343788  1
  S  S345  1  0.95455357  0.28608363  0.26968492  1
  S  S346  1  0.21290684  0.67021302  0.23069277  1
  S  S347  1  0.94152907  0.56047217  0.28625952  1
  S  S348  1  0.95199043  0.06569182  0.28329524  1
  S  S349  1  0.23206055  0.17389400  0.22827292  1
  S  S350  1  0.93336394  0.78458757  0.27132990  1
  S  S351  1  0.22107974  0.88836613  0.21603371  1
  S  S352  1  0.74554744  0.87528388  0.22297950  1
  S  S353  1  0.47456414  0.76535208  0.27933372  1
  S  S354  1  0.69469254  0.19084236  0.22030012  1
  S  S355  1  0.42299265  0.08005460  0.27591809  1
  S  S356  1  0.41185497  0.57455182  0.27705059  1
  S  S357  1  0.68612976  0.68106041  0.22422461  1
  S  S358  1  0.47750982  0.27653480  0.27585581  1
  S  S359  1  0.75825350  0.38013717  0.22275219  1
  S  S360  1  0.42629430  0.45628626  0.22913108  1
  S  S361  1  0.15627735  0.34837621  0.28758991  1
  S  S362  1  0.01119095  0.60760254  0.21243523  1
  S  S363  1  0.74104406  0.49953160  0.27071629  1
  S  S364  1  0.72170175  0.99854312  0.27109674  1
  S  S365  1  0.00401470  0.10082048  0.21717570  1
  S  S366  1  0.16825840  0.85392019  0.28309741  1
  S  S367  1  0.44380389  0.96005653  0.22764395  1
  S  S368  1  0.70796148  0.32433994  0.27739563  1
  S  S369  1  0.98267130  0.43040162  0.21944040  1
  S  S370  1  0.18507179  0.52569318  0.28054266  1
  S  S371  1  0.45974459  0.63098120  0.22221635  1
  S  S372  1  0.50697280  0.14618392  0.21555384  1
  S  S373  1  0.23087918  0.03995812  0.27104920  1
  S  S374  1  0.93701305  0.91595651  0.22847928  1
  S  S375  1  0.66236947  0.80800546  0.28485575  1
  S  S376  1  0.67023896  0.18460822  0.32366024  1
  S  S377  1  0.39150598  0.07151112  0.38200987  1
  S  S378  1  0.66422682  0.45301020  0.34421143  1
  S  S379  1  0.38405434  0.34535352  0.39525459  1
  S  S380  1  0.39092799  0.85380652  0.39583033  1
  S  S381  1  0.66695742  0.96807314  0.33766007  1
  S  S382  1  0.37812965  0.57033401  0.38298078  1
  S  S383  1  0.65781927  0.67865479  0.32881144  1
  S  S384  1  0.19905577  0.66273521  0.33270118  1
  S  S385  1  0.91617043  0.55951123  0.39315001  1
  S  S386  1  0.14742483  0.97834737  0.33038616  1
  S  S387  1  0.86688861  0.88054691  0.38333362  1
  S  S388  1  0.87009055  0.36150697  0.38916153  1
  S  S389  1  0.12580031  0.47495211  0.33553422  1
  S  S390  1  0.93965713  0.05616751  0.39268707  1
  S  S391  1  0.20908273  0.16986854  0.33219401  1
  S  S392  1  0.87826448  0.24091743  0.34189704  1
  S  S393  1  0.59373174  0.13126152  0.39928450  1
  S  S394  1  0.45693101  0.39799655  0.32397235  1
  S  S395  1  0.18554776  0.28839998  0.38054514  1
  S  S396  1  0.17140246  0.78555883  0.38103782  1
  S  S397  1  0.44510508  0.89158463  0.32723634  1
  S  S398  1  0.61197131  0.64198905  0.39395724  1
  S  S399  1  0.88429943  0.75277991  0.33754755  1
  S  S400  1  0.14445981  0.11533684  0.38568709  1
  S  S401  1  0.42627760  0.22155799  0.33094207  1
  S  S402  1  0.63759636  0.29521312  0.39062525  1
  S  S403  1  0.90549585  0.42033592  0.33386943  1
  S  S404  1  0.95758885  0.93548413  0.32749228  1
  S  S405  1  0.67559339  0.83751066  0.38196159  1
  S  S406  1  0.39292179  0.69768549  0.33998066  1
  S  S407  1  0.10571685  0.59939944  0.39566332  1
  S  S408  1  0.14315089  0.95633860  0.43738924  1
  S  S409  1  0.82602143  0.86462735  0.49292444  1
  S  S410  1  0.09948510  0.24733248  0.44823667  1
  S  S411  1  0.14009023  0.75869568  0.44562503  1
  S  S412  1  0.85095118  0.34156618  0.49217294  1
  S  S413  1  0.09801195  0.47422333  0.44092501  1
  S  S414  1  0.68294719  0.39261787  0.43643894  1
  S  S415  1  0.59940648  0.77365765  0.43864127  1
  S  S416  1  0.32454033  0.65975592  0.49190714  1
  S  S417  1  0.25424658  0.18409993  0.50060375  1
  S  S418  1  0.56112939  0.26039665  0.44615220  1
  S  S419  1  0.64710854  0.96281902  0.44376043  1
  S  S420  1  0.31759577  0.03905611  0.45470998  1
  S  S421  1  0.92414706  0.16366211  0.44298979  1
  S  S422  1  0.60823389  0.08242425  0.49447718  1
  S  S423  1  0.58083427  0.48591650  0.48944614  1
  S  S424  1  0.89119550  0.70078559  0.43713652  1
  S  S425  1  0.32702434  0.52882260  0.44972905  1
  S  S426  1  0.58140216  0.90431893  0.49564164  1
  S  S427  1  0.88745984  0.99341113  0.44569907  1
  S  S428  1  0.34180257  0.21893701  0.44630525  1
  S  S429  1  0.42375402  0.71864289  0.44281418  1
  S  S430  1  0.10400451  0.64527678  0.48715255  1
  S  S431  1  0.76442755  0.51547520  0.45670113  1
  S  S432  1  0.60170944  0.24546519  0.55265258  1
  S  S433  1  0.32773181  0.86316139  0.50709754  1
  S  S434  1  0.64597010  0.95397916  0.56268507  1
  S  S435  1  0.60307453  0.47029342  0.55905305  1
  S  S436  1  0.35554903  0.33907978  0.50810114  1
  S  S437  1  0.64343280  0.75654562  0.55443676  1
  S  S438  1  0.82739029  0.65889535  0.50796580  1
  S  S439  1  0.10160036  0.77228617  0.56153380  1
  S  S440  1  0.18644147  0.39064075  0.56353095  1
  S  S441  1  0.14998969  0.96025124  0.55636229  1
  S  S442  1  0.06379818  0.25827653  0.55406019  1
  S  S443  1  0.75340086  0.18457929  0.49983492  1
  S  S444  1  0.11012935  0.08135719  0.50577023  1
  S  S445  1  0.42638130  0.16131416  0.55752630  1
  S  S446  1  0.81893378  0.03738824  0.54526687  1
  S  S447  1  0.83166723  0.52721713  0.55032291  1
  S  S448  1  0.39507557  0.69692264  0.56257865  1
  S  S449  1  0.08495155  0.48215722  0.51025362  1
  S  S450  1  0.84476318  0.21637064  0.55386983  1
  S  S451  1  0.39037785  0.99074128  0.55448063  1
  S  S452  1  0.08204230  0.90423864  0.50440265  1
  S  S453  1  0.26601593  0.51448953  0.54302591  1
  S  S454  1  0.60841231  0.64254074  0.51291225  1
  S  S455  1  0.92679623  0.71642398  0.55715703  1
  S  S456  1  0.88709010  0.34256687  0.60495634  1
  S  S457  1  0.16985821  0.44876185  0.65611285  1
  S  S458  1  0.89611279  0.06685167  0.61786011  1
  S  S459  1  0.17510521  0.18054688  0.67598522  1
  S  S460  1  0.16292447  0.67334059  0.67112625  1
  S  S461  1  0.88403210  0.56564887  0.61700062  1
  S  S462  1  0.17210871  0.96313042  0.66232037  1
  S  S463  1  0.89399493  0.85026407  0.60444625  1
  S  S464  1  0.37163343  0.87588088  0.61652874  1
  S  S465  1  0.65295809  0.97305871  0.67021681  1
  S  S466  1  0.42105124  0.55556215  0.60670317  1
  S  S467  1  0.70452132  0.65778875  0.66725922  1
  S  S468  1  0.71510958  0.16409242  0.66789725  1
  S  S469  1  0.44384952  0.05188342  0.60764669  1
  S  S470  1  0.63138154  0.47006191  0.66436477  1
  S  S471  1  0.37425118  0.35778307  0.61090424  1
  S  S472  1  0.69033133  0.28376126  0.61969818  1
  S  S473  1  0.96198290  0.39365834  0.67604873  1
  S  S474  1  0.09717272  0.12841989  0.60080781  1
  S  S475  1  0.38369430  0.23622842  0.65813457  1
  S  S476  1  0.38961703  0.74785029  0.66234996  1
  S  S477  1  0.11596450  0.63890747  0.60596805  1
  S  S478  1  0.95083075  0.88646129  0.67290159  1
  S  S479  1  0.67703766  0.78074511  0.61901624  1
  S  S480  1  0.41221479  0.41459837  0.66626369  1
  S  S481  1  0.14069598  0.29262253  0.60956331  1
  S  S482  1  0.93110225  0.21724122  0.66892069  1
  S  S483  1  0.64875114  0.11090941  0.61446314  1
  S  S484  1  0.60961534  0.59671540  0.60404819  1
  S  S485  1  0.89842541  0.69267714  0.66013635  1
  S  S486  1  0.18052578  0.83272272  0.61801578  1
  S  S487  1  0.46330572  0.92974166  0.67208534  1
  S  S488  1  0.44731323  0.55501235  0.71368469  1
  S  S489  1  0.71995536  0.66433093  0.76974042  1
  S  S490  1  0.46108430  0.28015899  0.73096832  1
  S  S491  1  0.73222799  0.39076509  0.78620494  1
  S  S492  1  0.72286583  0.88392884  0.78340112  1
  S  S493  1  0.43978673  0.77853753  0.72840385  1
  S  S494  1  0.73874837  0.16764171  0.77135775  1
  S  S495  1  0.45296475  0.06170190  0.71624630  1
  S  S496  1  0.93285026  0.07398736  0.72416529  1
  S  S497  1  0.20110003  0.18490472  0.77951684  1
  S  S498  1  0.98042586  0.75993798  0.72074323  1
  S  S499  1  0.25535074  0.87011241  0.77718962  1
  S  S500  1  0.26226011  0.37578545  0.77735727  1
  S  S501  1  0.98336634  0.27145106  0.72400795  1
  S  S502  1  0.19367912  0.67533737  0.77560654  1
  S  S503  1  0.91663294  0.56992036  0.72287744  1
  S  S504  1  0.24759432  0.49378992  0.72936617  1
  S  S505  1  0.51748195  0.60277376  0.78758580  1
  S  S506  1  0.66228621  0.34306663  0.71233198  1
  S  S507  1  0.93278520  0.45047749  0.77074467  1
  S  S508  1  0.95110944  0.95390855  0.77217077  1
  S  S509  1  0.67063607  0.84943541  0.71728151  1
  S  S510  1  0.50707054  0.09562582  0.78312126  1
  S  S511  1  0.22932920  0.99276683  0.72873010  1
  S  S512  1  0.96699520  0.62483040  0.77766112  1
  S  S513  1  0.69063868  0.52064088  0.71936825  1
  S  S514  1  0.48862011  0.42559208  0.78045282  1
  S  S515  1  0.21449810  0.31871081  0.72259486  1
  S  S516  1  0.16914984  0.80160002  0.71510868  1
  S  S517  1  0.44660971  0.90999824  0.77115212  1
  S  S518  1  0.73987018  0.03415268  0.72853186  1
  S  S519  1  0.01344408  0.14025322  0.78423962  1
  S  S520  1  0.00383108  0.76547805  0.82400940  1
  S  S521  1  0.28453017  0.87803933  0.88191863  1
  S  S522  1  0.01104509  0.49573013  0.84408379  1
  S  S523  1  0.29175731  0.60453142  0.89501815  1
  S  S524  1  0.28469439  0.09559203  0.89569140  1
  S  S525  1  0.00640120  0.98294303  0.83787506  1
  S  S526  1  0.29645741  0.38034084  0.88285961  1
  S  S527  1  0.01537840  0.26984194  0.82826445  1
  S  S528  1  0.47553501  0.28758243  0.83256298  1
  S  S529  1  0.75898337  0.39042094  0.89327806  1
  S  S530  1  0.52807725  0.97166544  0.83061146  1
  S  S531  1  0.80733877  0.07048136  0.88372212  1
  S  S532  1  0.80583205  0.58759465  0.88922400  1
  S  S533  1  0.54798339  0.47581333  0.83548772  1
  S  S534  1  0.73649368  0.89328578  0.89266511  1
  S  S535  1  0.46909426  0.77840626  0.83246608  1
  S  S536  1  0.79760110  0.70816881  0.84201901  1
  S  S537  1  0.08176846  0.81842687  0.89911614  1
  S  S538  1  0.21760704  0.55259800  0.82375744  1
  S  S539  1  0.49014735  0.66108737  0.88070727  1
  S  S540  1  0.50337135  0.16507968  0.88097052  1
  S  S541  1  0.23019877  0.05783657  0.82713009  1
  S  S542  1  0.06327175  0.30704224  0.89390533  1
  S  S543  1  0.78946716  0.19824113  0.83796860  1
  S  S544  1  0.53148852  0.83420827  0.88600562  1
  S  S545  1  0.24755868  0.72960821  0.83052794  1
  S  S546  1  0.03848555  0.65390753  0.89048779  1
  S  S547  1  0.76939458  0.52922986  0.83394795  1
  S  S548  1  0.71750714  0.01492072  0.82745915  1
  S  S549  1  0.99965826  0.11272685  0.88209535  1
  S  S550  1  0.28172178  0.25263448  0.83998047  1
  S  S551  1  0.56965158  0.35034870  0.89575966  1
  S  S552  1  0.53268291  0.99333947  0.93733383  1
  S  S553  1  0.84955819  0.08497154  0.99283104  1
  S  S554  1  0.57688777  0.70188290  0.94833334  1
  S  S555  1  0.53576328  0.19086798  0.94547574  1
  S  S556  1  0.82494470  0.60721386  0.99211653  1
  S  S557  1  0.57697685  0.47568247  0.94102141  1
  S  S558  1  0.99249442  0.55708720  0.93638566  1
  S  S559  1  0.07703986  0.17498855  0.93871269  1
  S  S560  1  0.35113453  0.28939081  0.99170782  1
  S  S561  1  0.42198557  0.76467406  0.00067807  1
  S  S562  1  0.11485655  0.68906497  0.94593665  1
  S  S563  1  0.02888583  0.98662629  0.94370925  1
  S  S564  1  0.35862770  0.90998933  0.95485406  1
  S  S565  1  0.75173604  0.78594234  0.94300221  1
  S  S566  1  0.06728666  0.86722996  0.99442816  1
  S  S567  1  0.09531276  0.46365280  0.98935325  1
  S  S568  1  0.78438015  0.24929959  0.93726776  1
  S  S569  1  0.34837445  0.42053824  0.94955231  1
  S  S570  1  0.09415091  0.04533640  0.99563782  1
  S  S571  1  0.78827633  0.95638000  0.94564016  1
  S  S572  1  0.33442532  0.73019320  0.94636683  1
  S  S573  1  0.25204600  0.23058472  0.94268205  1
  S  S574  1  0.57111366  0.30453875  0.98709589  1
  S  S575  1  0.91228927  0.43333480  0.95660983  1
