# generated using pymatgen
data_Li3PS4
_symmetry_space_group_name_H-M   'P 1'
_cell_length_a   14.91536200
_cell_length_b   18.09023401
_cell_length_c   53.47547009
_cell_angle_alpha   90.00000000
_cell_angle_beta   90.00000000
_cell_angle_gamma   54.48401034
_symmetry_Int_Tables_number   1
_chemical_formula_structural   Li3PS4
_chemical_formula_sum   'Li216 P72 S288'
_cell_volume   11744.43560845
_cell_formula_units_Z   72
loop_
 _symmetry_equiv_pos_site_id
 _symmetry_equiv_pos_as_xyz
  1  'x, y, z'
loop_
 _atom_site_type_symbol
 _atom_site_label
 _atom_site_symmetry_multiplicity
 _atom_site_fract_x
 _atom_site_fract_y
 _atom_site_fract_z
 _atom_site_occupancy
  Li  Li0  1  0.78492840  0.72372850  0.01413572  1
  Li  Li1  1  0.49402783  0.65542782  0.06345698  1
  Li  Li2  1  0.39186270  0.91047127  0.10308647  1
  Li  Li3  1  0.68166668  0.04325268  0.04069934  1
  Li  Li4  1  0.75332214  0.53522507  0.02356905  1
  Li  Li5  1  0.47836564  0.45744595  0.08164385  1
  Li  Li6  1  0.41351050  0.10857439  0.08209170  1
  Li  Li7  1  0.44779284  0.32883346  0.03110969  1
  Li  Li8  1  0.18097331  0.21481824  0.05901181  1
  Li  Li9  1  0.93238433  0.09642900  0.08923410  1
  Li  Li10  1  0.93953841  0.45236169  0.07520504  1
  Li  Li11  1  0.21728251  0.56495733  0.01132382  1
  Li  Li12  1  0.13624262  0.01736892  0.03641317  1
  Li  Li13  1  0.83683033  0.93984160  0.09472463  1
  Li  Li14  1  0.02971718  0.62859302  0.07024294  1
  Li  Li15  1  0.27667261  0.74805288  0.02042837  1
  Li  Li16  1  0.63626801  0.82813977  0.05952444  1
  Li  Li17  1  0.72156242  0.34532142  0.03311881  1
  Li  Li18  1  0.44066647  0.26749353  0.09404399  1
  Li  Li19  1  0.89938395  0.27361286  0.08209970  1
  Li  Li20  1  0.06961198  0.42760571  0.01306447  1
  Li  Li21  1  0.37854735  0.92449448  0.01828598  1
  Li  Li22  1  0.07024816  0.81866514  0.06640000  1
  Li  Li23  1  0.20716459  0.54706585  0.12272911  1
  Li  Li24  1  0.93595935  0.42558996  0.17706115  1
  Li  Li25  1  0.83205930  0.70639361  0.21197190  1
  Li  Li26  1  0.11998118  0.80630986  0.15366243  1
  Li  Li27  1  0.18464421  0.33647883  0.13636167  1
  Li  Li28  1  0.90671785  0.23164448  0.19653782  1
  Li  Li29  1  0.85729592  0.89594037  0.19239267  1
  Li  Li30  1  0.11633205  0.00404685  0.13882506  1
  Li  Li31  1  0.65256448  0.00365944  0.14614252  1
  Li  Li32  1  0.38373140  0.89115344  0.19836761  1
  Li  Li33  1  0.37879577  0.25293548  0.18655518  1
  Li  Li34  1  0.66229100  0.36315353  0.13239137  1
  Li  Li35  1  0.59433840  0.82141736  0.14738337  1
  Li  Li36  1  0.29631443  0.72388585  0.20512684  1
  Li  Li37  1  0.46539594  0.41256611  0.18477566  1
  Li  Li38  1  0.73687148  0.52729540  0.13113147  1
  Li  Li39  1  0.98581281  0.62922296  0.16464878  1
  Li  Li40  1  0.35229507  0.70938868  0.11294133  1
  Li  Li41  1  0.16405627  0.15145717  0.14442434  1
  Li  Li42  1  0.88875313  0.04843471  0.20291297  1
  Li  Li43  1  0.40005256  0.07403400  0.19547783  1
  Li  Li44  1  0.68947948  0.18290877  0.14225155  1
  Li  Li45  1  0.80868840  0.72669842  0.10538471  1
  Li  Li46  1  0.52244680  0.61439203  0.17662013  1
  Li  Li47  1  0.64752321  0.33218149  0.23420649  1
  Li  Li48  1  0.37937058  0.21253239  0.28987643  1
  Li  Li49  1  0.27759175  0.49366610  0.32372684  1
  Li  Li50  1  0.56144317  0.59684119  0.26558892  1
  Li  Li51  1  0.63182259  0.13224275  0.25143944  1
  Li  Li52  1  0.36336988  0.01512556  0.30561998  1
  Li  Li53  1  0.30281526  0.68571831  0.30283828  1
  Li  Li54  1  0.57297115  0.80078305  0.24927418  1
  Li  Li55  1  0.09958582  0.78861757  0.25769472  1
  Li  Li56  1  0.83449213  0.66808678  0.31180114  1
  Li  Li57  1  0.83212583  0.03143464  0.29818793  1
  Li  Li58  1  0.10909816  0.14784321  0.24103579  1
  Li  Li59  1  0.03530805  0.61025484  0.25770357  1
  Li  Li60  1  0.74840867  0.50680833  0.31511091  1
  Li  Li61  1  0.91267434  0.19969617  0.29448767  1
  Li  Li62  1  0.18180054  0.31662990  0.24177452  1
  Li  Li63  1  0.42439610  0.42017563  0.27648461  1
  Li  Li64  1  0.78659415  0.50483966  0.22355085  1
  Li  Li65  1  0.59745243  0.98100549  0.24390027  1
  Li  Li66  1  0.34040512  0.83558452  0.31270822  1
  Li  Li67  1  0.79864065  0.85155880  0.30218851  1
  Li  Li68  1  0.13911423  0.96538571  0.25283872  1
  Li  Li69  1  0.24116051  0.52601618  0.21263413  1
  Li  Li70  1  0.96920962  0.40112941  0.28539792  1
  Li  Li71  1  0.10226845  0.11878802  0.34323297  1
  Li  Li72  1  0.81741818  0.99269771  0.40950751  1
  Li  Li73  1  0.73983531  0.26712543  0.42965655  1
  Li  Li74  1  0.01041186  0.38165265  0.37557124  1
  Li  Li75  1  0.07858757  0.92326025  0.36197033  1
  Li  Li76  1  0.82495178  0.79351876  0.41723147  1
  Li  Li77  1  0.76795108  0.47615598  0.41370684  1
  Li  Li78  1  0.02280202  0.58563394  0.36361100  1
  Li  Li79  1  0.55096565  0.57636378  0.36637078  1
  Li  Li80  1  0.27822012  0.45904463  0.43244016  1
  Li  Li81  1  0.28396952  0.82711149  0.40319578  1
  Li  Li82  1  0.55949047  0.93078820  0.35413134  1
  Li  Li83  1  0.47853607  0.40049986  0.37010689  1
  Li  Li84  1  0.21386278  0.27876165  0.42431425  1
  Li  Li85  1  0.37290614  0.99115990  0.40772420  1
  Li  Li86  1  0.64170376  0.09674902  0.35301410  1
  Li  Li87  1  0.88005910  0.19752438  0.38515175  1
  Li  Li88  1  0.22318587  0.29532657  0.33363285  1
  Li  Li89  1  0.04530546  0.77129720  0.35269805  1
  Li  Li90  1  0.77096321  0.65322312  0.41474925  1
  Li  Li91  1  0.30151574  0.65368568  0.41661990  1
  Li  Li92  1  0.58634656  0.75259425  0.36317294  1
  Li  Li93  1  0.69031934  0.31107819  0.32399680  1
  Li  Li94  1  0.41901689  0.20685984  0.38264665  1
  Li  Li95  1  0.54981868  0.91198057  0.45559567  1
  Li  Li96  1  0.24933112  0.29597333  0.51439507  1
  Li  Li97  1  0.64750289  0.64354922  0.47229809  1
  Li  Li98  1  0.56932186  0.38285924  0.46868962  1
  Li  Li99  1  0.01237904  0.38329869  0.46503139  1
  Li  Li100  1  0.03471151  0.69128204  0.46094617  1
  Li  Li101  1  0.99410690  0.20347936  0.47016208  1
  Li  Li102  1  0.11842041  0.88495762  0.46474650  1
  Li  Li103  1  0.58022520  0.10538413  0.44664277  1
  Li  Li104  1  0.52667839  0.56283046  0.44998603  1
  Li  Li105  1  0.91651400  0.57125434  0.48398038  1
  Li  Li106  1  0.15536279  0.09021035  0.43051050  1
  Li  Li107  1  0.77065130  0.12236210  0.46990192  1
  Li  Li108  1  0.78754031  0.77889227  0.51445377  1
  Li  Li109  1  0.08045664  0.84344738  0.56350676  1
  Li  Li110  1  0.18232366  0.58901096  0.60302424  1
  Li  Li111  1  0.89311496  0.45554057  0.54053149  1
  Li  Li112  1  0.82248635  0.96502415  0.52373950  1
  Li  Li113  1  0.09476171  0.04191769  0.58154180  1
  Li  Li114  1  0.16105937  0.39141346  0.58215265  1
  Li  Li115  1  0.12446165  0.17051989  0.53028184  1
  Li  Li116  1  0.39292661  0.28415940  0.55898003  1
  Li  Li117  1  0.64229079  0.40309395  0.58928222  1
  Li  Li118  1  0.63415826  0.04736441  0.57554580  1
  Li  Li119  1  0.35821522  0.92792919  0.51246809  1
  Li  Li120  1  0.43852194  0.48137717  0.53657262  1
  Li  Li121  1  0.73793448  0.55991374  0.59471843  1
  Li  Li122  1  0.54507624  0.87108400  0.57078006  1
  Li  Li123  1  0.29546488  0.75059589  0.52050762  1
  Li  Li124  1  0.93863417  0.67156919  0.55950608  1
  Li  Li125  1  0.85165891  0.15425705  0.53306273  1
  Li  Li126  1  0.13268873  0.23282872  0.59398780  1
  Li  Li127  1  0.67411104  0.22627224  0.58218786  1
  Li  Li128  1  0.49948711  0.07292254  0.51430123  1
  Li  Li129  1  0.19665419  0.57460309  0.51801217  1
  Li  Li130  1  0.50456624  0.68004129  0.56654672  1
  Li  Li131  1  0.36676774  0.95313232  0.62273177  1
  Li  Li132  1  0.63878228  0.07459941  0.67722205  1
  Li  Li133  1  0.74255407  0.79349213  0.71198134  1
  Li  Li134  1  0.45436650  0.69349352  0.65374612  1
  Li  Li135  1  0.38927423  0.16357909  0.63673087  1
  Li  Li136  1  0.66799523  0.26840387  0.69662497  1
  Li  Li137  1  0.71719642  0.60388636  0.69246730  1
  Li  Li138  1  0.45786248  0.49598216  0.63892910  1
  Li  Li139  1  0.92150106  0.49659285  0.64633085  1
  Li  Li140  1  0.19117202  0.60872076  0.69842650  1
  Li  Li141  1  0.19521635  0.24736936  0.68665243  1
  Li  Li142  1  0.91194250  0.13670304  0.63242699  1
  Li  Li143  1  0.98045938  0.67867431  0.64744848  1
  Li  Li144  1  0.27840470  0.77599217  0.70519088  1
  Li  Li145  1  0.10917259  0.08724841  0.68476295  1
  Li  Li146  1  0.83797147  0.97254000  0.63121184  1
  Li  Li147  1  0.58866036  0.87067330  0.66475831  1
  Li  Li148  1  0.22250145  0.79007027  0.61298930  1
  Li  Li149  1  0.41024258  0.34828654  0.64441390  1
  Li  Li150  1  0.68576196  0.45168939  0.70308470  1
  Li  Li151  1  0.17510505  0.42629057  0.69549563  1
  Li  Li152  1  0.88463875  0.31723307  0.64223355  1
  Li  Li153  1  0.76581220  0.77305882  0.60555890  1
  Li  Li154  1  0.05184189  0.88572628  0.67678997  1
  Li  Li155  1  0.92746907  0.16763741  0.73422643  1
  Li  Li156  1  0.19592267  0.28748990  0.79006718  1
  Li  Li157  1  0.29821388  0.00622549  0.82380156  1
  Li  Li158  1  0.01357888  0.90314586  0.76569898  1
  Li  Li159  1  0.94306548  0.36755228  0.75151770  1
  Li  Li160  1  0.21175870  0.48467729  0.80565714  1
  Li  Li161  1  0.27259139  0.81430783  0.80283738  1
  Li  Li162  1  0.00232982  0.69926724  0.74930269  1
  Li  Li163  1  0.47551497  0.71146889  0.75783532  1
  Li  Li164  1  0.74166127  0.83151476  0.81175354  1
  Li  Li165  1  0.74330222  0.46838007  0.79822920  1
  Li  Li166  1  0.46588844  0.35193129  0.74108471  1
  Li  Li167  1  0.54017810  0.88985092  0.75778019  1
  Li  Li168  1  0.82667984  0.99339392  0.81519297  1
  Li  Li169  1  0.66287581  0.30010868  0.79456214  1
  Li  Li170  1  0.39264424  0.18336404  0.74185606  1
  Li  Li171  1  0.15111734  0.07974836  0.77653842  1
  Li  Li172  1  0.78823889  0.99499661  0.72365702  1
  Li  Li173  1  0.97753459  0.51880693  0.74389555  1
  Li  Li174  1  0.23556421  0.66410151  0.81279297  1
  Li  Li175  1  0.77655313  0.64847861  0.80223921  1
  Li  Li176  1  0.43603509  0.53450734  0.75296536  1
  Li  Li177  1  0.33344805  0.97388698  0.71266944  1
  Li  Li178  1  0.60602794  0.09893571  0.78547550  1
  Li  Li179  1  0.47290671  0.38117597  0.84315196  1
  Li  Li180  1  0.75946551  0.50910926  0.91060644  1
  Li  Li181  1  0.83594869  0.23362459  0.92980834  1
  Li  Li182  1  0.56545200  0.11834852  0.87572846  1
  Li  Li183  1  0.49879075  0.57603225  0.86222709  1
  Li  Li184  1  0.75102554  0.70795650  0.91693830  1
  Li  Li185  1  0.80882405  0.02441226  0.91338288  1
  Li  Li186  1  0.55396473  0.91437857  0.86397175  1
  Li  Li187  1  0.02520915  0.92378533  0.86624184  1
  Li  Li188  1  0.29780689  0.04150567  0.93293827  1
  Li  Li189  1  0.29248217  0.67295730  0.90309706  1
  Li  Li190  1  0.01653763  0.56877246  0.85404360  1
  Li  Li191  1  0.09737240  0.09984443  0.87020103  1
  Li  Li192  1  0.36336579  0.22020176  0.92467157  1
  Li  Li193  1  0.20233960  0.50949030  0.90762623  1
  Li  Li194  1  0.93330347  0.40355176  0.85315614  1
  Li  Li195  1  0.69623535  0.30330947  0.88513051  1
  Li  Li196  1  0.35218005  0.20430337  0.83381364  1
  Li  Li197  1  0.53080833  0.72864304  0.85259460  1
  Li  Li198  1  0.80513615  0.84982608  0.91566858  1
  Li  Li199  1  0.27432603  0.84642624  0.91655892  1
  Li  Li200  1  0.98924257  0.74729235  0.86320114  1
  Li  Li201  1  0.88541090  0.18869247  0.82397368  1
  Li  Li202  1  0.15694158  0.29337753  0.88301974  1
  Li  Li203  1  0.02440019  0.58938488  0.95515967  1
  Li  Li204  1  0.32473644  0.20499565  0.01471236  1
  Li  Li205  1  0.92951365  0.85604419  0.97261412  1
  Li  Li206  1  0.00636685  0.11710162  0.96866961  1
  Li  Li207  1  0.56962247  0.11959645  0.96627977  1
  Li  Li208  1  0.54111011  0.80862116  0.96091907  1
  Li  Li209  1  0.58044734  0.29891340  0.97005327  1
  Li  Li210  1  0.45621558  0.61544094  0.96499856  1
  Li  Li211  1  0.99598335  0.39543639  0.94640597  1
  Li  Li212  1  0.04927193  0.93737004  0.95008215  1
  Li  Li213  1  0.65316073  0.93125768  0.98345013  1
  Li  Li214  1  0.41978028  0.41069977  0.93035552  1
  Li  Li215  1  0.80760726  0.37791306  0.97028069  1
  P  P216  1  0.65361284  0.66739227  0.09112697  1
  P  P217  1  0.90332346  0.79897287  0.03698850  1
  P  P218  1  0.50998550  0.00299685  0.03144135  1
  P  P219  1  0.23364888  0.87951865  0.07731952  1
  P  P220  1  0.18441762  0.37073476  0.08101869  1
  P  P221  1  0.45452758  0.49517334  0.02573632  1
  P  P222  1  0.98127392  0.27202564  0.02850751  1
  P  P223  1  0.68286833  0.20698900  0.08235367  1
  P  P224  1  0.08399197  0.46232038  0.20235004  1
  P  P225  1  0.37049026  0.56618652  0.14949051  1
  P  P226  1  0.95403270  0.78232058  0.13005872  1
  P  P227  1  0.68377214  0.67280948  0.18585098  1
  P  P228  1  0.62614941  0.15464817  0.19604026  1
  P  P229  1  0.90231547  0.25960297  0.14132712  1
  P  P230  1  0.41041439  0.09132136  0.13758133  1
  P  P231  1  0.13813884  0.98078681  0.19369950  1
  P  P232  1  0.53044391  0.25085270  0.31465040  1
  P  P233  1  0.81115783  0.35522009  0.25936976  1
  P  P234  1  0.39914792  0.56949863  0.24059151  1
  P  P235  1  0.12814038  0.46190309  0.29710078  1
  P  P236  1  0.07654148  0.94156418  0.30700758  1
  P  P237  1  0.34947040  0.05052603  0.25062809  1
  P  P238  1  0.85782776  0.87740378  0.24783635  1
  P  P239  1  0.59101317  0.76649093  0.30438652  1
  P  P240  1  0.98809023  0.03362420  0.42444924  1
  P  P241  1  0.26791967  0.13957568  0.36894105  1
  P  P242  1  0.85170291  0.35324010  0.35055718  1
  P  P243  1  0.57544041  0.24919265  0.40769496  1
  P  P244  1  0.51779451  0.73873600  0.41673730  1
  P  P245  1  0.80316980  0.83174462  0.36215092  1
  P  P246  1  0.30769129  0.66609815  0.35757844  1
  P  P247  1  0.03043355  0.54177973  0.41808429  1
  P  P248  1  0.72666786  0.92774278  0.47714708  1
  P  P249  1  0.29372720  0.13726925  0.46498488  1
  P  P250  1  0.28002576  0.60124139  0.46956108  1
  P  P251  1  0.75402355  0.44544732  0.47094689  1
  P  P252  1  0.92062497  0.83236848  0.59124013  1
  P  P253  1  0.67085825  0.70140303  0.53732055  1
  P  P254  1  0.06444243  0.49706336  0.53125169  1
  P  P255  1  0.34049981  0.61998355  0.57734291  1
  P  P256  1  0.38881535  0.12973516  0.58152270  1
  P  P257  1  0.11868471  0.00373049  0.52551074  1
  P  P258  1  0.59257770  0.22685704  0.52862782  1
  P  P259  1  0.89142738  0.29228793  0.58218879  1
  P  P260  1  0.49051917  0.03772635  0.70242764  1
  P  P261  1  0.20384539  0.93361156  0.64948478  1
  P  P262  1  0.62034108  0.71742769  0.63017322  1
  P  P263  1  0.89084591  0.82707710  0.68592779  1
  P  P264  1  0.94810967  0.34532089  0.69612471  1
  P  P265  1  0.67201760  0.24049538  0.64141689  1
  P  P266  1  0.16343509  0.40907903  0.63768363  1
  P  P267  1  0.43661398  0.51911451  0.69379553  1
  P  P268  1  0.04502797  0.24904368  0.81477699  1
  P  P269  1  0.76392833  0.14463514  0.75944370  1
  P  P270  1  0.17574761  0.93050073  0.74065735  1
  P  P271  1  0.44769508  0.03782483  0.79719700  1
  P  P272  1  0.49895236  0.55837273  0.80714916  1
  P  P273  1  0.22559673  0.44929388  0.75070629  1
  P  P274  1  0.71725391  0.62263353  0.74789606  1
  P  P275  1  0.98495029  0.73325760  0.80441742  1
  P  P276  1  0.58867074  0.46662568  0.92474657  1
  P  P277  1  0.30759026  0.36029675  0.86903915  1
  P  P278  1  0.72347843  0.14724258  0.85062438  1
  P  P279  1  0.00063378  0.25102575  0.90785907  1
  P  P280  1  0.05853133  0.76166329  0.91665517  1
  P  P281  1  0.77305024  0.66828668  0.86214440  1
  P  P282  1  0.26859664  0.83375610  0.85758199  1
  P  P283  1  0.54620591  0.95879997  0.91853918  1
  P  P284  1  0.84869562  0.57365534  0.97711866  1
  P  P285  1  0.28018402  0.36440625  0.96487381  1
  P  P286  1  0.29609019  0.89809028  0.96962518  1
  P  P287  1  0.82181547  0.05427794  0.97057282  1
  S  S288  1  0.07372112  0.70524291  0.03908288  1
  S  S289  1  0.34343843  0.07103192  0.03441333  1
  S  S290  1  0.07143972  0.95566060  0.06667837  1
  S  S291  1  0.07776056  0.47809693  0.05807519  1
  S  S292  1  0.35924265  0.60043083  0.00078312  1
  S  S293  1  0.05417930  0.16801642  0.05404186  1
  S  S294  1  0.89434985  0.25172957  0.00255340  1
  S  S295  1  0.58299815  0.19447118  0.05952477  1
  S  S296  1  0.55679226  0.50698823  0.04834690  1
  S  S297  1  0.58441479  0.98523961  0.06493493  1
  S  S298  1  0.64003250  0.67411554  0.05286646  1
  S  S299  1  0.84465905  0.81815304  0.00147858  1
  S  S300  1  0.57408079  0.87715856  0.01615052  1
  S  S301  1  0.29290845  0.74847301  0.06577307  1
  S  S302  1  0.87205124  0.91695741  0.05085164  1
  S  S303  1  0.85931214  0.38820100  0.04844684  1
  S  S304  1  0.31406294  0.26414791  0.06101809  1
  S  S305  1  0.56095372  0.37194173  0.00862797  1
  S  S306  1  0.84047936  0.73890711  0.05652832  1
  S  S307  1  0.30970791  0.93312117  0.06239159  1
  S  S308  1  0.54105772  0.08036242  0.00940612  1
  S  S309  1  0.34672285  0.48689341  0.04750227  1
  S  S310  1  0.10444220  0.27771556  0.01528280  1
  S  S311  1  0.79097676  0.21942035  0.06303332  1
  S  S312  1  0.81401101  0.58457478  0.10305516  1
  S  S313  1  0.53269887  0.48288356  0.16037641  1
  S  S314  1  0.78743277  0.86311312  0.12284698  1
  S  S315  1  0.52258983  0.75477989  0.17446272  1
  S  S316  1  0.52912847  0.26075682  0.17207090  1
  S  S317  1  0.81042516  0.37095334  0.11841338  1
  S  S318  1  0.51313230  0.98068786  0.16017203  1
  S  S319  1  0.77876734  0.09430292  0.10508888  1
  S  S320  1  0.32256253  0.06984017  0.11283364  1
  S  S321  1  0.04308069  0.95958278  0.17146523  1
  S  S322  1  0.25692552  0.39919454  0.10847869  1
  S  S323  1  0.99601363  0.27238474  0.16668750  1
  S  S324  1  0.99241491  0.76634449  0.16735201  1
  S  S325  1  0.26029701  0.87284713  0.11528967  1
  S  S326  1  0.05793608  0.46711094  0.16446621  1
  S  S327  1  0.34509172  0.57524131  0.11160147  1
  S  S328  1  0.00844464  0.65340619  0.11758970  1
  S  S329  1  0.73466998  0.54205394  0.17657310  1
  S  S330  1  0.59736753  0.79852941  0.10222146  1
  S  S331  1  0.31957767  0.69565340  0.16019945  1
  S  S332  1  0.29371050  0.19432135  0.16135610  1
  S  S333  1  0.57399405  0.31410490  0.10609921  1
  S  S334  1  0.74458225  0.04904484  0.17352341  1
  S  S335  1  0.01338705  0.15288106  0.11815291  1
  S  S336  1  0.28536330  0.52062070  0.16500344  1
  S  S337  1  0.56716900  0.62305301  0.10665469  1
  S  S338  1  0.76769253  0.71699549  0.16886381  1
  S  S339  1  0.02758789  0.83541729  0.11321054  1
  S  S340  1  0.09897968  0.32656913  0.09757735  1
  S  S341  1  0.79891449  0.24073280  0.16091221  1
  S  S342  1  0.50502024  0.12221041  0.11959154  1
  S  S343  1  0.23007548  0.00730129  0.17233297  1
  S  S344  1  0.24656516  0.38224908  0.21288768  1
  S  S345  1  0.97565080  0.27092475  0.26868759  1
  S  S346  1  0.23383281  0.65425682  0.23200530  1
  S  S347  1  0.96744139  0.54233582  0.28539040  1
  S  S348  1  0.97736284  0.04700477  0.28299275  1
  S  S349  1  0.25497557  0.16113166  0.22773889  1
  S  S350  1  0.95510253  0.76891383  0.27118330  1
  S  S351  1  0.24614042  0.87310950  0.21650102  1
  S  S352  1  0.76651019  0.86044737  0.22280697  1
  S  S353  1  0.49586923  0.75113777  0.28036630  1
  S  S354  1  0.71271383  0.17653725  0.22128665  1
  S  S355  1  0.44577332  0.06162629  0.27555191  1
  S  S356  1  0.43447450  0.55583578  0.27800792  1
  S  S357  1  0.70629576  0.66883341  0.22392237  1
  S  S358  1  0.49617378  0.25816269  0.27716474  1
  S  S359  1  0.77987358  0.36614722  0.22182872  1
  S  S360  1  0.44674082  0.44086070  0.22965546  1
  S  S361  1  0.18059423  0.33075234  0.28735737  1
  S  S362  1  0.03211951  0.59320210  0.21209926  1
  S  S363  1  0.76251118  0.48430552  0.27015420  1
  S  S364  1  0.74191334  0.98218544  0.27134498  1
  S  S365  1  0.02608618  0.08477317  0.21788815  1
  S  S366  1  0.19358811  0.83660375  0.28386521  1
  S  S367  1  0.46337192  0.94586312  0.22682177  1
  S  S368  1  0.72947731  0.30844410  0.27603781  1
  S  S369  1  0.00410719  0.41583595  0.22009749  1
  S  S370  1  0.20999920  0.50807738  0.28029098  1
  S  S371  1  0.48005404  0.61710746  0.22412656  1
  S  S372  1  0.52502282  0.13202473  0.21559671  1
  S  S373  1  0.25005931  0.02780134  0.27021543  1
  S  S374  1  0.95686746  0.90158204  0.22870525  1
  S  S375  1  0.68837658  0.79001251  0.28410913  1
  S  S376  1  0.69505201  0.16844656  0.32320260  1
  S  S377  1  0.43042892  0.06227521  0.37945190  1
  S  S378  1  0.68623148  0.43800689  0.34214760  1
  S  S379  1  0.41106966  0.33828857  0.39935738  1
  S  S380  1  0.42795240  0.84420194  0.39206275  1
  S  S381  1  0.70365935  0.94329700  0.33961839  1
  S  S382  1  0.40861756  0.55755526  0.38053597  1
  S  S383  1  0.69034630  0.65717047  0.32754301  1
  S  S384  1  0.21620603  0.64708232  0.33321408  1
  S  S385  1  0.93571930  0.53419636  0.39136530  1
  S  S386  1  0.16529801  0.96324553  0.33164407  1
  S  S387  1  0.89954816  0.84512754  0.38620062  1
  S  S388  1  0.88585903  0.33921978  0.38789641  1
  S  S389  1  0.15055489  0.45703497  0.33518163  1
  S  S390  1  0.93460477  0.03788991  0.38886108  1
  S  S391  1  0.23847015  0.14897415  0.33124947  1
  S  S392  1  0.90015983  0.22420014  0.33948983  1
  S  S393  1  0.61958063  0.12035988  0.39879649  1
  S  S394  1  0.47902290  0.38104136  0.32447308  1
  S  S395  1  0.21172249  0.27086242  0.37954588  1
  S  S396  1  0.19340280  0.77051869  0.38114279  1
  S  S397  1  0.47854377  0.87164638  0.32814153  1
  S  S398  1  0.63407874  0.62841472  0.39453082  1
  S  S399  1  0.91417376  0.72750616  0.33818948  1
  S  S400  1  0.19054669  0.08846606  0.38499713  1
  S  S401  1  0.45310723  0.20205368  0.33283599  1
  S  S402  1  0.65971938  0.28944495  0.38879355  1
  S  S403  1  0.93258011  0.40006042  0.33356610  1
  S  S404  1  0.97812565  0.91708970  0.32647219  1
  S  S405  1  0.70431181  0.80855799  0.38226401  1
  S  S406  1  0.40591833  0.69061268  0.33795849  1
  S  S407  1  0.13255101  0.56539014  0.40075089  1
  S  S408  1  0.15491506  0.95428715  0.42969946  1
  S  S409  1  0.88365662  0.82775006  0.48828736  1
  S  S410  1  0.13239753  0.22056534  0.45122043  1
  S  S411  1  0.17475619  0.72682573  0.45306010  1
  S  S412  1  0.86788658  0.34225803  0.49253866  1
  S  S413  1  0.11912575  0.43026100  0.44067745  1
  S  S414  1  0.69588758  0.41082220  0.44076282  1
  S  S415  1  0.60684409  0.75897896  0.44122166  1
  S  S416  1  0.33361379  0.61026259  0.50405466  1
  S  S417  1  0.29479488  0.14160410  0.50326404  1
  S  S418  1  0.60299395  0.24524800  0.44578384  1
  S  S419  1  0.69247447  0.93205305  0.43960398  1
  S  S420  1  0.34768461  0.00765970  0.45382335  1
  S  S421  1  0.93582114  0.16554889  0.43204678  1
  S  S422  1  0.69327803  0.04972309  0.48727114  1
  S  S423  1  0.61493476  0.53891009  0.49004270  1
  S  S424  1  0.91629999  0.65082320  0.44130044  1
  S  S425  1  0.40826013  0.51656029  0.44537626  1
  S  S426  1  0.61563737  0.91708356  0.49662314  1
  S  S427  1  0.92188915  0.98782133  0.44808793  1
  S  S428  1  0.37506386  0.18535610  0.44975135  1
  S  S429  1  0.41318698  0.72015400  0.43547797  1
  S  S430  1  0.20023807  0.54186956  0.47287656  1
  S  S431  1  0.82307856  0.50567810  0.45355208  1
  S  S432  1  0.50044416  0.79443644  0.54005710  1
  S  S433  1  0.23109810  0.42864134  0.53419967  1
  S  S434  1  0.50282323  0.54373259  0.56673968  1
  S  S435  1  0.49551956  0.02172578  0.55871902  1
  S  S436  1  0.21508628  0.89753515  0.50086162  1
  S  S437  1  0.51894845  0.33112152  0.55410683  1
  S  S438  1  0.67939621  0.24761963  0.50276917  1
  S  S439  1  0.99152130  0.30425130  0.55924992  1
  S  S440  1  0.01658308  0.99183634  0.54813502  1
  S  S441  1  0.99043348  0.51416447  0.56477388  1
  S  S442  1  0.93371211  0.82557967  0.55297353  1
  S  S443  1  0.72658928  0.68538206  0.50163511  1
  S  S444  1  0.00031124  0.62307527  0.51611248  1
  S  S445  1  0.28154059  0.75098372  0.56581593  1
  S  S446  1  0.70314119  0.58269536  0.55081989  1
  S  S447  1  0.71435446  0.11126805  0.54878439  1
  S  S448  1  0.26033955  0.23602676  0.56125853  1
  S  S449  1  0.01216054  0.12602086  0.50799804  1
  S  S450  1  0.73417263  0.76114939  0.55679675  1
  S  S451  1  0.26421334  0.56679116  0.56228609  1
  S  S452  1  0.03214981  0.42065615  0.50909281  1
  S  S453  1  0.22568361  0.01310734  0.54725896  1
  S  S454  1  0.47015421  0.22020887  0.51533361  1
  S  S455  1  0.78300726  0.27984515  0.56302453  1
  S  S456  1  0.76046047  0.91520165  0.60331167  1
  S  S457  1  0.04168737  0.01698175  0.66041033  1
  S  S458  1  0.78685459  0.63680272  0.62295046  1
  S  S459  1  0.05214666  0.74514025  0.67463174  1
  S  S460  1  0.04513536  0.23916741  0.67215062  1
  S  S461  1  0.76361096  0.12919742  0.61848531  1
  S  S462  1  0.06093689  0.51974349  0.66029345  1
  S  S463  1  0.79606595  0.40520141  0.60491067  1
  S  S464  1  0.25177787  0.43011368  0.61294469  1
  S  S465  1  0.53154791  0.54036589  0.67153205  1
  S  S466  1  0.31563876  0.10185243  0.60894206  1
  S  S467  1  0.57831246  0.22792909  0.66682477  1
  S  S468  1  0.58210744  0.73321342  0.66746926  1
  S  S469  1  0.31362037  0.62671159  0.61530602  1
  S  S470  1  0.51705786  0.03278567  0.66457724  1
  S  S471  1  0.22901413  0.92465818  0.61158373  1
  S  S472  1  0.56580941  0.84648455  0.61778935  1
  S  S473  1  0.83994834  0.95783457  0.67665090  1
  S  S474  1  0.97700786  0.70115067  0.60230696  1
  S  S475  1  0.25480042  0.80413389  0.66020656  1
  S  S476  1  0.28018225  0.30604709  0.66145762  1
  S  S477  1  0.00012459  0.18533922  0.60596498  1
  S  S478  1  0.82948120  0.45078150  0.67359024  1
  S  S479  1  0.56105031  0.34728499  0.61826149  1
  S  S480  1  0.28909601  0.97905887  0.66500262  1
  S  S481  1  0.00741826  0.87653473  0.60666350  1
  S  S482  1  0.80698503  0.78293458  0.66889955  1
  S  S483  1  0.54690245  0.66432264  0.61327279  1
  S  S484  1  0.47504729  0.17321088  0.59802850  1
  S  S485  1  0.77580540  0.25903053  0.66096700  1
  S  S486  1  0.06867476  0.37845019  0.61965216  1
  S  S487  1  0.34480932  0.49241303  0.67244058  1
  S  S488  1  0.32781329  0.11787859  0.71290725  1
  S  S489  1  0.59951258  0.22913144  0.76879562  1
  S  S490  1  0.34104073  0.84557358  0.73207937  1
  S  S491  1  0.60830295  0.95748325  0.78541361  1
  S  S492  1  0.59788398  0.45290140  0.78312197  1
  S  S493  1  0.31994401  0.33870163  0.72780791  1
  S  S494  1  0.62021392  0.73120777  0.77123150  1
  S  S495  1  0.32851960  0.62675671  0.71660727  1
  S  S496  1  0.80839863  0.63945307  0.72277395  1
  S  S497  1  0.08004705  0.74855492  0.78036471  1
  S  S498  1  0.86167906  0.32354400  0.72143060  1
  S  S499  1  0.12915103  0.43835815  0.77560909  1
  S  S500  1  0.14052021  0.94422584  0.77807957  1
  S  S501  1  0.86825185  0.83099265  0.72398571  1
  S  S502  1  0.07917945  0.24183668  0.77727749  1
  S  S503  1  0.79501271  0.13369234  0.72189202  1
  S  S504  1  0.12827833  0.05905633  0.72967061  1
  S  S505  1  0.39494314  0.16904913  0.78746687  1
  S  S506  1  0.54236490  0.90682225  0.71217198  1
  S  S507  1  0.81247950  0.01557355  0.77024109  1
  S  S508  1  0.83328023  0.51780480  0.77138281  1
  S  S509  1  0.54885372  0.41524747  0.71800028  1
  S  S510  1  0.38165043  0.66313983  0.78397010  1
  S  S511  1  0.11176955  0.55401416  0.72691550  1
  S  S512  1  0.84594581  0.19114724  0.77609044  1
  S  S513  1  0.57040297  0.08416436  0.72020715  1
  S  S514  1  0.36561492  0.99184395  0.78040091  1
  S  S515  1  0.09471971  0.88298880  0.72420363  1
  S  S516  1  0.04917544  0.36815005  0.71562410  1
  S  S517  1  0.32502673  0.47202341  0.77028180  1
  S  S518  1  0.61795965  0.59844146  0.72888856  1
  S  S519  1  0.88760651  0.70953502  0.78419826  1
  S  S520  1  0.88037600  0.33136645  0.82330345  1
  S  S521  1  0.14506819  0.43789656  0.87954399  1
  S  S522  1  0.88889934  0.06227496  0.84217256  1
  S  S523  1  0.16501086  0.16173634  0.89955385  1
  S  S524  1  0.14820894  0.65610691  0.89201073  1
  S  S525  1  0.87192961  0.55666526  0.83957254  1
  S  S526  1  0.16758379  0.94247713  0.88048080  1
  S  S527  1  0.88561164  0.84264735  0.82755946  1
  S  S528  1  0.35979850  0.85262253  0.83309025  1
  S  S529  1  0.64085146  0.96596820  0.89169278  1
  S  S530  1  0.41066186  0.53677809  0.83196359  1
  S  S531  1  0.67653954  0.65530320  0.88623376  1
  S  S532  1  0.68940320  0.16140076  0.88795757  1
  S  S533  1  0.42571613  0.04239818  0.83529056  1
  S  S534  1  0.64352582  0.46270592  0.88936474  1
  S  S535  1  0.33675739  0.35084381  0.83133212  1
  S  S536  1  0.67499290  0.27625049  0.83952524  1
  S  S537  1  0.95631569  0.37987650  0.89891657  1
  S  S538  1  0.09663765  0.11877233  0.82455299  1
  S  S539  1  0.36394606  0.22902467  0.87972864  1
  S  S540  1  0.38320709  0.72958328  0.88116075  1
  S  S541  1  0.09745818  0.62812024  0.82816611  1
  S  S542  1  0.94223652  0.87174831  0.89441103  1
  S  S543  1  0.66175074  0.77283132  0.83829902  1
  S  S544  1  0.38508772  0.41148220  0.88498224  1
  S  S545  1  0.12227720  0.29788261  0.83298640  1
  S  S546  1  0.91640406  0.21070254  0.88893313  1
  S  S547  1  0.64271627  0.10022341  0.83370481  1
  S  S548  1  0.59762134  0.58297199  0.82645999  1
  S  S549  1  0.87225523  0.69122173  0.88217601  1
  S  S550  1  0.17036627  0.80902900  0.83803775  1
  S  S551  1  0.44323204  0.93618157  0.90118461  1
  S  S552  1  0.42157588  0.54597027  0.92965490  1
  S  S553  1  0.69102405  0.67137565  0.98833758  1
  S  S554  1  0.44192852  0.28124107  0.95140140  1
  S  S555  1  0.40154370  0.77290196  0.95294326  1
  S  S556  1  0.70435640  0.15752639  0.99175333  1
  S  S557  1  0.46034270  0.06912535  0.94157460  1
  S  S558  1  0.88028475  0.08955068  0.94065287  1
  S  S559  1  0.96978327  0.74153710  0.94129638  1
  S  S560  1  0.24310642  0.88772270  0.00405154  1
  S  S561  1  0.27652102  0.36127245  0.00313480  1
  S  S562  1  0.97316839  0.25481759  0.94593908  1
  S  S563  1  0.88135077  0.56897135  0.93945498  1
  S  S564  1  0.22618146  0.49409586  0.95373999  1
  S  S565  1  0.64001452  0.33479598  0.93204052  1
  S  S566  1  0.88678330  0.45017350  0.98751979  1
  S  S567  1  0.96010363  0.96259572  0.99016819  1
  S  S568  1  0.66041895  0.84868505  0.94150206  1
  S  S569  1  0.16788870  0.98327525  0.94549274  1
  S  S570  1  0.95844976  0.58641456  0.99628509  1
  S  S571  1  0.65385681  0.51226072  0.94879532  1
  S  S572  1  0.19992066  0.31569816  0.94939712  1
  S  S573  1  0.16313483  0.78038877  0.93534177  1
  S  S574  1  0.37554509  0.95772580  0.97315878  1
  S  S575  1  0.75440059  0.99318384  0.95312364  1
