# generated using pymatgen
data_Li56La22Zr14O89
_symmetry_space_group_name_H-M   'P 1'
_cell_length_a   18.66058700
_cell_length_b   13.19488265
_cell_length_c   48.30289797
_cell_angle_alpha   90.00000000
_cell_angle_beta   90.00000000
_cell_angle_gamma   45.00062637
_symmetry_Int_Tables_number   1
_chemical_formula_structural   Li56La22Zr14O89
_chemical_formula_sum   'Li224 La88 Zr56 O356'
_cell_volume   8409.95691031
_cell_formula_units_Z   4
loop_
 _symmetry_equiv_pos_site_id
 _symmetry_equiv_pos_as_xyz
  1  'x, y, z'
loop_
 _atom_site_type_symbol
 _atom_site_label
 _atom_site_symmetry_multiplicity
 _atom_site_fract_x
 _atom_site_fract_y
 _atom_site_fract_z
 _atom_site_occupancy
  Li  Li0  1  0.14671856  0.12080639  0.10100910  1
  Li  Li1  1  0.33239373  0.80213880  0.99713321  1
  Li  Li2  1  0.60051820  0.03156769  0.99937943  1
  Li  Li3  1  0.80218097  0.95985384  0.10295481  1
  Li  Li4  1  0.30543011  0.30582825  0.10378465  1
  Li  Li5  1  0.16750694  0.62949560  0.00459016  1
  Li  Li6  1  0.78661401  0.52115429  0.00975122  1
  Li  Li7  1  0.64605149  0.45936933  0.10730505  1
  Li  Li8  1  0.55063253  0.70636328  0.08784981  1
  Li  Li9  1  0.88189542  0.28833176  0.99559197  1
  Li  Li10  1  0.10371920  0.50597085  0.99515821  1
  Li  Li11  1  0.41116885  0.35364656  0.08023893  1
  Li  Li12  1  0.89030679  0.71154875  0.07512952  1
  Li  Li13  1  0.52713979  0.25901918  0.03277242  1
  Li  Li14  1  0.44625164  0.80293658  0.02770041  1
  Li  Li15  1  0.04917611  0.06114090  0.07874949  1
  Li  Li16  1  0.39114931  0.95821976  0.06854607  1
  Li  Li17  1  0.00069215  0.05121922  0.02427618  1
  Li  Li18  1  0.98051110  0.62864824  0.02682530  1
  Li  Li19  1  0.60512600  0.25064575  0.07522722  1
  Li  Li20  1  0.07435248  0.44991217  0.06478900  1
  Li  Li21  1  0.37917820  0.50002270  0.03898138  1
  Li  Li22  1  0.57550437  0.78097131  0.04441057  1
  Li  Li23  1  0.87856723  0.15627456  0.07319109  1
  Li  Li24  1  0.22728812  0.21189666  0.08518595  1
  Li  Li25  1  0.20227343  0.75325175  0.01790343  1
  Li  Li26  1  0.70331936  0.75005158  0.01850725  1
  Li  Li27  1  0.73156063  0.21286838  0.08883767  1
  Li  Li28  1  0.64514176  0.13194370  0.23445726  1
  Li  Li29  1  0.80938132  0.78495840  0.13370055  1
  Li  Li30  1  0.14321749  0.95712139  0.13253982  1
  Li  Li31  1  0.30398789  0.97439122  0.23497275  1
  Li  Li32  1  0.80536222  0.29971371  0.23524089  1
  Li  Li33  1  0.63867363  0.63475536  0.13544815  1
  Li  Li34  1  0.30937598  0.46587150  0.13217578  1
  Li  Li35  1  0.14567216  0.45902735  0.23525669  1
  Li  Li36  1  0.04585339  0.71532607  0.22090995  1
  Li  Li37  1  0.40106686  0.21796909  0.15466314  1
  Li  Li38  1  0.54025332  0.57735762  0.15409789  1
  Li  Li39  1  0.90165268  0.36227567  0.21625254  1
  Li  Li40  1  0.40348967  0.71529371  0.21780204  1
  Li  Li41  1  0.05275362  0.21144988  0.14743591  1
  Li  Li42  1  0.90124853  0.85862354  0.14788613  1
  Li  Li43  1  0.54730237  0.07146800  0.21528565  1
  Li  Li44  1  0.88730857  0.96884040  0.19917172  1
  Li  Li45  1  0.55913739  0.95932562  0.16978853  1
  Li  Li46  1  0.38318294  0.63526698  0.17007098  1
  Li  Li47  1  0.06290808  0.29419007  0.19837406  1
  Li  Li48  1  0.55818955  0.46420718  0.20025547  1
  Li  Li49  1  0.89454120  0.46766602  0.16983617  1
  Li  Li50  1  0.05285272  0.80335079  0.17184490  1
  Li  Li51  1  0.38527228  0.13608302  0.20001960  1
  Li  Li52  1  0.72511986  0.21521795  0.21752825  1
  Li  Li53  1  0.72402009  0.71459840  0.15259941  1
  Li  Li54  1  0.22221099  0.71627133  0.15171392  1
  Li  Li55  1  0.22486150  0.21541604  0.21702356  1
  Li  Li56  1  0.14170570  0.13258355  0.36634507  1
  Li  Li57  1  0.30590487  0.79973268  0.26487974  1
  Li  Li58  1  0.64262826  0.96222993  0.26430279  1
  Li  Li59  1  0.81058530  0.96448256  0.36738578  1
  Li  Li60  1  0.30780095  0.29035983  0.36602922  1
  Li  Li61  1  0.14548845  0.63296539  0.26547579  1
  Li  Li62  1  0.80559025  0.47123498  0.26507798  1
  Li  Li63  1  0.64341917  0.45527616  0.36715061  1
  Li  Li64  1  0.54744755  0.71202446  0.35018175  1
  Li  Li65  1  0.90299715  0.21477896  0.28074023  1
  Li  Li66  1  0.04779763  0.57043313  0.28283141  1
  Li  Li67  1  0.40281899  0.35954116  0.35120090  1
  Li  Li68  1  0.90182636  0.71598191  0.34380555  1
  Li  Li69  1  0.54576976  0.21551608  0.28014729  1
  Li  Li70  1  0.40358055  0.85979989  0.28049125  1
  Li  Li71  1  0.04636112  0.07486997  0.34818396  1
  Li  Li72  1  0.39451241  0.96457573  0.32990431  1
  Li  Li73  1  0.06075968  0.96250769  0.30080361  1
  Li  Li74  1  0.88788852  0.63207164  0.29950211  1
  Li  Li75  1  0.55775224  0.30051236  0.32972247  1
  Li  Li76  1  0.06090876  0.45663199  0.32973661  1
  Li  Li77  1  0.39013725  0.46673327  0.30159635  1
  Li  Li78  1  0.56174456  0.79602466  0.30121560  1
  Li  Li79  1  0.88938943  0.13205416  0.32953752  1
  Li  Li80  1  0.22727830  0.21235193  0.34834564  1
  Li  Li81  1  0.22528128  0.71550059  0.28301908  1
  Li  Li82  1  0.72483525  0.71533849  0.28295172  1
  Li  Li83  1  0.72542205  0.21250897  0.34855975  1
  Li  Li84  1  0.67530890  0.13284890  0.49380359  1
  Li  Li85  1  0.80552978  0.80622679  0.39488288  1
  Li  Li86  1  0.14677644  0.95859583  0.39682662  1
  Li  Li87  1  0.22608018  0.15695156  0.49667923  1
  Li  Li88  1  0.83320353  0.29596933  0.50184964  1
  Li  Li89  1  0.64449703  0.62083110  0.39765357  1
  Li  Li90  1  0.30203055  0.46584084  0.39537027  1
  Li  Li91  1  0.12353501  0.49163955  0.50246155  1
  Li  Li92  1  0.03312440  0.74210641  0.46932331  1
  Li  Li93  1  0.39162239  0.21495343  0.41682043  1
  Li  Li94  1  0.55282452  0.55562259  0.42226003  1
  Li  Li95  1  0.93160433  0.32443483  0.47170914  1
  Li  Li96  1  0.35567887  0.74803041  0.50215713  1
  Li  Li97  1  0.04974317  0.20863951  0.41567850  1
  Li  Li98  1  0.91115925  0.85114390  0.41849524  1
  Li  Li99  1  0.57275034  0.09054833  0.50283962  1
  Li  Li100  1  0.87774952  0.98992252  0.45980026  1
  Li  Li101  1  0.59891414  0.93106665  0.42567516  1
  Li  Li102  1  0.38657513  0.64029208  0.43422387  1
  Li  Li103  1  0.06183732  0.31067365  0.45715161  1
  Li  Li104  1  0.51352807  0.53271977  0.47429398  1
  Li  Li105  1  0.88690213  0.46619408  0.43063476  1
  Li  Li106  1  0.07607184  0.78474955  0.42537623  1
  Li  Li107  1  0.47659494  0.07999340  0.45903149  1
  Li  Li108  1  0.72582738  0.23364752  0.48419890  1
  Li  Li109  1  0.73214648  0.70289890  0.41345751  1
  Li  Li110  1  0.22976113  0.71265969  0.41272527  1
  Li  Li111  1  0.27997017  0.21902491  0.46824264  1
  Li  Li112  1  0.05318200  0.50388898  0.60108470  1
  Li  Li113  1  0.86755130  0.82366002  0.49741787  1
  Li  Li114  1  0.59908119  0.59355097  0.49944264  1
  Li  Li115  1  0.39728053  0.66497886  0.60299932  1
  Li  Li116  1  0.89352406  0.31938834  0.60408920  1
  Li  Li117  1  0.03101330  0.99644277  0.50461575  1
  Li  Li118  1  0.41343031  0.10453763  0.50990516  1
  Li  Li119  1  0.55252767  0.16754321  0.60707576  1
  Li  Li120  1  0.64831908  0.91986291  0.58808715  1
  Li  Li121  1  0.31796332  0.33646555  0.49569922  1
  Li  Li122  1  0.09572645  0.12026248  0.49509632  1
  Li  Li123  1  0.78890922  0.27171541  0.58035414  1
  Li  Li124  1  0.30965758  0.91431313  0.57507992  1
  Li  Li125  1  0.67345726  0.36545455  0.53290574  1
  Li  Li126  1  0.75478718  0.82175041  0.52746755  1
  Li  Li127  1  0.15113192  0.56374120  0.57891403  1
  Li  Li128  1  0.80788763  0.66842158  0.56852580  1
  Li  Li129  1  0.20007313  0.57374841  0.52448597  1
  Li  Li130  1  0.21795110  0.99766777  0.52694763  1
  Li  Li131  1  0.59581274  0.37382842  0.57501714  1
  Li  Li132  1  0.12424556  0.17636124  0.56508742  1
  Li  Li133  1  0.82146116  0.12412009  0.53928375  1
  Li  Li134  1  0.62527221  0.84433302  0.54446121  1
  Li  Li135  1  0.32174320  0.46873786  0.57341800  1
  Li  Li136  1  0.97215137  0.41309156  0.58521491  1
  Li  Li137  1  0.99680912  0.87173327  0.51767870  1
  Li  Li138  1  0.49875913  0.87530863  0.51847025  1
  Li  Li139  1  0.46823214  0.41325458  0.58856950  1
  Li  Li140  1  0.55597349  0.49446304  0.73483935  1
  Li  Li141  1  0.38997861  0.83770214  0.63330686  1
  Li  Li142  1  0.05672908  0.66794785  0.63249130  1
  Li  Li143  1  0.89659396  0.65071480  0.73485096  1
  Li  Li144  1  0.39476383  0.32533523  0.73556126  1
  Li  Li145  1  0.55956872  0.99085495  0.63566421  1
  Li  Li146  1  0.89014891  0.15961984  0.63263661  1
  Li  Li147  1  0.05416479  0.16558334  0.73526604  1
  Li  Li148  1  0.15397435  0.90988199  0.72087544  1
  Li  Li149  1  0.79791927  0.40842595  0.65495829  1
  Li  Li150  1  0.65821405  0.04854611  0.65261134  1
  Li  Li151  1  0.29815246  0.26321954  0.71663486  1
  Li  Li152  1  0.79693939  0.90956790  0.71790510  1
  Li  Li153  1  0.14671021  0.41418198  0.64765451  1
  Li  Li154  1  0.29793377  0.76712268  0.64801374  1
  Li  Li155  1  0.65306541  0.55453292  0.71459863  1
  Li  Li156  1  0.31227994  0.65644106  0.69925980  1
  Li  Li157  1  0.63942499  0.66780924  0.66954942  1
  Li  Li158  1  0.81426125  0.99153574  0.67030580  1
  Li  Li159  1  0.13721460  0.33075608  0.69854441  1
  Li  Li160  1  0.64130430  0.16068315  0.69999900  1
  Li  Li161  1  0.30532212  0.15778829  0.66964874  1
  Li  Li162  1  0.14544947  0.82300915  0.67174479  1
  Li  Li163  1  0.81493653  0.48860423  0.70006126  1
  Li  Li164  1  0.47547631  0.40994428  0.71773912  1
  Li  Li165  1  0.47499762  0.91062097  0.65244091  1
  Li  Li166  1  0.97614372  0.90952407  0.65177896  1
  Li  Li167  1  0.97557201  0.40878719  0.71718393  1
  Li  Li168  1  0.05986934  0.49239223  0.86641510  1
  Li  Li169  1  0.89495763  0.82462032  0.76500380  1
  Li  Li170  1  0.55704156  0.66396261  0.76452160  1
  Li  Li171  1  0.38987954  0.66004950  0.86713606  1
  Li  Li172  1  0.89221184  0.33446628  0.86624330  1
  Li  Li173  1  0.05392008  0.99219517  0.76543537  1
  Li  Li174  1  0.39465266  0.15391379  0.76532701  1
  Li  Li175  1  0.55760609  0.16619293  0.86829690  1
  Li  Li176  1  0.65289887  0.91238303  0.85109155  1
  Li  Li177  1  0.29796711  0.41001631  0.78179207  1
  Li  Li178  1  0.15230215  0.05396823  0.78234506  1
  Li  Li179  1  0.79747019  0.26434579  0.85079582  1
  Li  Li180  1  0.29924512  0.90775024  0.84411838  1
  Li  Li181  1  0.65422744  0.40915565  0.78050236  1
  Li  Li182  1  0.79710754  0.76431190  0.77970160  1
  Li  Li183  1  0.15423137  0.54992405  0.84723400  1
  Li  Li184  1  0.80547116  0.66209989  0.82961411  1
  Li  Li185  1  0.13859494  0.66341915  0.80044854  1
  Li  Li186  1  0.31174992  0.99250309  0.79966095  1
  Li  Li187  1  0.64249418  0.32249867  0.82959809  1
  Li  Li188  1  0.13854164  0.16797141  0.82962447  1
  Li  Li189  1  0.81074418  0.15629330  0.80116080  1
  Li  Li190  1  0.63832035  0.82889682  0.80133370  1
  Li  Li191  1  0.31067430  0.49345857  0.82937080  1
  Li  Li192  1  0.97332053  0.41184063  0.84819339  1
  Li  Li193  1  0.97409819  0.90966930  0.78307356  1
  Li  Li194  1  0.47523546  0.90923690  0.78288440  1
  Li  Li195  1  0.47548366  0.40983126  0.84851890  1
  Li  Li196  1  0.52541017  0.49150423  0.99369396  1
  Li  Li197  1  0.39561082  0.81730394  0.89468864  1
  Li  Li198  1  0.05450706  0.66424706  0.89659936  1
  Li  Li199  1  0.97476420  0.46670636  0.99662888  1
  Li  Li200  1  0.36722419  0.32877518  0.00182482  1
  Li  Li201  1  0.55540262  0.00129874  0.89817619  1
  Li  Li202  1  0.89783020  0.15832346  0.89532491  1
  Li  Li203  1  0.07512107  0.13612191  0.00198623  1
  Li  Li204  1  0.16707659  0.88193290  0.96938059  1
  Li  Li205  1  0.80810643  0.40958343  0.91692096  1
  Li  Li206  1  0.64752437  0.06877108  0.92224121  1
  Li  Li207  1  0.26857992  0.30021535  0.97199722  1
  Li  Li208  1  0.84450308  0.87814934  0.00205203  1
  Li  Li209  1  0.15117254  0.41500584  0.91597703  1
  Li  Li210  1  0.28882823  0.77351234  0.91846586  1
  Li  Li211  1  0.62691311  0.53510972  0.00267493  1
  Li  Li212  1  0.32335218  0.63341896  0.96001987  1
  Li  Li213  1  0.60153774  0.69288850  0.92548786  1
  Li  Li214  1  0.81247586  0.98563052  0.93466477  1
  Li  Li215  1  0.13885304  0.31319088  0.95726130  1
  Li  Li216  1  0.68605000  0.09240396  0.97455360  1
  Li  Li217  1  0.31422663  0.15734987  0.93055941  1
  Li  Li218  1  0.12404799  0.84069563  0.92499733  1
  Li  Li219  1  0.72422978  0.54510465  0.95913633  1
  Li  Li220  1  0.47556247  0.38983643  0.98402999  1
  Li  Li221  1  0.46821905  0.92099796  0.91365127  1
  Li  Li222  1  0.97105584  0.91052091  0.91267026  1
  Li  Li223  1  0.91887054  0.40680252  0.96812883  1
  La  La224  1  0.35185185  0.83556809  0.11804056  1
  La  La225  1  0.59307210  0.08997703  0.11940843  1
  La  La226  1  0.09572552  0.59391718  0.11791617  1
  La  La227  1  0.85602604  0.34043567  0.12049641  1
  La  La228  1  0.72465488  0.71109947  0.08856720  1
  La  La229  1  0.73234983  0.20512208  0.02084140  1
  La  La230  1  0.23351747  0.18731083  0.02083000  1
  La  La231  1  0.22400384  0.71422387  0.08585380  1
  La  La232  1  0.97799778  0.33499384  0.05241240  1
  La  La233  1  0.48234364  0.57823477  0.05503071  1
  La  La234  1  0.46549114  0.09704564  0.05191418  1
  La  La235  1  0.96901952  0.84767471  0.05650913  1
  La  La236  1  0.85221345  0.83642754  0.25007292  1
  La  La237  1  0.09755740  0.09283921  0.25014888  1
  La  La238  1  0.59650167  0.59402137  0.25057968  1
  La  La239  1  0.35285859  0.33695366  0.24990205  1
  La  La240  1  0.22497307  0.71515237  0.21753206  1
  La  La241  1  0.22561095  0.21537792  0.15137186  1
  La  La242  1  0.72396241  0.21784001  0.15280432  1
  La  La243  1  0.72510435  0.71500835  0.21744980  1
  La  La244  1  0.47549044  0.33699521  0.18490269  1
  La  La245  1  0.97795470  0.59207113  0.18438077  1
  La  La246  1  0.97447115  0.09604539  0.18525745  1
  La  La247  1  0.47198945  0.83960437  0.18485217  1
  La  La248  1  0.35494542  0.83515546  0.38253247  1
  La  La249  1  0.59742220  0.09731906  0.38149592  1
  La  La250  1  0.09246421  0.59168064  0.37969921  1
  La  La251  1  0.85279474  0.33546676  0.38170915  1
  La  La252  1  0.72481002  0.71554925  0.34794327  1
  La  La253  1  0.72382527  0.21594909  0.28283560  1
  La  La254  1  0.22556380  0.21418409  0.28297873  1
  La  La255  1  0.22526985  0.71588117  0.34814633  1
  La  La256  1  0.97312123  0.33669237  0.31513245  1
  La  La257  1  0.47368788  0.59581783  0.31601315  1
  La  La258  1  0.47584825  0.09429974  0.31585506  1
  La  La259  1  0.97545605  0.83706617  0.31512994  1
  La  La260  1  0.22217230  0.70898536  0.47644499  1
  La  La261  1  0.21258438  0.22296056  0.41217206  1
  La  La262  1  0.72445629  0.21217417  0.41415241  1
  La  La263  1  0.72228153  0.70373360  0.47984421  1
  La  La264  1  0.46077466  0.34942674  0.44658864  1
  La  La265  1  0.96429154  0.59793050  0.44697145  1
  La  La266  1  0.98178865  0.08453064  0.44577624  1
  La  La267  1  0.47804771  0.83917700  0.44663530  1
  La  La268  1  0.84804960  0.78987012  0.61808311  1
  La  La269  1  0.60668576  0.53547767  0.61933742  1
  La  La270  1  0.10379633  0.03180687  0.61795030  1
  La  La271  1  0.34356152  0.28509174  0.62055819  1
  La  La272  1  0.47513287  0.91445634  0.58851910  1
  La  La273  1  0.46771012  0.42008583  0.52073556  1
  La  La274  1  0.96638188  0.43799202  0.52082148  1
  La  La275  1  0.97593886  0.91127658  0.58595715  1
  La  La276  1  0.22154955  0.29052769  0.55245292  1
  La  La277  1  0.71733458  0.04716488  0.55513111  1
  La  La278  1  0.73430809  0.52858029  0.55184810  1
  La  La279  1  0.23149516  0.77721709  0.55657562  1
  La  La280  1  0.34782297  0.78827063  0.75005076  1
  La  La281  1  0.10296764  0.53173137  0.75019475  1
  La  La282  1  0.60346969  0.03090384  0.75059040  1
  La  La283  1  0.84664101  0.28859465  0.74992596  1
  La  La284  1  0.97491922  0.90995016  0.71751571  1
  La  La285  1  0.97405527  0.41020745  0.65144122  1
  La  La286  1  0.47570770  0.40775226  0.65279238  1
  La  La287  1  0.47473042  0.91041084  0.71740432  1
  La  La288  1  0.72384251  0.28863766  0.68495618  1
  La  La289  1  0.22194303  0.03315310  0.68437833  1
  La  La290  1  0.22550449  0.52913500  0.68529430  1
  La  La291  1  0.72774146  0.78612976  0.68486273  1
  La  La292  1  0.84581150  0.78941896  0.88260405  1
  La  La293  1  0.60306191  0.52655092  0.88136798  1
  La  La294  1  0.10765651  0.03315061  0.87960106  1
  La  La295  1  0.34716257  0.28948547  0.88168152  1
  La  La296  1  0.47561476  0.90902641  0.84793427  1
  La  La297  1  0.47642595  0.40869434  0.78283245  1
  La  La298  1  0.97452132  0.41057473  0.78294166  1
  La  La299  1  0.97489930  0.90882519  0.84812544  1
  La  La300  1  0.22726898  0.28729638  0.81509898  1
  La  La301  1  0.72638009  0.02839180  0.81604323  1
  La  La302  1  0.72444586  0.53051513  0.81586201  1
  La  La303  1  0.22442480  0.78815102  0.81510811  1
  La  La304  1  0.97795217  0.91631971  0.97641153  1
  La  La305  1  0.98792316  0.40154199  0.91211445  1
  La  La306  1  0.47554626  0.41296123  0.91409247  1
  La  La307  1  0.47789900  0.92139263  0.97988977  1
  La  La308  1  0.73913267  0.27551189  0.94657737  1
  La  La309  1  0.23600127  0.02656160  0.94690913  1
  La  La310  1  0.21840223  0.54043371  0.94580651  1
  La  La311  1  0.72266963  0.78514714  0.94663161  1
  Zr  Zr312  1  0.47191484  0.96667544  0.11887827  1
  Zr  Zr313  1  0.47340767  0.46568332  0.11984421  1
  Zr  Zr314  1  0.98195334  0.46162703  0.11799436  1
  Zr  Zr315  1  0.97300219  0.97103508  0.12018993  1
  Zr  Zr316  1  0.22449584  0.95384628  0.04896159  1
  Zr  Zr317  1  0.71205043  0.97536341  0.05107484  1
  Zr  Zr318  1  0.22655875  0.46687747  0.04970504  1
  Zr  Zr319  1  0.72527750  0.46728372  0.05502516  1
  Zr  Zr320  1  0.97396573  0.96604654  0.25011143  1
  Zr  Zr321  1  0.97699542  0.46283063  0.24972541  1
  Zr  Zr322  1  0.47349826  0.46693211  0.25051657  1
  Zr  Zr323  1  0.47549872  0.96613160  0.25028414  1
  Zr  Zr324  1  0.72659364  0.96061203  0.18405928  1
  Zr  Zr325  1  0.22502561  0.96285279  0.18414705  1
  Zr  Zr326  1  0.72291551  0.46775590  0.18530148  1
  Zr  Zr327  1  0.22431043  0.46883054  0.18392296  1
  Zr  Zr328  1  0.48076080  0.96175105  0.38175765  1
  Zr  Zr329  1  0.47374768  0.46825894  0.38178378  1
  Zr  Zr330  1  0.97080221  0.46629403  0.38013424  1
  Zr  Zr331  1  0.97557746  0.96561239  0.38031721  1
  Zr  Zr332  1  0.22640942  0.96539477  0.31617506  1
  Zr  Zr333  1  0.72407265  0.96765563  0.31577231  1
  Zr  Zr334  1  0.22617116  0.46331508  0.31563012  1
  Zr  Zr335  1  0.72443116  0.46309033  0.31616731  1
  Zr  Zr336  1  0.72966816  0.96532628  0.45004494  1
  Zr  Zr337  1  0.22702064  0.96757560  0.44964664  1
  Zr  Zr338  1  0.72849471  0.45593916  0.45053531  1
  Zr  Zr339  1  0.21143001  0.47087328  0.44541961  1
  Zr  Zr340  1  0.72784135  0.65907567  0.61889005  1
  Zr  Zr341  1  0.72596228  0.16037524  0.61985024  1
  Zr  Zr342  1  0.21794463  0.16370259  0.61803472  1
  Zr  Zr343  1  0.22666281  0.65451837  0.62025052  1
  Zr  Zr344  1  0.97525993  0.67152650  0.54916356  1
  Zr  Zr345  1  0.48758306  0.65047463  0.55103183  1
  Zr  Zr346  1  0.97312754  0.15856343  0.54972617  1
  Zr  Zr347  1  0.47439368  0.15847741  0.55505294  1
  Zr  Zr348  1  0.22589564  0.65899655  0.75011164  1
  Zr  Zr349  1  0.22325362  0.16167714  0.74975816  1
  Zr  Zr350  1  0.72624904  0.15788192  0.75046594  1
  Zr  Zr351  1  0.72444707  0.65888151  0.75027106  1
  Zr  Zr352  1  0.47323863  0.66455640  0.68407407  1
  Zr  Zr353  1  0.97501252  0.66227253  0.68417528  1
  Zr  Zr354  1  0.47679908  0.15779519  0.68536612  1
  Zr  Zr355  1  0.97525897  0.15682668  0.68395176  1
  Zr  Zr356  1  0.71985592  0.66227783  0.88171571  1
  Zr  Zr357  1  0.72650937  0.15614421  0.88180979  1
  Zr  Zr358  1  0.22978049  0.15763732  0.88009496  1
  Zr  Zr359  1  0.22472849  0.65879502  0.88023960  1
  Zr  Zr360  1  0.97385628  0.65928327  0.81619512  1
  Zr  Zr361  1  0.47624296  0.65664260  0.81573740  1
  Zr  Zr362  1  0.97373537  0.16146398  0.81561267  1
  Zr  Zr363  1  0.47623521  0.16129893  0.81627833  1
  Zr  Zr364  1  0.47066179  0.65937095  0.94994582  1
  Zr  Zr365  1  0.97340605  0.65711130  0.94964482  1
  Zr  Zr366  1  0.47164987  0.16909849  0.95047188  1
  Zr  Zr367  1  0.98874810  0.15390834  0.94531161  1
  O  O368  1  0.82746228  0.17695143  0.11152626  1
  O  O369  1  0.12814440  0.37407149  0.10911070  1
  O  O370  1  0.62436709  0.26749918  0.11209580  1
  O  O371  1  0.32788362  0.05406345  0.10854137  1
  O  O372  1  0.00949171  0.28292110  0.10767448  1
  O  O373  1  0.94292609  0.84924053  0.10623764  1
  O  O374  1  0.44470772  0.14033248  0.10306696  1
  O  O375  1  0.93453188  0.37355173  0.00640824  1
  O  O376  1  0.50383159  0.58505057  0.10532545  1
  O  O377  1  0.69283808  0.55527118  0.09724475  1
  O  O378  1  0.76600535  0.40026643  0.01635759  1
  O  O379  1  0.22519728  0.44350099  0.00568417  1
  O  O380  1  0.25882921  0.48764068  0.09078592  1
  O  O381  1  0.75281158  0.86811191  0.09065284  1
  O  O382  1  0.66840766  0.09056306  0.01408316  1
  O  O383  1  0.23356664  0.00387682  0.00843026  1
  O  O384  1  0.19126810  0.93144327  0.09084684  1
  O  O385  1  0.53159479  0.87220127  0.07961961  1
  O  O386  1  0.91664918  0.01657604  0.02261057  1
  O  O387  1  0.07079783  0.42221446  0.02074132  1
  O  O388  1  0.41695444  0.49332993  0.07930816  1
  O  O389  1  0.93532872  0.53342402  0.07737586  1
  O  O390  1  0.50250870  0.41946611  0.02187551  1
  O  O391  1  0.42761079  0.96718871  0.02781966  1
  O  O392  1  0.01256231  0.96041497  0.07906109  1
  O  O393  1  0.37209338  0.83730081  0.06528959  1
  O  O394  1  0.07170502  0.08418687  0.04151454  1
  O  O395  1  0.86108609  0.80635901  0.03959607  1
  O  O396  1  0.56772742  0.15428750  0.06939196  1
  O  O397  1  0.07411800  0.59307022  0.06354469  1
  O  O398  1  0.38284462  0.34675264  0.04061439  1
  O  O399  1  0.57284544  0.64173547  0.04533890  1
  O  O400  1  0.87525248  0.30071727  0.07118187  1
  O  O401  1  0.17530812  0.15388243  0.06146961  1
  O  O402  1  0.29074912  0.74834099  0.03742856  1
  O  O403  1  0.63738819  0.92048135  0.03524797  1
  O  O404  1  0.76080413  0.07064864  0.06568681  1
  O  O405  1  0.27522533  0.26982201  0.05870958  1
  O  O406  1  0.16953276  0.67400288  0.04155458  1
  O  O407  1  0.74261460  0.61093311  0.04566315  1
  O  O408  1  0.67890708  0.36167556  0.06271207  1
  O  O409  1  0.32801703  0.16712530  0.24089782  1
  O  O410  1  0.12268573  0.76677710  0.12601213  1
  O  O411  1  0.83236026  0.56269269  0.12816737  1
  O  O412  1  0.62054180  0.37306521  0.24101897  1
  O  O413  1  0.12368633  0.26131806  0.24109319  1
  O  O414  1  0.32675519  0.66676629  0.12825606  1
  O  O415  1  0.61781907  0.87656887  0.12944175  1
  O  O416  1  0.82721674  0.05718240  0.24137297  1
  O  O417  1  0.50318772  0.28676772  0.23648050  1
  O  O418  1  0.95179853  0.63924702  0.13404037  1
  O  O419  1  0.00226251  0.08790082  0.13564155  1
  O  O420  1  0.44563233  0.84538845  0.23703069  1
  O  O421  1  0.94641637  0.14401238  0.23709263  1
  O  O422  1  0.49838624  0.79022778  0.13329411  1
  O  O423  1  0.45008007  0.33879857  0.13370383  1
  O  O424  1  0.00422863  0.58635347  0.23634262  1
  O  O425  1  0.19028165  0.55559295  0.22459426  1
  O  O426  1  0.26080004  0.37864847  0.14353425  1
  O  O427  1  0.68604329  0.44704056  0.14613819  1
  O  O428  1  0.75837341  0.48896575  0.22544154  1
  O  O429  1  0.26000183  0.87575961  0.22483142  1
  O  O430  1  0.19422971  0.04484338  0.14309794  1
  O  O431  1  0.75784460  0.97747418  0.14310564  1
  O  O432  1  0.69017614  0.94331500  0.22465632  1
  O  O433  1  0.02795736  0.87624445  0.21007755  1
  O  O434  1  0.41603613  0.05849353  0.15911898  1
  O  O435  1  0.52612746  0.44810121  0.16022997  1
  O  O436  1  0.92261141  0.48369448  0.20954315  1
  O  O437  1  0.41806876  0.55657243  0.21048960  1
  O  O438  1  0.03753250  0.36882921  0.15892370  1
  O  O439  1  0.91615784  0.98675719  0.15963596  1
  O  O440  1  0.52845366  0.94591118  0.20982450  1
  O  O441  1  0.87474500  0.84021922  0.19918295  1
  O  O442  1  0.57429534  0.08595671  0.17158480  1
  O  O443  1  0.37560472  0.78509471  0.17062963  1
  O  O444  1  0.07611509  0.13968097  0.19914921  1
  O  O445  1  0.57221472  0.59123273  0.19963011  1
  O  O446  1  0.87266688  0.34873357  0.17222001  1
  O  O447  1  0.07675285  0.64164478  0.16914019  1
  O  O448  1  0.37507220  0.28769228  0.19781616  1
  O  O449  1  0.67365223  0.16215713  0.19329554  1
  O  O450  1  0.78062468  0.75973964  0.17588647  1
  O  O451  1  0.17129014  0.86978558  0.17603433  1
  O  O452  1  0.27804765  0.05828774  0.19313194  1
  O  O453  1  0.77947528  0.26543898  0.19467817  1
  O  O454  1  0.66713562  0.66926019  0.17553003  1
  O  O455  1  0.28105916  0.55808218  0.17570363  1
  O  O456  1  0.17314691  0.37178353  0.19320888  1
  O  O457  1  0.82803610  0.16448544  0.37268086  1
  O  O458  1  0.62180210  0.76541252  0.25923680  1
  O  O459  1  0.32716547  0.55723520  0.25937577  1
  O  O460  1  0.11783606  0.37257369  0.37082923  1
  O  O461  1  0.62315289  0.26359094  0.37350588  1
  O  O462  1  0.82929296  0.66451360  0.25924127  1
  O  O463  1  0.12152540  0.87242391  0.25922669  1
  O  O464  1  0.33079653  0.06473091  0.37441686  1
  O  O465  1  0.00055343  0.28696444  0.36586389  1
  O  O466  1  0.44696891  0.64369076  0.26421875  1
  O  O467  1  0.50182078  0.08937809  0.26453528  1
  O  O468  1  0.95058781  0.84091714  0.36621810  1
  O  O469  1  0.45052565  0.13956173  0.36730055  1
  O  O470  1  0.00340694  0.78577018  0.26371271  1
  O  O471  1  0.94755246  0.34252823  0.26398189  1
  O  O472  1  0.50251024  0.58693335  0.36674782  1
  O  O473  1  0.69031716  0.54827726  0.35706829  1
  O  O474  1  0.75887655  0.37508872  0.27558697  1
  O  O475  1  0.19122473  0.44386206  0.27529699  1
  O  O476  1  0.25824147  0.48416499  0.35593735  1
  O  O477  1  0.76219168  0.87689093  0.35570692  1
  O  O478  1  0.68981433  0.05482343  0.27524229  1
  O  O479  1  0.25997015  0.98623445  0.27561569  1
  O  O480  1  0.19042972  0.94538329  0.35623114  1
  O  O481  1  0.53343899  0.87072783  0.34158328  1
  O  O482  1  0.92004453  0.05479331  0.29029594  1
  O  O483  1  0.03092890  0.44302111  0.29014109  1
  O  O484  1  0.41859972  0.48662735  0.34133508  1
  O  O485  1  0.91644558  0.55717849  0.34014500  1
  O  O486  1  0.52908354  0.37511627  0.29050772  1
  O  O487  1  0.42098939  0.98478256  0.29063838  1
  O  O488  1  0.02956916  0.94751661  0.34055695  1
  O  O489  1  0.37481884  0.84404596  0.33107544  1
  O  O490  1  0.07581767  0.08804752  0.30194382  1
  O  O491  1  0.87485458  0.78689754  0.30205498  1
  O  O492  1  0.57575324  0.14244617  0.33068707  1
  O  O493  1  0.07401790  0.58611090  0.32879771  1
  O  O494  1  0.37487774  0.34151004  0.30126532  1
  O  O495  1  0.57475263  0.64173930  0.30187777  1
  O  O496  1  0.87383216  0.28782128  0.33009495  1
  O  O497  1  0.17229297  0.16569179  0.32496564  1
  O  O498  1  0.27990879  0.76469312  0.30668923  1
  O  O499  1  0.67070253  0.87299774  0.30687469  1
  O  O500  1  0.78016483  0.05796998  0.32420009  1
  O  O501  1  0.28080530  0.26223865  0.32492962  1
  O  O502  1  0.17068572  0.66630566  0.30679934  1
  O  O503  1  0.77704649  0.55798747  0.30665062  1
  O  O504  1  0.66990982  0.37088004  0.32480366  1
  O  O505  1  0.12474570  0.76517134  0.38899083  1
  O  O506  1  0.82816969  0.55038073  0.39021635  1
  O  O507  1  0.32964750  0.67027421  0.39064467  1
  O  O508  1  0.63247909  0.86680974  0.38886452  1
  O  O509  1  0.54053033  0.25636888  0.48708792  1
  O  O510  1  0.94425317  0.63995032  0.39616601  1
  O  O511  1  0.00380436  0.08693121  0.39543720  1
  O  O512  1  0.50502798  0.78710619  0.39586230  1
  O  O513  1  0.44376020  0.34553518  0.39366540  1
  O  O514  1  0.17611701  0.56260276  0.48474710  1
  O  O515  1  0.25203743  0.37276925  0.40508655  1
  O  O516  1  0.69318920  0.43143749  0.40993862  1
  O  O517  1  0.74456321  0.49931215  0.49105387  1
  O  O518  1  0.22250581  0.90941394  0.48982793  1
  O  O519  1  0.19380277  0.05484143  0.40704190  1
  O  O520  1  0.76181943  0.98458299  0.40783390  1
  O  O521  1  0.72189121  0.93735439  0.49273202  1
  O  O522  1  0.02548135  0.89508772  0.47894950  1
  O  O523  1  0.45521315  0.02335904  0.42369325  1
  O  O524  1  0.52495127  0.44176673  0.42272724  1
  O  O525  1  0.92025905  0.48082952  0.47173123  1
  O  O526  1  0.39449858  0.56987097  0.47312021  1
  O  O527  1  0.02658513  0.37501874  0.41957230  1
  O  O528  1  0.92926848  0.97977033  0.42197957  1
  O  O529  1  0.53094562  0.90785794  0.48329673  1
  O  O530  1  0.89075987  0.82984157  0.45925957  1
  O  O531  1  0.58103788  0.08588341  0.43533799  1
  O  O532  1  0.37312129  0.79601603  0.43379609  1
  O  O533  1  0.07358083  0.15742944  0.45611269  1
  O  O534  1  0.57501693  0.58799705  0.45990067  1
  O  O535  1  0.87560017  0.33830194  0.43377177  1
  O  O536  1  0.06787224  0.65371209  0.42999293  1
  O  O537  1  0.35604783  0.27948251  0.45679879  1
  O  O538  1  0.72419036  0.12759072  0.45788926  1
  O  O539  1  0.76968366  0.77382591  0.43997784  1
  O  O540  1  0.17281092  0.87285018  0.43695347  1
  O  O541  1  0.27865367  0.06735195  0.45859587  1
  O  O542  1  0.80203887  0.25211992  0.46502081  1
  O  O543  1  0.67836136  0.65553261  0.43841917  1
  O  O544  1  0.26838921  0.55974028  0.43577920  1
  O  O545  1  0.14719763  0.38875261  0.45343784  1
  O  O546  1  0.37241343  0.44901610  0.61150788  1
  O  O547  1  0.07174909  0.25121173  0.60908672  1
  O  O548  1  0.57533768  0.35873534  0.61195285  1
  O  O549  1  0.87183521  0.57160272  0.60862501  1
  O  O550  1  0.19018311  0.34247773  0.60777269  1
  O  O551  1  0.25655399  0.77657006  0.60634432  1
  O  O552  1  0.75474689  0.48567795  0.60296901  1
  O  O553  1  0.26575845  0.25092164  0.50654645  1
  O  O554  1  0.69504454  0.04125614  0.60557413  1
  O  O555  1  0.50655587  0.07062107  0.59720737  1
  O  O556  1  0.43364695  0.22607445  0.51640935  1
  O  O557  1  0.97489840  0.18143168  0.50572267  1
  O  O558  1  0.94095665  0.13788220  0.59088894  1
  O  O559  1  0.44684831  0.75737923  0.59074650  1
  O  O560  1  0.53086879  0.53560682  0.51404102  1
  O  O561  1  0.96620472  0.62162569  0.50862133  1
  O  O562  1  0.00853028  0.69405558  0.59095368  1
  O  O563  1  0.66809240  0.75371385  0.57963660  1
  O  O564  1  0.28346013  0.60925488  0.52261475  1
  O  O565  1  0.12873903  0.20344950  0.52065892  1
  O  O566  1  0.78267154  0.13237868  0.57938736  1
  O  O567  1  0.26451468  0.09211736  0.57740040  1
  O  O568  1  0.69740156  0.20582070  0.52204005  1
  O  O569  1  0.77226384  0.65863002  0.52787063  1
  O  O570  1  0.18747711  0.66496596  0.57906209  1
  O  O571  1  0.82765354  0.78838547  0.56551889  1
  O  O572  1  0.12798385  0.54170367  0.54163210  1
  O  O573  1  0.33853876  0.81992481  0.53959684  1
  O  O574  1  0.63192336  0.47150874  0.56931675  1
  O  O575  1  0.12557694  0.03222561  0.56356972  1
  O  O576  1  0.81686961  0.27883262  0.54069879  1
  O  O577  1  0.62701823  0.98416195  0.54525165  1
  O  O578  1  0.32434190  0.32499738  0.57118764  1
  O  O579  1  0.02447714  0.47149901  0.56156771  1
  O  O580  1  0.90827958  0.87718942  0.53730950  1
  O  O581  1  0.56223593  0.70541530  0.53522685  1
  O  O582  1  0.43822571  0.55587516  0.56558275  1
  O  O583  1  0.92479411  0.35548062  0.55866844  1
  O  O584  1  0.02875635  0.95237315  0.54155845  1
  O  O585  1  0.45775698  0.01438612  0.54563500  1
  O  O586  1  0.52068103  0.26410012  0.56278891  1
  O  O587  1  0.87183829  0.45751264  0.74088109  1
  O  O588  1  0.07668526  0.85850706  0.62610270  1
  O  O589  1  0.36735559  0.06357606  0.62815454  1
  O  O590  1  0.57928543  0.25160224  0.74112878  1
  O  O591  1  0.07655311  0.36340176  0.74113039  1
  O  O592  1  0.87239967  0.95894955  0.62825060  1
  O  O593  1  0.58185904  0.74929693  0.62941316  1
  O  O594  1  0.37249579  0.56799039  0.74136834  1
  O  O595  1  0.69713491  0.33753426  0.73648794  1
  O  O596  1  0.24791651  0.98612730  0.63406012  1
  O  O597  1  0.19762044  0.53741698  0.63561602  1
  O  O598  1  0.75496244  0.77894980  0.73713826  1
  O  O599  1  0.25339018  0.48125338  0.73700420  1
  O  O600  1  0.70071095  0.83626637  0.63329931  1
  O  O601  1  0.74945267  0.28704188  0.63375086  1
  O  O602  1  0.19560491  0.03856201  0.73644328  1
  O  O603  1  0.00937549  0.06965048  0.72456871  1
  O  O604  1  0.93852565  0.24753942  0.64362702  1
  O  O605  1  0.51293427  0.17886750  0.64605997  1
  O  O606  1  0.44150560  0.13625744  0.72551562  1
  O  O607  1  0.94018615  0.74942014  0.72485629  1
  O  O608  1  0.00562379  0.58048462  0.64313125  1
  O  O609  1  0.44169249  0.64745209  0.64315249  1
  O  O610  1  0.51019532  0.68162937  0.72460173  1
  O  O611  1  0.17150114  0.74938351  0.71015039  1
  O  O612  1  0.78361978  0.56721595  0.65909757  1
  O  O613  1  0.67271136  0.17777894  0.66012419  1
  O  O614  1  0.27732646  0.14132499  0.70958194  1
  O  O615  1  0.78147265  0.06872208  0.71034320  1
  O  O616  1  0.16230047  0.25627551  0.65897440  1
  O  O617  1  0.28318970  0.63894996  0.65972044  1
  O  O618  1  0.67153409  0.67970496  0.70977340  1
  O  O619  1  0.32504595  0.78496286  0.69921957  1
  O  O620  1  0.62550693  0.53982149  0.67152744  1
  O  O621  1  0.82459819  0.83945450  0.67065170  1
  O  O622  1  0.12389867  0.48541098  0.69917313  1
  O  O623  1  0.62742759  0.03362572  0.69977522  1
  O  O624  1  0.32708276  0.27681329  0.67226106  1
  O  O625  1  0.12275573  0.98392897  0.66908971  1
  O  O626  1  0.82426044  0.33810130  0.69785860  1
  O  O627  1  0.52674509  0.46278362  0.69329232  1
  O  O628  1  0.41915195  0.86526775  0.67587831  1
  O  O629  1  0.02894887  0.75528001  0.67613177  1
  O  O630  1  0.92226269  0.56646799  0.69322471  1
  O  O631  1  0.42100807  0.35955863  0.69469043  1
  O  O632  1  0.53213772  0.95635516  0.67550825  1
  O  O633  1  0.91846428  0.06779614  0.67558763  1
  O  O634  1  0.02672127  0.25332288  0.69325765  1
  O  O635  1  0.37212769  0.45991265  0.87260450  1
  O  O636  1  0.57817828  0.85958530  0.75919080  1
  O  O637  1  0.87265252  0.06747878  0.75939561  1
  O  O638  1  0.08272436  0.25128433  0.87078767  1
  O  O639  1  0.57704184  0.36087164  0.87358328  1
  O  O640  1  0.37078466  0.95988811  0.75925785  1
  O  O641  1  0.07840592  0.75220459  0.75934037  1
  O  O642  1  0.86987216  0.55865757  0.87449897  1
  O  O643  1  0.20037868  0.33662529  0.86573804  1
  O  O644  1  0.75352029  0.98054834  0.76413816  1
  O  O645  1  0.69818254  0.53580720  0.76470257  1
  O  O646  1  0.24975714  0.78357140  0.86625881  1
  O  O647  1  0.74951150  0.48508514  0.86722267  1
  O  O648  1  0.19627358  0.83957234  0.76369319  1
  O  O649  1  0.25270117  0.28190931  0.76400416  1
  O  O650  1  0.69770281  0.03735084  0.86696462  1
  O  O651  1  0.50952397  0.07624558  0.85717068  1
  O  O652  1  0.44128766  0.24999399  0.77568598  1
  O  O653  1  0.00847779  0.18112678  0.77526266  1
  O  O654  1  0.94179924  0.14026301  0.85593506  1
  O  O655  1  0.43837099  0.74736222  0.85566332  1
  O  O656  1  0.51034085  0.57002434  0.77516962  1
  O  O657  1  0.94050603  0.63842689  0.77560007  1
  O  O658  1  0.01060028  0.67892792  0.85616017  1
  O  O659  1  0.66703728  0.75396564  0.84159044  1
  O  O660  1  0.27999426  0.57054330  0.79031494  1
  O  O661  1  0.16907183  0.18153152  0.79015352  1
  O  O662  1  0.78130622  0.13774802  0.84131871  1
  O  O663  1  0.28405747  0.06688021  0.84008712  1
  O  O664  1  0.67098666  0.24933814  0.79043485  1
  O  O665  1  0.77927066  0.64030981  0.79058236  1
  O  O666  1  0.17063666  0.67758446  0.84046028  1
  O  O667  1  0.82584692  0.78089540  0.83140091  1
  O  O668  1  0.12467779  0.53668958  0.80212445  1
  O  O669  1  0.32534548  0.83730020  0.80203976  1
  O  O670  1  0.62452956  0.48144006  0.83054911  1
  O  O671  1  0.12585128  0.03837235  0.82881215  1
  O  O672  1  0.82500430  0.28307464  0.80136502  1
  O  O673  1  0.62541571  0.98293529  0.80180310  1
  O  O674  1  0.32622010  0.33761820  0.82979174  1
  O  O675  1  0.02792446  0.45907560  0.82489840  1
  O  O676  1  0.92011485  0.86004932  0.80664004  1
  O  O677  1  0.52962798  0.75148644  0.80685874  1
  O  O678  1  0.42046358  0.56604217  0.82428737  1
  O  O679  1  0.91961122  0.36220332  0.82485153  1
  O  O680  1  0.02902572  0.95865302  0.80672761  1
  O  O681  1  0.42332073  0.06671149  0.80661591  1
  O  O682  1  0.53114836  0.25291628  0.82469003  1
  O  O683  1  0.07547277  0.85922535  0.88889660  1
  O  O684  1  0.37228803  0.07371356  0.89031663  1
  O  O685  1  0.87084086  0.95410597  0.89052482  1
  O  O686  1  0.56771657  0.75799127  0.88882276  1
  O  O687  1  0.66011093  0.36836393  0.98711296  1
  O  O688  1  0.25655749  0.98393572  0.89603646  1
  O  O689  1  0.19696878  0.53721828  0.89555088  1
  O  O690  1  0.69529336  0.83742101  0.89574249  1
  O  O691  1  0.75631197  0.27904100  0.89370520  1
  O  O692  1  0.02407551  0.06211281  0.98462069  1
  O  O693  1  0.94798604  0.25204488  0.90505096  1
  O  O694  1  0.50720616  0.19277515  0.90985207  1
  O  O695  1  0.45549301  0.12595288  0.99097367  1
  O  O696  1  0.97751926  0.71579636  0.98984357  1
  O  O697  1  0.00708208  0.56954145  0.90700562  1
  O  O698  1  0.43847957  0.63998533  0.90778034  1
  O  O699  1  0.47843855  0.68743040  0.99267595  1
  O  O700  1  0.17442433  0.72974814  0.97911553  1
  O  O701  1  0.74490492  0.60127431  0.92367340  1
  O  O702  1  0.67543633  0.18253576  0.92277922  1
  O  O703  1  0.28035523  0.14341814  0.97177502  1
  O  O704  1  0.80554240  0.05457635  0.97331072  1
  O  O705  1  0.17395345  0.24898800  0.91956943  1
  O  O706  1  0.27077315  0.64506985  0.92198309  1
  O  O707  1  0.67030212  0.71700470  0.98335359  1
  O  O708  1  0.30961688  0.79446035  0.95917454  1
  O  O709  1  0.61929465  0.53846615  0.93520746  1
  O  O710  1  0.82725036  0.82873715  0.93380509  1
  O  O711  1  0.12647735  0.46695629  0.95626411  1
  O  O712  1  0.62522048  0.03664588  0.95991589  1
  O  O713  1  0.32453536  0.28647082  0.93379937  1
  O  O714  1  0.13233000  0.97125961  0.92989867  1
  O  O715  1  0.84411149  0.34538255  0.95677689  1
  O  O716  1  0.47685221  0.49647120  0.95779779  1
  O  O717  1  0.43064546  0.85084845  0.94001139  1
  O  O718  1  0.02802745  0.75108738  0.93701048  1
  O  O719  1  0.92109257  0.55801886  0.95851621  1
  O  O720  1  0.39853344  0.37287935  0.96487172  1
  O  O721  1  0.52183832  0.96929368  0.93835431  1
  O  O722  1  0.93176932  0.06485393  0.93572788  1
  O  O723  1  0.05282488  0.23615252  0.95346820  1
