# generated using pymatgen
data_Li7La3Zr2O12
_symmetry_space_group_name_H-M   'P 1'
_cell_length_a   12.70453900
_cell_length_b   13.20454200
_cell_length_c   42.61694620
_cell_angle_alpha   90.00000000
_cell_angle_beta   90.00000000
_cell_angle_gamma   90.00000000
_symmetry_Int_Tables_number   1
_chemical_formula_structural   Li7La3Zr2O12
_chemical_formula_sum   'Li168 La72 Zr48 O288'
_cell_volume   7149.31741489
_cell_formula_units_Z   24
loop_
 _symmetry_equiv_pos_site_id
 _symmetry_equiv_pos_as_xyz
  1  'x, y, z'
loop_
 _atom_site_type_symbol
 _atom_site_label
 _atom_site_symmetry_multiplicity
 _atom_site_fract_x
 _atom_site_fract_y
 _atom_site_fract_z
 _atom_site_occupancy
  Li  Li0  1  0.91784439  0.88330010  0.01712122  1
  Li  Li1  1  0.53798863  0.03495211  0.98847721  1
  Li  Li2  1  0.09232933  0.40519369  0.01574685  1
  Li  Li3  1  0.42535748  0.56493420  0.02246998  1
  Li  Li4  1  0.59847905  0.65340506  0.01623434  1
  Li  Li5  1  0.93815811  0.31203246  0.03337350  1
  Li  Li6  1  0.08208773  0.80397479  0.00265867  1
  Li  Li7  1  0.45870767  0.14707524  0.03287988  1
  Li  Li8  1  0.70219431  0.86299142  0.04570119  1
  Li  Li9  1  0.78157742  0.00730094  0.03035951  1
  Li  Li10  1  0.01195112  0.59636518  0.01260443  1
  Li  Li11  1  0.25861432  0.50093435  0.03438710  1
  Li  Li12  1  0.88857436  0.20240768  0.07058915  1
  Li  Li13  1  0.65708498  0.71329253  0.07175820  1
  Li  Li14  1  0.38499464  0.23843851  0.07306366  1
  Li  Li15  1  0.13962233  0.71160912  0.07489828  1
  Li  Li16  1  0.33282934  0.06187428  0.09778049  1
  Li  Li17  1  0.21856115  0.89284514  0.09650753  1
  Li  Li18  1  0.83123601  0.37689986  0.09656517  1
  Li  Li19  1  0.71331831  0.55776485  0.09874407  1
  Li  Li20  1  0.47207313  0.31288871  0.12687012  1
  Li  Li21  1  0.07041694  0.63315063  0.12604760  1
  Li  Li22  1  0.96625786  0.14475086  0.12400871  1
  Li  Li23  1  0.58743883  0.81157208  0.11595161  1
  Li  Li24  1  0.40908805  0.89942489  0.12496522  1
  Li  Li25  1  0.13738610  0.05165697  0.12441048  1
  Li  Li26  1  0.66299359  0.40528596  0.12990448  1
  Li  Li27  1  0.88317707  0.54614660  0.12657714  1
  Li  Li28  1  0.37477429  0.41009740  0.17019743  1
  Li  Li29  1  0.16984362  0.54452392  0.17199398  1
  Li  Li30  1  0.63651168  0.90436200  0.16985419  1
  Li  Li31  1  0.89197811  0.04343484  0.17173984  1
  Li  Li32  1  0.07857664  0.14233977  0.17631554  1
  Li  Li33  1  0.46416245  0.80490430  0.17572337  1
  Li  Li34  1  0.57848632  0.30803232  0.17783793  1
  Li  Li35  1  0.96913594  0.64423038  0.17600405  1
  Li  Li36  1  0.21477703  0.38668415  0.20362503  1
  Li  Li37  1  0.33501210  0.56872406  0.20143360  1
  Li  Li38  1  0.71558928  0.05740039  0.20143753  1
  Li  Li39  1  0.82635711  0.88807538  0.20004682  1
  Li  Li40  1  0.39921898  0.72540504  0.22687733  1
  Li  Li41  1  0.14838269  0.22314645  0.22642444  1
  Li  Li42  1  0.89760521  0.72572127  0.22539271  1
  Li  Li43  1  0.64779688  0.22082384  0.22669462  1
  Li  Li44  1  0.83019706  0.56354601  0.25160301  1
  Li  Li45  1  0.71524648  0.38700655  0.25036321  1
  Li  Li46  1  0.32312187  0.89186054  0.25242185  1
  Li  Li47  1  0.21531914  0.05589076  0.25210247  1
  Li  Li48  1  0.96454375  0.79946979  0.27535394  1
  Li  Li49  1  0.57883326  0.13935387  0.27749352  1
  Li  Li50  1  0.46628493  0.63780625  0.27905085  1
  Li  Li51  1  0.09088746  0.31280223  0.27515208  1
  Li  Li52  1  0.87925183  0.40227270  0.28131194  1
  Li  Li53  1  0.64242999  0.54681793  0.28061624  1
  Li  Li54  1  0.12559550  0.89737938  0.28333654  1
  Li  Li55  1  0.38946694  0.04925896  0.28115596  1
  Li  Li56  1  0.91188086  0.90728970  0.32284466  1
  Li  Li57  1  0.62768220  0.04275612  0.32751883  1
  Li  Li58  1  0.19057741  0.42874782  0.33036747  1
  Li  Li59  1  0.36597203  0.54663904  0.33254823  1
  Li  Li60  1  0.57466758  0.64500684  0.33129376  1
  Li  Li61  1  0.99165290  0.31806219  0.32358685  1
  Li  Li62  1  0.08682576  0.80832626  0.33767660  1
  Li  Li63  1  0.46240855  0.14521990  0.33137659  1
  Li  Li64  1  0.71763788  0.89518556  0.35424608  1
  Li  Li65  1  0.82601549  0.06175625  0.35380810  1
  Li  Li66  1  0.19365392  0.63995137  0.36208787  1
  Li  Li67  1  0.35383059  0.34839215  0.35888914  1
  Li  Li68  1  0.90773044  0.23598622  0.37720016  1
  Li  Li69  1  0.65941568  0.72534379  0.38323954  1
  Li  Li70  1  0.39822899  0.21094000  0.38831470  1
  Li  Li71  1  0.19711332  0.79326764  0.39069621  1
  Li  Li72  1  0.28124973  0.97179357  0.41641962  1
  Li  Li73  1  0.05874805  0.86340220  0.43489534  1
  Li  Li74  1  0.82302960  0.41025502  0.41161620  1
  Li  Li75  1  0.72251076  0.57544639  0.40640372  1
  Li  Li76  1  0.25512194  0.25072695  0.44594082  1
  Li  Li77  1  0.10300348  0.65114592  0.42384597  1
  Li  Li78  1  0.97386524  0.12663923  0.44757986  1
  Li  Li79  1  0.52868762  0.83312909  0.45540230  1
  Li  Li80  1  0.29596126  0.73953915  0.46806225  1
  Li  Li81  1  0.12458197  0.05358759  0.43107173  1
  Li  Li82  1  0.64809805  0.39513743  0.43631026  1
  Li  Li83  1  0.81543762  0.47876960  0.49146400  1
  Li  Li84  1  0.11121821  0.82517428  0.51875601  1
  Li  Li85  1  0.48247236  0.65360284  0.48851530  1
  Li  Li86  1  0.92049892  0.29346666  0.51598226  1
  Li  Li87  1  0.65979621  0.13801428  0.52502107  1
  Li  Li88  1  0.42677405  0.06764555  0.51893327  1
  Li  Li89  1  0.07798405  0.38792962  0.53319230  1
  Li  Li90  1  0.94720477  0.89457811  0.50105935  1
  Li  Li91  1  0.56883179  0.54766852  0.53363626  1
  Li  Li92  1  0.33395402  0.87461086  0.53972159  1
  Li  Li93  1  0.25304176  0.70711904  0.53080162  1
  Li  Li94  1  0.01382825  0.10330878  0.51675314  1
  Li  Li95  1  0.72336871  0.29421418  0.54855366  1
  Li  Li96  1  0.13556760  0.49560383  0.57310793  1
  Li  Li97  1  0.36773504  0.98822168  0.57609545  1
  Li  Li98  1  0.64172811  0.46568907  0.57375265  1
  Li  Li99  1  0.88177377  0.98727501  0.57503054  1
  Li  Li100  1  0.68632111  0.63752158  0.59727204  1
  Li  Li101  1  0.80807786  0.81300476  0.59635639  1
  Li  Li102  1  0.19409106  0.32194711  0.60043973  1
  Li  Li103  1  0.30586873  0.15393923  0.60272297  1
  Li  Li104  1  0.56587310  0.39810586  0.62528680  1
  Li  Li105  1  0.94756715  0.05646859  0.62411014  1
  Li  Li106  1  0.05193143  0.56692812  0.62738218  1
  Li  Li107  1  0.44386483  0.88428255  0.62138632  1
  Li  Li108  1  0.63307988  0.80107128  0.62413967  1
  Li  Li109  1  0.85412847  0.65558604  0.62690643  1
  Li  Li110  1  0.39724312  0.30151870  0.63245296  1
  Li  Li111  1  0.11838192  0.15233003  0.62922569  1
  Li  Li112  1  0.61357984  0.29603755  0.67228594  1
  Li  Li113  1  0.88840600  0.15080266  0.67313613  1
  Li  Li114  1  0.35084166  0.79073797  0.67354125  1
  Li  Li115  1  0.15217893  0.66289251  0.67306400  1
  Li  Li116  1  0.94491904  0.56267025  0.67744811  1
  Li  Li117  1  0.54869330  0.88700421  0.67498538  1
  Li  Li118  1  0.44399892  0.39999110  0.68094910  1
  Li  Li119  1  0.05625577  0.05061784  0.67736440  1
  Li  Li120  1  0.80262112  0.30591120  0.70305378  1
  Li  Li121  1  0.69764268  0.13895275  0.70162357  1
  Li  Li122  1  0.31238561  0.63611847  0.70501064  1
  Li  Li123  1  0.18812454  0.81673538  0.70448593  1
  Li  Li124  1  0.62548800  0.97506509  0.72753486  1
  Li  Li125  1  0.87640796  0.47260410  0.72863389  1
  Li  Li126  1  0.12483262  0.97551106  0.72740385  1
  Li  Li127  1  0.37573547  0.47750866  0.72877468  1
  Li  Li128  1  0.19209243  0.13364089  0.75248850  1
  Li  Li129  1  0.31092833  0.31361906  0.75125688  1
  Li  Li130  1  0.70004403  0.80710165  0.75494192  1
  Li  Li131  1  0.80570625  0.64165884  0.75468120  1
  Li  Li132  1  0.05667162  0.90033043  0.77713197  1
  Li  Li133  1  0.44125339  0.55571482  0.77824429  1
  Li  Li134  1  0.55938043  0.06207113  0.78035063  1
  Li  Li135  1  0.94425736  0.38327117  0.78037562  1
  Li  Li136  1  0.14879497  0.29278094  0.78215184  1
  Li  Li137  1  0.36632727  0.15444100  0.78268056  1
  Li  Li138  1  0.89967373  0.79940119  0.78593819  1
  Li  Li139  1  0.61832091  0.65024831  0.78342508  1
  Li  Li140  1  0.10456349  0.79302280  0.82333891  1
  Li  Li141  1  0.40013701  0.65413780  0.82754652  1
  Li  Li142  1  0.86052159  0.28702148  0.83545725  1
  Li  Li143  1  0.67040765  0.15141153  0.83542600  1
  Li  Li144  1  0.45465977  0.05812670  0.83158197  1
  Li  Li145  1  0.04674482  0.38257499  0.83140458  1
  Li  Li146  1  0.93314081  0.88240561  0.84423100  1
  Li  Li147  1  0.56299087  0.54994092  0.83312894  1
  Li  Li148  1  0.30859902  0.80160578  0.85507445  1
  Li  Li149  1  0.20009577  0.64153481  0.85498009  1
  Li  Li150  1  0.83113542  0.03393444  0.86841958  1
  Li  Li151  1  0.66999540  0.33790136  0.86145063  1
  Li  Li152  1  0.12541784  0.46245085  0.88592290  1
  Li  Li153  1  0.37083175  0.96989213  0.88232066  1
  Li  Li154  1  0.61933236  0.48036131  0.88672016  1
  Li  Li155  1  0.81643364  0.83622571  0.90201472  1
  Li  Li156  1  0.69810115  0.72170926  0.93068279  1
  Li  Li157  1  0.97559090  0.82741028  0.93826504  1
  Li  Li158  1  0.23249680  0.27812763  0.92199081  1
  Li  Li159  1  0.30591997  0.09926383  0.91063737  1
  Li  Li160  1  0.66581243  0.40121607  0.94540153  1
  Li  Li161  1  0.92295793  0.00217455  0.91646141  1
  Li  Li162  1  0.04515260  0.57801670  0.94701920  1
  Li  Li163  1  0.51396802  0.83798395  0.96062790  1
  Li  Li164  1  0.73347494  0.96725590  0.96707219  1
  Li  Li165  1  0.88650129  0.65390890  0.93173351  1
  Li  Li166  1  0.41958901  0.32624015  0.93835130  1
  Li  Li167  1  0.23516116  0.21446776  0.99401026  1
  La  La168  1  0.00387658  0.10621087  0.99267062  1
  La  La169  1  0.45634535  0.35117401  0.00333843  1
  La  La170  1  0.27721627  0.00799498  0.03235867  1
  La  La171  1  0.76163502  0.48393949  0.03537192  1
  La  La172  1  0.90257913  0.72598791  0.07071412  1
  La  La173  1  0.41709429  0.72534605  0.06765259  1
  La  La174  1  0.63959492  0.22165505  0.07779158  1
  La  La175  1  0.14320526  0.23383015  0.07018630  1
  La  La176  1  0.77516851  0.97808017  0.10927178  1
  La  La177  1  0.27012128  0.47895643  0.10805252  1
  La  La178  1  0.52015887  0.09601859  0.15081870  1
  La  La179  1  0.02334843  0.35542581  0.15210946  1
  La  La180  1  0.52385216  0.59927277  0.14890449  1
  La  La181  1  0.02561982  0.85341057  0.14797151  1
  La  La182  1  0.77554432  0.47944124  0.18774407  1
  La  La183  1  0.27160941  0.97374253  0.18588996  1
  La  La184  1  0.39657816  0.22562287  0.22582670  1
  La  La185  1  0.89813217  0.22430160  0.22782867  1
  La  La186  1  0.15011718  0.72456632  0.22638673  1
  La  La187  1  0.64771992  0.72670387  0.22585782  1
  La  La188  1  0.27827365  0.47976313  0.26595229  1
  La  La189  1  0.77197680  0.97379402  0.26614540  1
  La  La190  1  0.02606475  0.59530551  0.30400902  1
  La  La191  1  0.52154309  0.84929047  0.30474572  1
  La  La192  1  0.02680601  0.10038459  0.30273570  1
  La  La193  1  0.52586979  0.34980347  0.30123539  1
  La  La194  1  0.27619496  0.97042075  0.34280931  1
  La  La195  1  0.77790259  0.47785347  0.34109747  1
  La  La196  1  0.90624917  0.72810377  0.37495094  1
  La  La197  1  0.41874560  0.71246361  0.39884958  1
  La  La198  1  0.64226792  0.21518210  0.38094864  1
  La  La199  1  0.15556533  0.22257551  0.38036809  1
  La  La200  1  0.77928275  0.96667611  0.42147814  1
  La  La201  1  0.25836317  0.47087921  0.41477252  1
  La  La202  1  0.52570815  0.08843252  0.45653206  1
  La  La203  1  0.02754591  0.34339431  0.45528559  1
  La  La204  1  0.02197020  0.60390558  0.49763547  1
  La  La205  1  0.52860698  0.33792002  0.50191033  1
  La  La206  1  0.74910760  0.69159849  0.53259834  1
  La  La207  1  0.25170910  0.21736533  0.53853401  1
  La  La208  1  0.12414314  0.97635267  0.57302343  1
  La  La209  1  0.60516011  0.98059056  0.56887566  1
  La  La210  1  0.38418829  0.48113140  0.57880287  1
  La  La211  1  0.88348176  0.47416674  0.57463434  1
  La  La212  1  0.25367790  0.72709330  0.60831074  1
  La  La213  1  0.75451641  0.21940389  0.61338134  1
  La  La214  1  0.50326590  0.60936784  0.65240073  1
  La  La215  1  0.00209273  0.34954596  0.65329538  1
  La  La216  1  0.50004431  0.09769183  0.65115923  1
  La  La217  1  0.99927280  0.84324513  0.64999573  1
  La  La218  1  0.25048963  0.22279722  0.68830609  1
  La  La219  1  0.75068655  0.72753119  0.68890988  1
  La  La220  1  0.62779559  0.47487667  0.72827762  1
  La  La221  1  0.12534382  0.47641553  0.72858851  1
  La  La222  1  0.87295149  0.97431633  0.72878673  1
  La  La223  1  0.37686205  0.97300895  0.72807652  1
  La  La224  1  0.74897482  0.22059859  0.76863498  1
  La  La225  1  0.25065948  0.72494081  0.76833829  1
  La  La226  1  0.99811140  0.10258777  0.80517032  1
  La  La227  1  0.50301446  0.85074643  0.80750892  1
  La  La228  1  0.99760448  0.59531600  0.80485871  1
  La  La229  1  0.49949270  0.34656229  0.80344901  1
  La  La230  1  0.74498335  0.72305736  0.84412128  1
  La  La231  1  0.24691583  0.22319845  0.84399746  1
  La  La232  1  0.12307547  0.96196640  0.87716878  1
  La  La233  1  0.60660598  0.97776337  0.90143474  1
  La  La234  1  0.38065996  0.48073542  0.87917747  1
  La  La235  1  0.85799212  0.48301031  0.88364777  1
  La  La236  1  0.25081366  0.73025320  0.92332580  1
  La  La237  1  0.77799744  0.22067828  0.91554441  1
  La  La238  1  0.48893901  0.59130772  0.95807851  1
  La  La239  1  0.97140554  0.37323455  0.96077306  1
  Zr  Zr240  1  0.78827813  0.74506347  0.99052892  1
  Zr  Zr241  1  0.72601969  0.21263265  0.99992619  1
  Zr  Zr242  1  0.02223428  0.97522030  0.06825251  1
  Zr  Zr243  1  0.52381607  0.97526876  0.06939943  1
  Zr  Zr244  1  0.52002536  0.47130979  0.07382458  1
  Zr  Zr245  1  0.01560080  0.47806971  0.07106053  1
  Zr  Zr246  1  0.77424777  0.22370265  0.15137965  1
  Zr  Zr247  1  0.77492748  0.72796477  0.14853003  1
  Zr  Zr248  1  0.26912213  0.22740033  0.14887172  1
  Zr  Zr249  1  0.27399740  0.72467812  0.14745231  1
  Zr  Zr250  1  0.52444228  0.47532511  0.22470827  1
  Zr  Zr251  1  0.02382170  0.47787853  0.22723694  1
  Zr  Zr252  1  0.02196035  0.97182985  0.22598163  1
  Zr  Zr253  1  0.52070320  0.97300113  0.22701128  1
  Zr  Zr254  1  0.27587497  0.72563171  0.30448721  1
  Zr  Zr255  1  0.27570211  0.22793151  0.30342100  1
  Zr  Zr256  1  0.77053337  0.72452633  0.30272376  1
  Zr  Zr257  1  0.77319680  0.21934170  0.30461136  1
  Zr  Zr258  1  0.02125155  0.98073817  0.37878121  1
  Zr  Zr259  1  0.52123245  0.96311043  0.38402383  1
  Zr  Zr260  1  0.53888703  0.47062129  0.37594162  1
  Zr  Zr261  1  0.00991780  0.47806448  0.38292906  1
  Zr  Zr262  1  0.75865115  0.24729719  0.46525940  1
  Zr  Zr263  1  0.85091105  0.74253038  0.45611690  1
  Zr  Zr264  1  0.23181254  0.96819790  0.48959603  1
  Zr  Zr265  1  0.28634373  0.48769427  0.50072168  1
  Zr  Zr266  1  0.00347804  0.72971085  0.57088142  1
  Zr  Zr267  1  0.50044399  0.72668252  0.56837857  1
  Zr  Zr268  1  0.50304126  0.23134492  0.57572697  1
  Zr  Zr269  1  0.00306421  0.22608356  0.57382776  1
  Zr  Zr270  1  0.25132890  0.47923002  0.65229823  1
  Zr  Zr271  1  0.24965229  0.97189012  0.65090757  1
  Zr  Zr272  1  0.75339115  0.47345418  0.65148363  1
  Zr  Zr273  1  0.74952520  0.97273163  0.64939770  1
  Zr  Zr274  1  0.50125478  0.22383626  0.72708141  1
  Zr  Zr275  1  0.00122592  0.22281774  0.72853413  1
  Zr  Zr276  1  0.00078373  0.72613152  0.72818508  1
  Zr  Zr277  1  0.50237658  0.72687657  0.72928480  1
  Zr  Zr278  1  0.75034407  0.97119279  0.80687014  1
  Zr  Zr279  1  0.75092281  0.46924961  0.80558302  1
  Zr  Zr280  1  0.25334671  0.97541743  0.80448206  1
  Zr  Zr281  1  0.24798319  0.47523588  0.80557008  1
  Zr  Zr282  1  0.00616823  0.71488511  0.88070408  1
  Zr  Zr283  1  0.50153603  0.72917426  0.88571621  1
  Zr  Zr284  1  0.48898181  0.22652222  0.87804966  1
  Zr  Zr285  1  0.02607630  0.20828992  0.89038378  1
  Zr  Zr286  1  0.23575451  0.45121885  0.96024300  1
  Zr  Zr287  1  0.17777454  0.95330561  0.95766663  1
  O  O288  1  0.75987956  0.88213228  0.00493558  1
  O  O289  1  0.81046238  0.08980125  0.99274749  1
  O  O290  1  0.10730225  0.50277571  0.98222215  1
  O  O291  1  0.34050790  0.49395193  0.99531406  1
  O  O292  1  0.94086270  0.73797735  0.00799183  1
  O  O293  1  0.57109339  0.19358722  0.00378493  1
  O  O294  1  0.45542067  0.69543566  0.01733737  1
  O  O295  1  0.05631227  0.27109120  0.00308561  1
  O  O296  1  0.45700849  0.00787373  0.02532620  1
  O  O297  1  0.06293167  0.94333904  0.02039649  1
  O  O298  1  0.56771053  0.49470813  0.02503901  1
  O  O299  1  0.94152099  0.45423497  0.02388256  1
  O  O300  1  0.20311545  0.81803649  0.97438052  1
  O  O301  1  0.30006866  0.18229025  0.03686151  1
  O  O302  1  0.74454171  0.66795301  0.03543298  1
  O  O303  1  0.78182338  0.27714277  0.03859508  1
  O  O304  1  0.57093950  0.82814071  0.06495777  1
  O  O305  1  0.99262984  0.12234827  0.05059127  1
  O  O306  1  0.05007129  0.62191487  0.05633173  1
  O  O307  1  0.49322237  0.32186471  0.05852173  1
  O  O308  1  0.87191275  0.91502272  0.05997281  1
  O  O309  1  0.67302313  0.03640060  0.06053244  1
  O  O310  1  0.16004402  0.41732890  0.05585797  1
  O  O311  1  0.37306152  0.53216286  0.06233271  1
  O  O312  1  0.36616517  0.91687626  0.07966954  1
  O  O313  1  0.17793968  0.03580671  0.07984481  1
  O  O314  1  0.67703533  0.41871846  0.08350114  1
  O  O315  1  0.86016459  0.53204726  0.08181718  1
  O  O316  1  0.47767356  0.12305286  0.08542598  1
  O  O317  1  0.06750127  0.83174548  0.08537440  1
  O  O318  1  0.97208102  0.32522868  0.08004368  1
  O  O319  1  0.56715281  0.61536280  0.08907432  1
  O  O320  1  0.80621815  0.17214691  0.10519576  1
  O  O321  1  0.74511121  0.77736439  0.10238752  1
  O  O322  1  0.29374196  0.28492795  0.10346983  1
  O  O323  1  0.24046235  0.67081362  0.10255512  1
  O  O324  1  0.97393528  0.00519584  0.11512917  1
  O  O325  1  0.57359441  0.95581690  0.11827462  1
  O  O326  1  0.07165832  0.49366501  0.11635766  1
  O  O327  1  0.46212327  0.44936980  0.11869335  1
  O  O328  1  0.11398717  0.19437577  0.13157147  1
  O  O329  1  0.42874142  0.75783900  0.13233847  1
  O  O330  1  0.61835137  0.26022486  0.13343452  1
  O  O331  1  0.92908695  0.68921077  0.13132822  1
  O  O332  1  0.32653529  0.07860942  0.14069190  1
  O  O333  1  0.21906972  0.87491719  0.14001768  1
  O  O334  1  0.82623876  0.37420287  0.14077845  1
  O  O335  1  0.72536166  0.57566615  0.14087865  1
  O  O336  1  0.21798766  0.37842847  0.15880310  1
  O  O337  1  0.32287131  0.57309994  0.15710113  1
  O  O338  1  0.72151894  0.07441842  0.15786877  1
  O  O339  1  0.83178741  0.87784331  0.15582194  1
  O  O340  1  0.42153505  0.26350800  0.16634980  1
  O  O341  1  0.12146698  0.68729450  0.16543169  1
  O  O342  1  0.92621098  0.18923522  0.16727827  1
  O  O343  1  0.62257322  0.76043516  0.16504734  1
  O  O344  1  0.96899507  0.50262244  0.18048671  1
  O  O345  1  0.58453773  0.44934623  0.17885073  1
  O  O346  1  0.07558833  0.00106637  0.17919696  1
  O  O347  1  0.46902477  0.94649229  0.17977233  1
  O  O348  1  0.73994491  0.27865929  0.19593215  1
  O  O349  1  0.80869562  0.67341324  0.19390362  1
  O  O350  1  0.23480037  0.17140722  0.19393613  1
  O  O351  1  0.30720744  0.77800724  0.19413401  1
  O  O352  1  0.05731135  0.32880286  0.21025732  1
  O  O353  1  0.48874436  0.62241495  0.20775663  1
  O  O354  1  0.55516549  0.12101532  0.20879782  1
  O  O355  1  0.99002809  0.82649734  0.20828526  1
  O  O356  1  0.37025501  0.42394099  0.21532665  1
  O  O357  1  0.17747583  0.53074520  0.21638070  1
  O  O358  1  0.67366516  0.91954679  0.21490450  1
  O  O359  1  0.86864406  0.02755134  0.21583180  1
  O  O360  1  0.87014057  0.42100577  0.23730360  1
  O  O361  1  0.67758899  0.53123198  0.23646320  1
  O  O362  1  0.17476292  0.91848891  0.23753746  1
  O  O363  1  0.36698441  0.02953635  0.23660105  1
  O  O364  1  0.98592661  0.62257051  0.24277887  1
  O  O365  1  0.55871246  0.32759449  0.24104701  1
  O  O366  1  0.48907779  0.82686579  0.24263085  1
  O  O367  1  0.05793959  0.12016910  0.24301100  1
  O  O368  1  0.30964525  0.66494437  0.25832274  1
  O  O369  1  0.24134691  0.28530221  0.25731678  1
  O  O370  1  0.80597987  0.77818295  0.25708462  1
  O  O371  1  0.73718974  0.16646465  0.25858756  1
  O  O372  1  0.47771785  0.49946873  0.27128197  1
  O  O373  1  0.08227605  0.45296741  0.27290084  1
  O  O374  1  0.57268292  0.99963622  0.27307941  1
  O  O375  1  0.97121710  0.94218274  0.27208474  1
  O  O376  1  0.61824029  0.68948451  0.28610132  1
  O  O377  1  0.92579030  0.26122285  0.28636976  1
  O  O378  1  0.12119632  0.75226670  0.28486299  1
  O  O379  1  0.42872837  0.19281300  0.28502874  1
  O  O380  1  0.82703569  0.57355186  0.29508512  1
  O  O381  1  0.72399412  0.37051925  0.29483408  1
  O  O382  1  0.33288760  0.87399704  0.29592106  1
  O  O383  1  0.22935570  0.07765213  0.29554856  1
  O  O384  1  0.71592161  0.87357771  0.31092146  1
  O  O385  1  0.83455648  0.07191417  0.31036250  1
  O  O386  1  0.22207291  0.57585089  0.31657997  1
  O  O387  1  0.33205268  0.37979317  0.31384105  1
  O  O388  1  0.92585074  0.76020505  0.31894964  1
  O  O389  1  0.61812332  0.18463769  0.31976071  1
  O  O390  1  0.42604965  0.68469562  0.32013347  1
  O  O391  1  0.12567727  0.26229641  0.31869904  1
  O  O392  1  0.47313935  0.00172978  0.33782592  1
  O  O393  1  0.07533117  0.95025716  0.33162259  1
  O  O394  1  0.58388034  0.50031578  0.33273264  1
  O  O395  1  0.95833031  0.44611984  0.33625813  1
  O  O396  1  0.23038874  0.78157691  0.34732831  1
  O  O397  1  0.31748928  0.18321711  0.34866410  1
  O  O398  1  0.73899456  0.67183529  0.34775301  1
  O  O399  1  0.79473218  0.25975745  0.35150193  1
  O  O400  1  0.57406382  0.82784418  0.36687909  1
  O  O401  1  0.98685941  0.12733245  0.36153903  1
  O  O402  1  0.04724419  0.61932273  0.36330190  1
  O  O403  1  0.50099731  0.31925639  0.36331797  1
  O  O404  1  0.86628746  0.92373087  0.36912142  1
  O  O405  1  0.67672576  0.03023144  0.37160060  1
  O  O406  1  0.15745730  0.41475516  0.37281701  1
  O  O407  1  0.38537079  0.51269959  0.37664564  1
  O  O408  1  0.37469292  0.89999024  0.39174061  1
  O  O409  1  0.17596329  0.03755997  0.38808713  1
  O  O410  1  0.67568692  0.40993357  0.39440814  1
  O  O411  1  0.86022316  0.53946645  0.39126455  1
  O  O412  1  0.49308987  0.11254333  0.40286029  1
  O  O413  1  0.05568732  0.83130135  0.38934905  1
  O  O414  1  0.95785110  0.33945938  0.40313791  1
  O  O415  1  0.57806581  0.60678895  0.39657816  1
  O  O416  1  0.73267725  0.13484254  0.43298129  1
  O  O417  1  0.77400809  0.75555136  0.41569560  1
  O  O418  1  0.29925321  0.29838968  0.40682769  1
  O  O419  1  0.24449577  0.66175938  0.40788987  1
  O  O420  1  0.96873749  0.00626695  0.42459593  1
  O  O421  1  0.58381661  0.94107898  0.43184856  1
  O  O422  1  0.07570543  0.50450565  0.42881169  1
  O  O423  1  0.24517317  0.38444053  0.46969242  1
  O  O424  1  0.11365415  0.19716118  0.43871384  1
  O  O425  1  0.43787084  0.72521325  0.45195146  1
  O  O426  1  0.58471131  0.27785464  0.45352590  1
  O  O427  1  0.00281066  0.72636126  0.44937317  1
  O  O428  1  0.35539049  0.06382842  0.47598953  1
  O  O429  1  0.18576278  0.93228388  0.44713286  1
  O  O430  1  0.78451544  0.39076701  0.45445851  1
  O  O431  1  0.82445456  0.62451002  0.48438115  1
  O  O432  1  0.26827125  0.82987476  0.50356429  1
  O  O433  1  0.21272450  0.61720005  0.49402832  1
  O  O434  1  0.90812485  0.21137984  0.47730875  1
  O  O435  1  0.69675659  0.25997481  0.50790100  1
  O  O436  1  0.08274319  0.97051401  0.50982501  1
  O  O437  1  0.44361952  0.50278143  0.50319220  1
  O  O438  1  0.57669047  0.03034910  0.51624718  1
  O  O439  1  0.96967780  0.43484557  0.50301548  1
  O  O440  1  0.56776502  0.68791650  0.52458732  1
  O  O441  1  0.96624177  0.76071669  0.52273298  1
  O  O442  1  0.43615427  0.21577621  0.52734522  1
  O  O443  1  0.07103426  0.24407638  0.52780304  1
  O  O444  1  0.82644825  0.87694928  0.47345522  1
  O  O445  1  0.73326491  0.52059301  0.54020863  1
  O  O446  1  0.28060767  0.02843832  0.53942070  1
  O  O447  1  0.23612798  0.42387007  0.54008861  1
  O  O448  1  0.45743368  0.87648598  0.56327809  1
  O  O449  1  0.03081336  0.57992886  0.55394851  1
  O  O450  1  0.97504972  0.07916186  0.56036655  1
  O  O451  1  0.54118454  0.37602810  0.55699548  1
  O  O452  1  0.15365626  0.78984948  0.56087789  1
  O  O453  1  0.35330653  0.66044961  0.56084915  1
  O  O454  1  0.86346874  0.29470279  0.56097151  1
  O  O455  1  0.65197453  0.17436182  0.56725815  1
  O  O456  1  0.65867429  0.78654431  0.57861256  1
  O  O457  1  0.84726696  0.67055324  0.58148230  1
  O  O458  1  0.34841697  0.28752706  0.58643958  1
  O  O459  1  0.16220918  0.17235604  0.58551918  1
  O  O460  1  0.54792085  0.57767281  0.58431053  1
  O  O461  1  0.95651062  0.87086214  0.58798885  1
  O  O462  1  0.05158098  0.37650821  0.58506008  1
  O  O463  1  0.46009224  0.08635255  0.59021588  1
  O  O464  1  0.22419604  0.53030521  0.60618531  1
  O  O465  1  0.28243266  0.91959102  0.60550731  1
  O  O466  1  0.72016631  0.41511574  0.60651527  1
  O  O467  1  0.78365046  0.02557492  0.60433802  1
  O  O468  1  0.06097504  0.70268267  0.61651720  1
  O  O469  1  0.45285554  0.74227617  0.61713849  1
  O  O470  1  0.95278341  0.20112270  0.62013813  1
  O  O471  1  0.55040824  0.25801676  0.62140227  1
  O  O472  1  0.90648612  0.51265536  0.63330575  1
  O  O473  1  0.59370417  0.93884869  0.63338758  1
  O  O474  1  0.40875754  0.44749314  0.63482332  1
  O  O475  1  0.09608198  0.00753426  0.63318687  1
  O  O476  1  0.70063530  0.62364534  0.64089764  1
  O  O477  1  0.79959270  0.82185394  0.64053390  1
  O  O478  1  0.19369779  0.32987012  0.64413671  1
  O  O479  1  0.30567940  0.12187981  0.64403863  1
  O  O480  1  0.81060560  0.32509143  0.65953538  1
  O  O481  1  0.69491936  0.12318434  0.65780138  1
  O  O482  1  0.30417247  0.63026050  0.66041248  1
  O  O483  1  0.19707574  0.82146184  0.65983631  1
  O  O484  1  0.60060257  0.44185393  0.66843438  1
  O  O485  1  0.90359895  0.00760520  0.66610316  1
  O  O486  1  0.09948684  0.51659814  0.66838518  1
  O  O487  1  0.40103528  0.93367419  0.66749468  1
  O  O488  1  0.05082961  0.19370035  0.68154487  1
  O  O489  1  0.44722332  0.25603726  0.68050516  1
  O  O490  1  0.94337331  0.70211363  0.68153958  1
  O  O491  1  0.55923661  0.74964046  0.68277022  1
  O  O492  1  0.28634287  0.42427052  0.69706182  1
  O  O493  1  0.21410557  0.02785070  0.69599503  1
  O  O494  1  0.78771254  0.52940478  0.69643053  1
  O  O495  1  0.71989936  0.91999751  0.69600639  1
  O  O496  1  0.97038115  0.37142860  0.71133400  1
  O  O497  1  0.53342295  0.07725910  0.70941741  1
  O  O498  1  0.46659370  0.57880706  0.71151518  1
  O  O499  1  0.03500731  0.87251580  0.71084738  1
  O  O500  1  0.65421437  0.27711471  0.71642943  1
  O  O501  1  0.84861122  0.16839257  0.71701180  1
  O  O502  1  0.34816813  0.77866329  0.71852022  1
  O  O503  1  0.15458514  0.67220256  0.71807241  1
  O  O504  1  0.15525252  0.27775971  0.73791635  1
  O  O505  1  0.34751378  0.16932727  0.73772813  1
  O  O506  1  0.84844217  0.77943709  0.74001630  1
  O  O507  1  0.65535634  0.66889206  0.73956055  1
  O  O508  1  0.03811227  0.07793567  0.74548154  1
  O  O509  1  0.46530516  0.37201900  0.74297172  1
  O  O510  1  0.53425948  0.87347639  0.74453508  1
  O  O511  1  0.96788450  0.57774463  0.74487801  1
  O  O512  1  0.71689767  0.03388646  0.76034190  1
  O  O513  1  0.78365676  0.41357466  0.75982931  1
  O  O514  1  0.21654068  0.92295109  0.75896791  1
  O  O515  1  0.28476218  0.53074342  0.76000074  1
  O  O516  1  0.55316407  0.20130480  0.77297842  1
  O  O517  1  0.94407668  0.24489664  0.77468968  1
  O  O518  1  0.45376777  0.69668262  0.77582035  1
  O  O519  1  0.05364463  0.75684528  0.77424586  1
  O  O520  1  0.40491913  0.01204432  0.78812158  1
  O  O521  1  0.09671242  0.43246719  0.78849093  1
  O  O522  1  0.90359119  0.94541267  0.78616312  1
  O  O523  1  0.59653931  0.50390078  0.78766891  1
  O  O524  1  0.19980874  0.12842018  0.79663365  1
  O  O525  1  0.30141767  0.32564295  0.79574284  1
  O  O526  1  0.68987187  0.82415060  0.79786462  1
  O  O527  1  0.80308287  0.61847554  0.79788261  1
  O  O528  1  0.30728406  0.82655526  0.81212005  1
  O  O529  1  0.18844605  0.62287978  0.81213295  1
  O  O530  1  0.81136529  0.11779547  0.81988421  1
  O  O531  1  0.70121014  0.31735901  0.81657573  1
  O  O532  1  0.09641242  0.94199206  0.82118801  1
  O  O533  1  0.40168719  0.51148319  0.82105500  1
  O  O534  1  0.60075801  0.01614353  0.82157289  1
  O  O535  1  0.90131439  0.43257967  0.82242360  1
  O  O536  1  0.55122480  0.69397205  0.83881495  1
  O  O537  1  0.95630071  0.74645695  0.83358218  1
  O  O538  1  0.43748404  0.19941808  0.83506451  1
  O  O539  1  0.06397114  0.24237858  0.84189302  1
  O  O540  1  0.79030294  0.90901098  0.84954227  1
  O  O541  1  0.70701701  0.52381470  0.85001668  1
  O  O542  1  0.28228572  0.02538771  0.84995277  1
  O  O543  1  0.21907605  0.42370313  0.85187326  1
  O  O544  1  0.45281697  0.86605908  0.86692249  1
  O  O545  1  0.04244989  0.56773689  0.86623555  1
  O  O546  1  0.97412258  0.07610702  0.87584584  1
  O  O547  1  0.52534661  0.37890378  0.86121190  1
  O  O548  1  0.16023977  0.77833994  0.87078268  1
  O  O549  1  0.34614076  0.66748727  0.87172560  1
  O  O550  1  0.89777694  0.30105532  0.88052971  1
  O  O551  1  0.64403090  0.19064546  0.87779618  1
  O  O552  1  0.64772568  0.79138634  0.89521512  1
  O  O553  1  0.85026823  0.66957209  0.88867275  1
  O  O554  1  0.36629578  0.30147284  0.89911459  1
  O  O555  1  0.17897604  0.16584754  0.89657698  1
  O  O556  1  0.52710327  0.57853687  0.90258718  1
  O  O557  1  0.96521294  0.86621927  0.89150265  1
  O  O558  1  0.12904705  0.38691975  0.92593465  1
  O  O559  1  0.44941112  0.08884049  0.89659633  1
  O  O560  1  0.30004208  0.55223895  0.93040979  1
  O  O561  1  0.25659241  0.94494195  0.91708050  1
  O  O562  1  0.71631997  0.38839275  0.90452465  1
  O  O563  1  0.77551215  0.03580086  0.91230775  1
  O  O564  1  0.05957357  0.69998196  0.92689103  1
  O  O565  1  0.43735269  0.74942896  0.93217884  1
  O  O566  1  0.96334999  0.20565416  0.93590537  1
  O  O567  1  0.76626879  0.31110613  0.96735735  1
  O  O568  1  0.91403581  0.51481512  0.93711527  1
  O  O569  1  0.58638476  0.96031365  0.95340054  1
  O  O570  1  0.52188308  0.41024885  0.95665510  1
  O  O571  1  0.02869174  0.96959577  0.94776230  1
  O  O572  1  0.65394692  0.66921526  0.97188640  1
  O  O573  1  0.82979637  0.77883672  0.94611617  1
  O  O574  1  0.30324000  0.31001906  0.96597059  1
  O  O575  1  0.20519112  0.07627167  0.98336650  1
