# generated using pymatgen
data_Li26La10Zr5O38
_symmetry_space_group_name_H-M   'P 1'
_cell_length_a   18.66058700
_cell_length_b   13.19488265
_cell_length_c   44.24793066
_cell_angle_alpha   90.00000000
_cell_angle_beta   90.00000000
_cell_angle_gamma   45.00062637
_symmetry_Int_Tables_number   1
_chemical_formula_structural   Li26La10Zr5O38
_chemical_formula_sum   'Li208 La80 Zr40 O304'
_cell_volume   7703.95164275
_cell_formula_units_Z   8
loop_
 _symmetry_equiv_pos_site_id
 _symmetry_equiv_pos_as_xyz
  1  'x, y, z'
loop_
 _atom_site_type_symbol
 _atom_site_label
 _atom_site_symmetry_multiplicity
 _atom_site_fract_x
 _atom_site_fract_y
 _atom_site_fract_z
 _atom_site_occupancy
  Li  Li0  1  0.10084758  0.16355275  0.09024165  1
  Li  Li1  1  0.74905137  0.73509172  0.13380779  1
  Li  Li2  1  0.06420048  0.91403074  0.12031342  1
  Li  Li3  1  0.62682270  0.05171532  0.05607503  1
  Li  Li4  1  0.22289562  0.18941096  0.07014136  1
  Li  Li5  1  0.57541996  0.62095593  0.12547318  1
  Li  Li6  1  0.25215164  0.48739218  0.12600655  1
  Li  Li7  1  0.60236419  0.42458251  0.07807873  1
  Li  Li8  1  0.49104178  0.67825686  0.07837131  1
  Li  Li9  1  0.69028166  0.19397395  0.01628655  1
  Li  Li10  1  0.01562822  0.51232608  0.00746815  1
  Li  Li11  1  0.28419851  0.31117594  0.10125450  1
  Li  Li12  1  0.81912924  0.74916603  0.09128082  1
  Li  Li13  1  0.56811055  0.17573014  0.00087778  1
  Li  Li14  1  0.35257514  0.96995224  0.99735847  1
  Li  Li15  1  0.99628761  0.10248747  0.08332333  1
  Li  Li16  1  0.32000551  0.94205005  0.04791875  1
  Li  Li17  1  0.02268651  0.96445449  0.04891860  1
  Li  Li18  1  0.79270335  0.67578453  0.03167932  1
  Li  Li19  1  0.37335835  0.36558742  0.02987747  1
  Li  Li20  1  0.99127923  0.47325924  0.05423247  1
  Li  Li21  1  0.11919887  0.55772522  0.01813944  1
  Li  Li22  1  0.49061642  0.76906845  0.02492327  1
  Li  Li23  1  0.83553471  0.14614925  0.04300892  1
  Li  Li24  1  0.13395737  0.22722276  0.01481646  1
  Li  Li25  1  0.02805238  0.82624532  0.99767617  1
  Li  Li26  1  0.63381198  0.70031354  0.99283041  1
  Li  Li27  1  0.65108108  0.20592941  0.06715406  1
  Li  Li28  1  0.57485344  0.11247605  0.23656607  1
  Li  Li29  1  0.23684349  0.77792452  0.26710526  1
  Li  Li30  1  0.57698971  0.94892282  0.26589873  1
  Li  Li31  1  0.23668510  0.95517037  0.23209545  1
  Li  Li32  1  0.73690224  0.27796387  0.23290443  1
  Li  Li33  1  0.07478357  0.61267423  0.26333451  1
  Li  Li34  1  0.73670097  0.45516085  0.26791257  1
  Li  Li35  1  0.07693473  0.44903953  0.23405427  1
  Li  Li36  1  0.98411932  0.70544191  0.20765123  1
  Li  Li37  1  0.33903875  0.19015668  0.15138068  1
  Li  Li38  1  0.48401783  0.55282300  0.12982426  1
  Li  Li39  1  0.83584577  0.33967446  0.21816000  1
  Li  Li40  1  0.33767120  0.69674187  0.21737683  1
  Li  Li41  1  0.98737436  0.20306846  0.13673930  1
  Li  Li42  1  0.82506539  0.85078718  0.13397526  1
  Li  Li43  1  0.47972075  0.05135115  0.21171855  1
  Li  Li44  1  0.81479485  0.96260541  0.19224953  1
  Li  Li45  1  0.49144013  0.93519469  0.16279486  1
  Li  Li46  1  0.32800018  0.60766038  0.15879907  1
  Li  Li47  1  0.99100258  0.28124023  0.19423495  1
  Li  Li48  1  0.48838172  0.45584996  0.19046544  1
  Li  Li49  1  0.82655112  0.45471398  0.16373092  1
  Li  Li50  1  0.97984643  0.80078689  0.15751715  1
  Li  Li51  1  0.31638082  0.11780308  0.19803697  1
  Li  Li52  1  0.65462005  0.19953497  0.21363912  1
  Li  Li53  1  0.65211449  0.69936419  0.14499056  1
  Li  Li54  1  0.15392351  0.70368483  0.14308530  1
  Li  Li55  1  0.15522707  0.20066208  0.21467902  1
  Li  Li56  1  0.07540985  0.12098428  0.37454040  1
  Li  Li57  1  0.72280633  0.68950852  0.42986882  1
  Li  Li58  1  0.10236886  0.92453669  0.42193550  1
  Li  Li59  1  0.75202330  0.98748296  0.37399026  1
  Li  Li60  1  0.24891399  0.23578159  0.36619735  1
  Li  Li61  1  0.60089329  0.66357132  0.40978788  1
  Li  Li62  1  0.12702372  0.55120959  0.44373649  1
  Li  Li63  1  0.56419397  0.41403358  0.37967128  1
  Li  Li64  1  0.48770009  0.70338586  0.36323583  1
  Li  Li65  1  0.83765178  0.19678859  0.28263256  1
  Li  Li66  1  0.97931961  0.55174428  0.28819243  1
  Li  Li67  1  0.32505295  0.35083403  0.36603099  1
  Li  Li68  1  0.83916436  0.69049598  0.34825707  1
  Li  Li69  1  0.48362755  0.20561952  0.29199848  1
  Li  Li70  1  0.33579947  0.83971383  0.28183285  1
  Li  Li71  1  0.98405648  0.05278382  0.37019095  1
  Li  Li72  1  0.32649823  0.95477843  0.33627672  1
  Li  Li73  1  0.98833694  0.95594897  0.30954070  1
  Li  Li74  1  0.81601550  0.61818725  0.30192946  1
  Li  Li75  1  0.47987463  0.30082266  0.34225950  1
  Li  Li76  1  0.99142129  0.43524028  0.33720989  1
  Li  Li77  1  0.31476230  0.46264661  0.30775073  1
  Li  Li78  1  0.49066858  0.78150625  0.30575026  1
  Li  Li79  1  0.82797091  0.10774015  0.34120573  1
  Li  Li80  1  0.15212679  0.19940477  0.35502884  1
  Li  Li81  1  0.15458728  0.69965597  0.28637631  1
  Li  Li82  1  0.65518657  0.70067223  0.28533187  1
  Li  Li83  1  0.65390246  0.20384301  0.35692324  1
  Li  Li84  1  0.06746445  0.67650457  0.49871370  1
  Li  Li85  1  0.31928457  0.24906013  0.40876431  1
  Li  Li86  1  0.49627808  0.60276632  0.41631449  1
  Li  Li87  1  0.85245845  0.47017720  0.50265276  1
  Li  Li88  1  0.19029885  0.69389726  0.48377983  1
  Li  Li89  1  0.99102305  0.17830641  0.42163458  1
  Li  Li90  1  0.78415253  0.81121643  0.39872394  1
  Li  Li91  1  0.51527813  0.01288242  0.49255152  1
  Li  Li92  1  0.61809102  0.05985728  0.48190320  1
  Li  Li93  1  0.49134824  0.97322604  0.44577117  1
  Li  Li94  1  0.33478012  0.64667100  0.45680143  1
  Li  Li95  1  0.99054178  0.26919994  0.47507931  1
  Li  Li96  1  0.52237134  0.46569276  0.45094861  1
  Li  Li97  1  0.81998193  0.44207165  0.45208547  1
  Li  Li98  1  0.87245443  0.86679259  0.46999151  1
  Li  Li99  1  0.29322987  0.17540246  0.46831231  1
  Li  Li100  1  0.52768071  0.32780426  0.50206511  1
  Li  Li101  1  0.63360586  0.72657976  0.48518892  1
  Li  Li102  1  0.15104385  0.70572057  0.43297128  1
  Li  Li103  1  0.13368126  0.20065766  0.50711418  1
  Li  Li104  1  0.67731365  0.43809727  0.59086762  1
  Li  Li105  1  0.02724589  0.86274533  0.63375401  1
  Li  Li106  1  0.70867994  0.68428191  0.62097930  1
  Li  Li107  1  0.14311131  0.55693628  0.55611779  1
  Li  Li108  1  0.56109811  0.40853714  0.56883852  1
  Li  Li109  1  0.19861280  0.97847182  0.62546542  1
  Li  Li110  1  0.52492051  0.11345020  0.62533109  1
  Li  Li111  1  0.16981141  0.17715709  0.57781615  1
  Li  Li112  1  0.28395654  0.92103440  0.57849166  1
  Li  Li113  1  0.08242856  0.40693993  0.51665120  1
  Li  Li114  1  0.76989110  0.07332319  0.50855910  1
  Li  Li115  1  0.49247702  0.28670269  0.59909034  1
  Li  Li116  1  0.95250289  0.85545353  0.59064650  1
  Li  Li117  1  0.20471887  0.42475490  0.50201129  1
  Li  Li118  1  0.42532041  0.62907498  0.49754844  1
  Li  Li119  1  0.78081748  0.49680153  0.58379134  1
  Li  Li120  1  0.45950345  0.65294201  0.54710003  1
  Li  Li121  1  0.75317089  0.63086493  0.54872841  1
  Li  Li122  1  0.97663087  0.93113600  0.53182833  1
  Li  Li123  1  0.40706447  0.22592710  0.52935068  1
  Li  Li124  1  0.78509548  0.13109962  0.55514162  1
  Li  Li125  1  0.63276842  0.08612031  0.53952927  1
  Li  Li126  1  0.28510276  0.82865580  0.52489422  1
  Li  Li127  1  0.94072493  0.45338053  0.54399609  1
  Li  Li128  1  0.64850615  0.32983454  0.50852252  1
  Li  Li129  1  0.73349081  0.79391905  0.49569099  1
  Li  Li130  1  0.14137782  0.89871747  0.49238636  1
  Li  Li131  1  0.12275168  0.39656279  0.56698001  1
  Li  Li132  1  0.20024620  0.48723371  0.73699920  1
  Li  Li133  1  0.53814969  0.82389397  0.76761962  1
  Li  Li134  1  0.19714943  0.65268989  0.76588120  1
  Li  Li135  1  0.53833462  0.64403058  0.73203588  1
  Li  Li136  1  0.03813207  0.32392021  0.73240401  1
  Li  Li137  1  0.70023340  0.98762178  0.76311266  1
  Li  Li138  1  0.03824572  0.14417449  0.76799072  1
  Li  Li139  1  0.69720527  0.15260785  0.73416319  1
  Li  Li140  1  0.79105491  0.89495564  0.70799866  1
  Li  Li141  1  0.43777233  0.40553609  0.64984686  1
  Li  Li142  1  0.29029363  0.04704477  0.62933483  1
  Li  Li143  1  0.93954716  0.26026674  0.71879389  1
  Li  Li144  1  0.43771773  0.90221792  0.71826325  1
  Li  Li145  1  0.78782614  0.39779163  0.63760050  1
  Li  Li146  1  0.95097627  0.74734985  0.63372473  1
  Li  Li147  1  0.29440966  0.54969981  0.71130379  1
  Li  Li148  1  0.96009257  0.63714260  0.69267155  1
  Li  Li149  1  0.28436937  0.66286221  0.66260211  1
  Li  Li150  1  0.44780328  0.99168650  0.65823680  1
  Li  Li151  1  0.78320227  0.31878711  0.69470243  1
  Li  Li152  1  0.28961934  0.13986073  0.68972952  1
  Li  Li153  1  0.94796571  0.14627500  0.66410167  1
  Li  Li154  1  0.79545932  0.79872311  0.65803355  1
  Li  Li155  1  0.45823622  0.48194820  0.69715518  1
  Li  Li156  1  0.12074963  0.39972662  0.71364326  1
  Li  Li157  1  0.12302545  0.90082509  0.64531247  1
  Li  Li158  1  0.62104492  0.89654976  0.64302622  1
  Li  Li159  1  0.61936017  0.39890237  0.71440383  1
  Li  Li160  1  0.69882213  0.47877238  0.87473124  1
  Li  Li161  1  0.06137854  0.90809197  0.93119607  1
  Li  Li162  1  0.67241753  0.67442798  0.92189937  1
  Li  Li163  1  0.02503551  0.61340867  0.87466386  1
  Li  Li164  1  0.52728276  0.36272445  0.86626482  1
  Li  Li165  1  0.17739665  0.93795831  0.90915450  1
  Li  Li166  1  0.64546291  0.05298991  0.94337969  1
  Li  Li167  1  0.20871979  0.18425100  0.87903774  1
  Li  Li168  1  0.28817115  0.89736088  0.86239925  1
  Li  Li169  1  0.93777375  0.40194078  0.78177850  1
  Li  Li170  1  0.79485999  0.04935584  0.78873598  1
  Li  Li171  1  0.45098826  0.24738259  0.86626315  1
  Li  Li172  1  0.93800478  0.90515842  0.85016987  1
  Li  Li173  1  0.29105355  0.39498508  0.79200134  1
  Li  Li174  1  0.43959729  0.76024020  0.78117503  1
  Li  Li175  1  0.79120108  0.54623585  0.87039565  1
  Li  Li176  1  0.44811521  0.64613813  0.83592383  1
  Li  Li177  1  0.78960307  0.63993027  0.81026867  1
  Li  Li178  1  0.95846110  0.98192473  0.80288520  1
  Li  Li179  1  0.29549335  0.29883218  0.84192273  1
  Li  Li180  1  0.78443310  0.16282072  0.83740522  1
  Li  Li181  1  0.45996424  0.13733928  0.80736627  1
  Li  Li182  1  0.28371090  0.81830157  0.80518774  1
  Li  Li183  1  0.94791310  0.49168373  0.84178572  1
  Li  Li184  1  0.62308829  0.40081169  0.85471871  1
  Li  Li185  1  0.62074692  0.89974489  0.78637620  1
  Li  Li186  1  0.11937389  0.89891374  0.78562604  1
  Li  Li187  1  0.12121817  0.39637308  0.85700725  1
  Li  Li188  1  0.70491890  0.92457644  0.99789938  1
  Li  Li189  1  0.45268158  0.35525922  0.90933589  1
  Li  Li190  1  0.28078868  0.99689804  0.91621215  1
  Li  Li191  1  0.92634796  0.12814898  0.00228343  1
  Li  Li192  1  0.58289759  0.90623271  0.98326620  1
  Li  Li193  1  0.78445597  0.42019280  0.92160709  1
  Li  Li194  1  0.99249551  0.78653557  0.90101646  1
  Li  Li195  1  0.27021900  0.57276624  0.99139865  1
  Li  Li196  1  0.13328394  0.58536009  0.96057859  1
  Li  Li197  1  0.28515861  0.63103764  0.94486952  1
  Li  Li198  1  0.44085903  0.95331770  0.95603579  1
  Li  Li199  1  0.78532884  0.32840528  0.97514120  1
  Li  Li200  1  0.25377990  0.13071181  0.95122460  1
  Li  Li201  1  0.95975994  0.15263869  0.95285076  1
  Li  Li202  1  0.90682331  0.72618733  0.97075335  1
  Li  Li203  1  0.47705443  0.43048635  0.96813989  1
  Li  Li204  1  0.23585723  0.29134728  0.00403212  1
  Li  Li205  1  0.14854331  0.82971621  0.99148071  1
  Li  Li206  1  0.62276273  0.89639016  0.93302509  1
  Li  Li207  1  0.64141772  0.39870455  0.00761883  1
  La  La208  1  0.26899912  0.82541083  0.10647981  1
  La  La209  1  0.53060891  0.06410628  0.11055653  1
  La  La210  1  0.04515021  0.57446301  0.10303913  1
  La  La211  1  0.78224332  0.33568215  0.10879900  1
  La  La212  1  0.65524769  0.69881398  0.07346960  1
  La  La213  1  0.17143812  0.67408081  0.06886467  1
  La  La214  1  0.89422764  0.36050479  0.03175887  1
  La  La215  1  0.43260246  0.53778000  0.03107680  1
  La  La216  1  0.42965328  0.05466254  0.03800786  1
  La  La217  1  0.87884021  0.82984540  0.03509768  1
  La  La218  1  0.78989537  0.81968907  0.25017124  1
  La  La219  1  0.03076458  0.07485954  0.24921343  1
  La  La220  1  0.53074782  0.57487325  0.25081743  1
  La  La221  1  0.28981140  0.31960712  0.24979808  1
  La  La222  1  0.16140904  0.69891401  0.21374880  1
  La  La223  1  0.15947470  0.20715505  0.14515478  1
  La  La224  1  0.65785353  0.20892950  0.14009834  1
  La  La225  1  0.65963678  0.69435924  0.21556233  1
  La  La226  1  0.41472759  0.31638320  0.17861288  1
  La  La227  1  0.91695620  0.57354398  0.18028319  1
  La  La228  1  0.90672925  0.08177099  0.17662167  1
  La  La229  1  0.40487450  0.81594587  0.17829913  1
  La  La230  1  0.28225605  0.83579493  0.39126536  1
  La  La231  1  0.54518009  0.07455795  0.39696857  1
  La  La232  1  0.03032772  0.56440529  0.38941117  1
  La  La233  1  0.76904169  0.32552065  0.39351294  1
  La  La234  1  0.65952716  0.70739980  0.35485476  1
  La  La235  1  0.66131672  0.19903126  0.28624480  1
  La  La236  1  0.15959993  0.19442600  0.28446306  1
  La  La237  1  0.15782323  0.70889332  0.35995001  1
  La  La238  1  0.90484343  0.31607276  0.32171916  1
  La  La239  1  0.40664942  0.58195120  0.32341281  1
  La  La240  1  0.41688959  0.07372406  0.31971835  1
  La  La241  1  0.91469101  0.81661193  0.32136644  1
  La  La242  1  0.15497470  0.19933317  0.42655640  1
  La  La243  1  0.67114571  0.17465802  0.43109236  1
  La  La244  1  0.37876898  0.33007213  0.46493316  1
  La  La245  1  0.92897657  0.55557206  0.46205365  1
  La  La246  1  0.93245026  0.03808437  0.46890362  1
  La  La247  1  0.39390678  0.86096951  0.46820994  1
  La  La248  1  0.50462712  0.77344894  0.60619021  1
  La  La249  1  0.24514536  0.53503329  0.61039331  1
  La  La250  1  0.73264315  0.02268966  0.60431724  1
  La  La251  1  0.99213854  0.26407134  0.60894737  1
  La  La252  1  0.11880543  0.90147527  0.57332087  1
  La  La253  1  0.60418142  0.92150196  0.56891663  1
  La  La254  1  0.88278999  0.23798768  0.53148291  1
  La  La255  1  0.34033277  0.06313039  0.53102104  1
  La  La256  1  0.34549824  0.54499930  0.53804314  1
  La  La257  1  0.89042147  0.77271752  0.53491902  1
  La  La258  1  0.98486204  0.78060601  0.75033721  1
  La  La259  1  0.74361555  0.52556733  0.74923254  1
  La  La260  1  0.24362339  0.02552620  0.75083401  1
  La  La261  1  0.48484026  0.28067992  0.74970068  1
  La  La262  1  0.61319424  0.90081488  0.71367660  1
  La  La263  1  0.61577735  0.39266834  0.64465526  1
  La  La264  1  0.11722735  0.39104955  0.64000388  1
  La  La265  1  0.11509814  0.90549455  0.71558533  1
  La  La266  1  0.36074280  0.28283795  0.67839932  1
  La  La267  1  0.85866031  0.02570101  0.68041371  1
  La  La268  1  0.86834406  0.51798255  0.67679955  1
  La  La269  1  0.36965774  0.78437052  0.67815280  1
  La  La270  1  0.49248441  0.76414863  0.89121261  1
  La  La271  1  0.23272746  0.52262114  0.89574812  1
  La  La272  1  0.74544271  0.03513053  0.88956674  1
  La  La273  1  0.00479257  0.27330857  0.89387017  1
  La  La274  1  0.11594421  0.89250402  0.85538432  1
  La  La275  1  0.11318472  0.40073743  0.78637263  1
  La  La276  1  0.61511593  0.40547065  0.78446243  1
  La  La277  1  0.61726861  0.89109102  0.86000077  1
  La  La278  1  0.86967612  0.28425636  0.82190277  1
  La  La279  1  0.36842732  0.01787756  0.82326104  1
  La  La280  1  0.35867313  0.52568324  0.81963874  1
  La  La281  1  0.86076874  0.78280047  0.82162930  1
  La  La282  1  0.61899808  0.40125691  0.92668215  1
  La  La283  1  0.10427569  0.42143556  0.93113450  1
  La  La284  1  0.39140340  0.27188228  0.96493909  1
  La  La285  1  0.84541396  0.04503544  0.96199128  1
  La  La286  1  0.84062817  0.56279547  0.96903539  1
  La  La287  1  0.38280204  0.73787828  0.96853350  1
  Zr  Zr288  1  0.40154379  0.94291659  0.10592319  1
  Zr  Zr289  1  0.41897158  0.42899333  0.10218465  1
  Zr  Zr290  1  0.91304790  0.46108466  0.10748491  1
  Zr  Zr291  1  0.89355608  0.96698084  0.10082082  1
  Zr  Zr292  1  0.90910493  0.94925874  0.24921977  1
  Zr  Zr293  1  0.90848076  0.44565237  0.25018675  1
  Zr  Zr294  1  0.40906203  0.44929564  0.25077913  1
  Zr  Zr295  1  0.40846560  0.94570873  0.24982435  1
  Zr  Zr296  1  0.66042747  0.94147594  0.17923927  1
  Zr  Zr297  1  0.15399678  0.95362330  0.17664002  1
  Zr  Zr298  1  0.65505357  0.45148475  0.17925836  1
  Zr  Zr299  1  0.16161355  0.45174740  0.17795280  1
  Zr  Zr300  1  0.41298885  0.96134537  0.39249789  1
  Zr  Zr301  1  0.39358900  0.46697688  0.39917983  1
  Zr  Zr302  1  0.90140913  0.44319057  0.39410208  1
  Zr  Zr303  1  0.91886982  0.92917455  0.39780645  1
  Zr  Zr304  1  0.15505286  0.95148125  0.32077581  1
  Zr  Zr305  1  0.66139691  0.95212370  0.32199435  1
  Zr  Zr306  1  0.16022143  0.44179801  0.32072028  1
  Zr  Zr307  1  0.65397730  0.45375316  0.32337471  1
  Zr  Zr308  1  0.37292865  0.65630464  0.60574439  1
  Zr  Zr309  1  0.35625430  0.17029135  0.60195628  1
  Zr  Zr310  1  0.86318785  0.14017035  0.60810466  1
  Zr  Zr311  1  0.87996817  0.63397267  0.60114664  1
  Zr  Zr312  1  0.86535533  0.65114571  0.74938137  1
  Zr  Zr313  1  0.86676264  0.15352700  0.75044582  1
  Zr  Zr314  1  0.36534563  0.15114650  0.75066660  1
  Zr  Zr315  1  0.36684094  0.65336824  0.74957479  1
  Zr  Zr316  1  0.11464794  0.65746549  0.67926936  1
  Zr  Zr317  1  0.62032697  0.64669090  0.67661311  1
  Zr  Zr318  1  0.11968363  0.14878666  0.67934552  1
  Zr  Zr319  1  0.61343150  0.14739495  0.67794802  1
  Zr  Zr320  1  0.36339381  0.63998822  0.89193265  1
  Zr  Zr321  1  0.38003628  0.13404879  0.89879851  1
  Zr  Zr322  1  0.87315089  0.15601055  0.89427435  1
  Zr  Zr323  1  0.85644803  0.67032607  0.89810808  1
  Zr  Zr324  1  0.61975872  0.64872418  0.82075135  1
  Zr  Zr325  1  0.11347807  0.64730337  0.82208967  1
  Zr  Zr326  1  0.61469796  0.15745135  0.82076082  1
  Zr  Zr327  1  0.12041728  0.14649258  0.82344678  1
  O  O328  1  0.74838556  0.18332005  0.09278493  1
  O  O329  1  0.03934045  0.78404624  0.11581905  1
  O  O330  1  0.76472278  0.55962891  0.11882313  1
  O  O331  1  0.06435847  0.35085607  0.09406636  1
  O  O332  1  0.56243605  0.21691263  0.09311568  1
  O  O333  1  0.27290348  0.61964273  0.11736984  1
  O  O334  1  0.54524069  0.85707552  0.11897981  1
  O  O335  1  0.25821941  0.02271096  0.08946858  1
  O  O336  1  0.94610883  0.28251194  0.09264155  1
  O  O337  1  0.88646645  0.63205974  0.12708261  1
  O  O338  1  0.92775344  0.08566104  0.11878418  1
  O  O339  1  0.86745778  0.83759695  0.09123159  1
  O  O340  1  0.36102524  0.12477911  0.08836629  1
  O  O341  1  0.43282444  0.76215214  0.12077064  1
  O  O342  1  0.38752390  0.31229627  0.12270416  1
  O  O343  1  0.44642944  0.55784280  0.08772878  1
  O  O344  1  0.63815140  0.53884223  0.08166948  1
  O  O345  1  0.19932073  0.34936927  0.13673004  1
  O  O346  1  0.62598258  0.42916416  0.13513316  1
  O  O347  1  0.19050779  0.49898887  0.08865749  1
  O  O348  1  0.58989686  0.95010199  0.06196542  1
  O  O349  1  0.12798601  0.04550360  0.13324162  1
  O  O350  1  0.69113258  0.92671311  0.13268896  1
  O  O351  1  0.12790787  0.89445469  0.07942200  1
  O  O352  1  0.46895071  0.84308149  0.06390449  1
  O  O353  1  0.35411228  0.48206862  0.05977497  1
  O  O354  1  0.84661939  0.59359067  0.06963649  1
  O  O355  1  0.44050576  0.37252919  0.99792742  1
  O  O356  1  0.49527681  0.88565957  0.99910615  1
  O  O357  1  0.93568742  0.93813657  0.05579503  1
  O  O358  1  0.39131057  0.76933062  0.02096295  1
  O  O359  1  0.34548903  0.26644291  0.01364125  1
  O  O360  1  0.01976835  0.58743823  0.04697810  1
  O  O361  1  0.93188946  0.15816545  0.04308435  1
  O  O362  1  0.99926773  0.38580915  0.01725118  1
  O  O363  1  0.69406612  0.05171991  0.02553099  1
  O  O364  1  0.26528412  0.12533207  0.02582941  1
  O  O365  1  0.14975814  0.67850616  0.01597719  1
  O  O366  1  0.73214124  0.60309927  0.02378049  1
  O  O367  1  0.59861912  0.36113328  0.03992589  1
  O  O368  1  0.26078635  0.14809521  0.23993482  1
  O  O369  1  0.55396501  0.74469453  0.26035200  1
  O  O370  1  0.26075854  0.54474825  0.25944091  1
  O  O371  1  0.55795378  0.35213328  0.24210076  1
  O  O372  1  0.05406992  0.24460614  0.23969870  1
  O  O373  1  0.76074469  0.64797867  0.26005811  1
  O  O374  1  0.05798159  0.85215452  0.25790213  1
  O  O375  1  0.76083155  0.04464116  0.24054551  1
  O  O376  1  0.43639912  0.27434205  0.23403482  1
  O  O377  1  0.37855441  0.63029629  0.26503798  1
  O  O378  1  0.43622052  0.06912289  0.26411453  1
  O  O379  1  0.37808615  0.82576127  0.23494974  1
  O  O380  1  0.87856023  0.13028884  0.23496330  1
  O  O381  1  0.93638850  0.77447073  0.26601333  1
  O  O382  1  0.87812429  0.32566992  0.26506792  1
  O  O383  1  0.93618554  0.56910716  0.23591868  1
  O  O384  1  0.12429940  0.54319874  0.22209383  1
  O  O385  1  0.69225626  0.35864573  0.27941315  1
  O  O386  1  0.12282719  0.42929424  0.27676769  1
  O  O387  1  0.69205622  0.46795400  0.22309827  1
  O  O388  1  0.19231412  0.85855662  0.22059626  1
  O  O389  1  0.62429668  0.04326010  0.27783377  1
  O  O390  1  0.19203216  0.96792192  0.27692599  1
  O  O391  1  0.62295204  0.92910877  0.22319725  1
  O  O392  1  0.95546639  0.87320048  0.20389824  1
  O  O393  1  0.34762014  0.03393546  0.15003916  1
  O  O394  1  0.47093262  0.42220922  0.14683525  1
  O  O395  1  0.85491305  0.46361707  0.20673645  1
  O  O396  1  0.35850577  0.53496534  0.20561422  1
  O  O397  1  0.96905384  0.36243164  0.15142917  1
  O  O398  1  0.83726645  0.98563369  0.14642974  1
  O  O399  1  0.46006826  0.92620445  0.20564216  1
  O  O400  1  0.80799289  0.82613141  0.19485867  1
  O  O401  1  0.50661509  0.06420143  0.16590404  1
  O  O402  1  0.30047494  0.77528183  0.15985955  1
  O  O403  1  0.00587262  0.12643909  0.19292074  1
  O  O404  1  0.50704031  0.57321585  0.19601997  1
  O  O405  1  0.80353437  0.33532441  0.16218744  1
  O  O406  1  0.01513343  0.62971285  0.16454624  1
  O  O407  1  0.31208184  0.26644098  0.19396317  1
  O  O408  1  0.60928476  0.14312985  0.18436003  1
  O  O409  1  0.71364417  0.73582571  0.17274849  1
  O  O410  1  0.09813503  0.86423525  0.16615544  1
  O  O411  1  0.21055725  0.04237205  0.18881809  1
  O  O412  1  0.71121857  0.24873042  0.18808673  1
  O  O413  1  0.59634414  0.65376338  0.16853072  1
  O  O414  1  0.21924560  0.54016022  0.16881704  1
  O  O415  1  0.10693078  0.35769112  0.18943566  1
  O  O416  1  0.77281129  0.11988650  0.38262079  1
  O  O417  1  0.06235199  0.71704317  0.40688156  1
  O  O418  1  0.75814043  0.52281166  0.41055364  1
  O  O419  1  0.04509577  0.35733582  0.38102827  1
  O  O420  1  0.53934499  0.28413788  0.38417823  1
  O  O421  1  0.24844515  0.68335323  0.40731217  1
  O  O422  1  0.56439207  0.85107543  0.40590742  1
  O  O423  1  0.26468420  0.05972243  0.38122598  1
  O  O424  1  0.93275810  0.26236373  0.37924977  1
  O  O425  1  0.86062930  0.62512192  0.41172526  1
  O  O426  1  0.94644168  0.05796917  0.41227130  1
  O  O427  1  0.88741075  0.81254126  0.37730714  1
  O  O428  1  0.38636275  0.13238623  0.37291403  1
  O  O429  1  0.44640894  0.78253397  0.40727865  1
  O  O430  1  0.36744598  0.33770037  0.40879046  1
  O  O431  1  0.42773333  0.58572993  0.38121863  1
  O  O432  1  0.62802817  0.54563420  0.36675567  1
  O  O433  1  0.08936229  0.45060268  0.43801017  1
  O  O434  1  0.62776103  0.39497652  0.42053863  1
  O  O435  1  0.19090742  0.42728246  0.36728000  1
  O  O436  1  0.69938994  0.84961272  0.36321213  1
  O  O437  1  0.13807469  0.03903745  0.41837729  1
  O  O438  1  0.69044236  0.99917165  0.41135085  1
  O  O439  1  0.12602412  0.92907754  0.36491076  1
  O  O440  1  0.46897353  0.86278976  0.34854450  1
  O  O441  1  0.85851981  0.03499621  0.29438257  1
  O  O442  1  0.95997211  0.42629177  0.29437990  1
  O  O443  1  0.33722579  0.48575405  0.35358436  1
  O  O444  1  0.84752361  0.53428187  0.34998200  1
  O  O445  1  0.45540304  0.37316252  0.29609199  1
  O  O446  1  0.35469407  0.96384461  0.29326361  1
  O  O447  1  0.97087904  0.92232386  0.35317024  1
  O  O448  1  0.30350321  0.83537960  0.33785930  1
  O  O449  1  0.00702610  0.07327679  0.30401694  1
  O  O450  1  0.81195682  0.76667328  0.30595695  1
  O  O451  1  0.51493743  0.12990696  0.33535846  1
  O  O452  1  0.00633489  0.56457659  0.33407270  1
  O  O453  1  0.30778280  0.32636082  0.30509181  1
  O  O454  1  0.50580836  0.62656006  0.30709445  1
  O  O455  1  0.80044137  0.27538513  0.34014107  1
  O  O456  1  0.09638972  0.15374434  0.33150562  1
  O  O457  1  0.21124794  0.74872933  0.31193736  1
  O  O458  1  0.60699120  0.85767541  0.31055986  1
  O  O459  1  0.71909398  0.04042621  0.33116347  1
  O  O460  1  0.21344066  0.23619660  0.32727907  1
  O  O461  1  0.10918086  0.64336950  0.31563955  1
  O  O462  1  0.71064692  0.54233089  0.31119273  1
  O  O463  1  0.59806435  0.36440319  0.33385548  1
  O  O464  1  0.93980574  0.87331352  0.50200147  1
  O  O465  1  0.34673011  0.09367596  0.43036771  1
  O  O466  1  0.43591660  0.43803703  0.44420784  1
  O  O467  1  0.99490673  0.38612142  0.50089426  1
  O  O468  1  0.96874562  0.34343915  0.43612612  1
  O  O469  1  0.85384286  0.98267492  0.44018224  1
  O  O470  1  0.51968453  0.08768604  0.45304524  1
  O  O471  1  0.43090384  0.65936101  0.45671379  1
  O  O472  1  0.89130089  0.26932180  0.47904058  1
  O  O473  1  0.84404891  0.76808389  0.48625515  1
  O  O474  1  0.64956972  0.17928615  0.48397857  1
  O  O475  1  0.76478462  0.62564654  0.47420646  1
  O  O476  1  0.09850175  0.86113380  0.46012435  1
  O  O477  1  0.23202712  0.10358551  0.47620015  1
  O  O478  1  0.49913988  0.88601405  0.48276162  1
  O  O479  1  0.19391912  0.55190254  0.47432467  1
  O  O480  1  0.02409079  0.41884103  0.59232992  1
  O  O481  1  0.73280181  0.82165543  0.61585148  1
  O  O482  1  0.01038291  0.04267010  0.61965702  1
  O  O483  1  0.71089056  0.25361619  0.59457204  1
  O  O484  1  0.21229387  0.38151712  0.59363269  1
  O  O485  1  0.50381067  0.98037312  0.61691022  1
  O  O486  1  0.22927746  0.74364860  0.61932388  1
  O  O487  1  0.51644147  0.57765080  0.58957484  1
  O  O488  1  0.83062012  0.31816326  0.59354047  1
  O  O489  1  0.88829853  0.96852917  0.62701645  1
  O  O490  1  0.84580745  0.51621737  0.61927584  1
  O  O491  1  0.90770671  0.76082082  0.59153955  1
  O  O492  1  0.40876260  0.47729764  0.58908254  1
  O  O493  1  0.34153885  0.83742060  0.62084812  1
  O  O494  1  0.38941424  0.28537903  0.62189220  1
  O  O495  1  0.32863151  0.04067855  0.58762883  1
  O  O496  1  0.13625867  0.06152598  0.58178882  1
  O  O497  1  0.57753487  0.24219519  0.63557521  1
  O  O498  1  0.14850372  0.17172525  0.63525000  1
  O  O499  1  0.58811534  0.10364296  0.58273187  1
  O  O500  1  0.18458782  0.65089013  0.56216093  1
  O  O501  1  0.64734151  0.55390097  0.63314800  1
  O  O502  1  0.08422540  0.67184220  0.63289146  1
  O  O503  1  0.64706574  0.70217633  0.57897056  1
  O  O504  1  0.30589797  0.75617269  0.56393965  1
  O  O505  1  0.42157116  0.11415781  0.55958922  1
  O  O506  1  0.93106523  0.00794047  0.57039766  1
  O  O507  1  0.33154146  0.22777295  0.49851871  1
  O  O508  1  0.27986681  0.71331019  0.49919327  1
  O  O509  1  0.83371054  0.66637052  0.55647661  1
  O  O510  1  0.38513552  0.82771394  0.52046200  1
  O  O511  1  0.42956628  0.33265631  0.51332750  1
  O  O512  1  0.76164925  0.01441218  0.55004145  1
  O  O513  1  0.84574222  0.43956754  0.54344799  1
  O  O514  1  0.78516067  0.20271212  0.51730514  1
  O  O515  1  0.07694331  0.55049357  0.52657446  1
  O  O516  1  0.51088837  0.47212064  0.52578843  1
  O  O517  1  0.62213328  0.96037327  0.51785250  1
  O  O518  1  0.04427228  0.99488004  0.52382739  1
  O  O519  1  0.17489273  0.23937891  0.53996117  1
  O  O520  1  0.51405331  0.45056028  0.73967194  1
  O  O521  1  0.22106775  0.85396615  0.76041286  1
  O  O522  1  0.51379535  0.05502618  0.75946387  1
  O  O523  1  0.21643675  0.24788041  0.74237139  1
  O  O524  1  0.72086799  0.35422715  0.73966965  1
  O  O525  1  0.01406578  0.95075009  0.76033986  1
  O  O526  1  0.71646626  0.74778360  0.75768108  1
  O  O527  1  0.01379329  0.55511099  0.74057752  1
  O  O528  1  0.33852929  0.32539852  0.73380950  1
  O  O529  1  0.39640143  0.96945769  0.76488380  1
  O  O530  1  0.33824361  0.53108942  0.76416638  1
  O  O531  1  0.39690022  0.77387667  0.73489638  1
  O  O532  1  0.89640499  0.46948461  0.73517615  1
  O  O533  1  0.83851610  0.82541226  0.76625167  1
  O  O534  1  0.89679216  0.27406689  0.76514200  1
  O  O535  1  0.83826541  0.03111007  0.73589748  1
  O  O536  1  0.65036887  0.05703490  0.72205548  1
  O  O537  1  0.08253437  0.24104420  0.77958150  1
  O  O538  1  0.65207416  0.17051513  0.77677276  1
  O  O539  1  0.08309698  0.13191861  0.72330063  1
  O  O540  1  0.58246354  0.74115920  0.72046687  1
  O  O541  1  0.15035153  0.55701124  0.77798474  1
  O  O542  1  0.58309469  0.63214744  0.77679112  1
  O  O543  1  0.15199230  0.67045539  0.72327184  1
  O  O544  1  0.81913832  0.72735840  0.70405875  1
  O  O545  1  0.42906346  0.56265926  0.64983295  1
  O  O546  1  0.30525259  0.17601987  0.64660136  1
  O  O547  1  0.92074783  0.13553738  0.70708764  1
  O  O548  1  0.41665143  0.06435752  0.70561797  1
  O  O549  1  0.80614975  0.23769017  0.65200126  1
  O  O550  1  0.93709119  0.61421272  0.64658562  1
  O  O551  1  0.31495600  0.67355765  0.70538554  1
  O  O552  1  0.96717477  0.77333487  0.69516873  1
  O  O553  1  0.26845683  0.53463306  0.66589216  1
  O  O554  1  0.47433168  0.82451661  0.65935919  1
  O  O555  1  0.76844857  0.47387163  0.69290090  1
  O  O556  1  0.26783829  0.02662468  0.69609209  1
  O  O557  1  0.97100852  0.26547814  0.66247447  1
  O  O558  1  0.76080338  0.96929253  0.66481950  1
  O  O559  1  0.46331409  0.33236073  0.69341703  1
  O  O560  1  0.16587058  0.45566529  0.68419455  1
  O  O561  1  0.06127832  0.86347603  0.67284537  1
  O  O562  1  0.67611015  0.73641853  0.66615830  1
  O  O563  1  0.56401223  0.55784357  0.68868543  1
  O  O564  1  0.06306539  0.35177659  0.68829350  1
  O  O565  1  0.17836570  0.94660668  0.66879925  1
  O  O566  1  0.55563305  0.05941888  0.66861739  1
  O  O567  1  0.66706232  0.24296621  0.68884173  1
  O  O568  1  0.00389955  0.48040588  0.88315061  1
  O  O569  1  0.71268670  0.88172285  0.90662010  1
  O  O570  1  0.01663902  0.07735845  0.91044940  1
  O  O571  1  0.72949532  0.24342773  0.88067577  1
  O  O572  1  0.23276351  0.32186138  0.88417830  1
  O  O573  1  0.52430257  0.91915852  0.90750693  1
  O  O574  1  0.21097851  0.75353496  0.90545769  1
  O  O575  1  0.51063953  0.54214501  0.88044298  1
  O  O576  1  0.84180088  0.33708948  0.87916753  1
  O  O577  1  0.90869009  0.97723167  0.91092206  1
  O  O578  1  0.82904443  0.54027005  0.91233701  1
  O  O579  1  0.88959924  0.78524678  0.87813821  1
  O  O580  1  0.38838634  0.46846197  0.87301012  1
  O  O581  1  0.33081668  0.81801092  0.90648831  1
  O  O582  1  0.40768627  0.26096728  0.90838539  1
  O  O583  1  0.34588495  0.01630969  0.88078115  1
  O  O584  1  0.14752764  0.05358419  0.86689774  1
  O  O585  1  0.68480174  0.15054791  0.93782115  1
  O  O586  1  0.14730421  0.20210456  0.92104050  1
  O  O587  1  0.58431843  0.17172620  0.86712448  1
  O  O588  1  0.07760762  0.74181305  0.86449606  1
  O  O589  1  0.63693165  0.56078737  0.91815095  1
  O  O590  1  0.08827650  0.60357998  0.91746195  1
  O  O591  1  0.64896210  0.67149976  0.86482850  1
  O  O592  1  0.30642389  0.73736563  0.84800967  1
  O  O593  1  0.91671523  0.56425822  0.79442478  1
  O  O594  1  0.81505573  0.17352930  0.79466241  1
  O  O595  1  0.43701087  0.11438143  0.85337738  1
  O  O596  1  0.92929205  0.06233075  0.85019326  1
  O  O597  1  0.31908217  0.22739499  0.79597897  1
  O  O598  1  0.42100999  0.63538232  0.79291912  1
  O  O599  1  0.80531155  0.67618470  0.85344161  1
  O  O600  1  0.47116827  0.76539600  0.83773317  1
  O  O601  1  0.76794637  0.52654205  0.80402603  1
  O  O602  1  0.96338447  0.83232015  0.80659910  1
  O  O603  1  0.26089251  0.46929029  0.83517058  1
  O  O604  1  0.76857131  0.03454420  0.83411330  1
  O  O605  1  0.46722966  0.27329481  0.80485844  1
  O  O606  1  0.26857454  0.97368188  0.80716501  1
  O  O607  1  0.97441026  0.32452891  0.84071697  1
  O  O608  1  0.67837594  0.44662079  0.83124888  1
  O  O609  1  0.56309537  0.85181168  0.81180876  1
  O  O610  1  0.16694634  0.74309087  0.81121225  1
  O  O611  1  0.05570934  0.55926017  0.83140946  1
  O  O612  1  0.56131545  0.36346290  0.82719519  1
  O  O613  1  0.66596789  0.95563318  0.81580380  1
  O  O614  1  0.06395577  0.05792600  0.81134596  1
  O  O615  1  0.17620812  0.23619537  0.83391161  1
  O  O616  1  0.83153372  0.72750570  0.00151153  1
  O  O617  1  0.43109912  0.50785212  0.92963792  1
  O  O618  1  0.33431575  0.16594400  0.94354695  1
  O  O619  1  0.77995459  0.21333030  0.00081256  1
  O  O620  1  0.80611818  0.25584698  0.93608413  1
  O  O621  1  0.92173610  0.61406472  0.94049173  1
  O  O622  1  0.26211674  0.51390607  0.94998402  1
  O  O623  1  0.34592841  0.93943797  0.95655430  1
  O  O624  1  0.88565474  0.32703455  0.97947344  1
  O  O625  1  0.92929404  0.83268373  0.98667407  1
  O  O626  1  0.12308907  0.45890851  0.98224608  1
  O  O627  1  0.01123084  0.97132973  0.97413067  1
  O  O628  1  0.67527610  0.73850889  0.95993841  1
  O  O629  1  0.54430084  0.49486962  0.97618879  1
  O  O630  1  0.28527669  0.70245332  0.98275993  1
  O  O631  1  0.57779717  0.04933162  0.97314542  1
