# generated using pymatgen
data_Li38La16Zr10O63
_symmetry_space_group_name_H-M   'P 1'
_cell_length_a   12.70453900
_cell_length_b   13.20454200
_cell_length_c   36.97339732
_cell_angle_alpha   90.00000000
_cell_angle_beta   90.00000000
_cell_angle_gamma   90.00000000
_symmetry_Int_Tables_number   1
_chemical_formula_structural   Li38La16Zr10O63
_chemical_formula_sum   'Li152 La64 Zr40 O252'
_cell_volume   6202.56909459
_cell_formula_units_Z   4
loop_
 _symmetry_equiv_pos_site_id
 _symmetry_equiv_pos_as_xyz
  1  'x, y, z'
loop_
 _atom_site_type_symbol
 _atom_site_label
 _atom_site_symmetry_multiplicity
 _atom_site_fract_x
 _atom_site_fract_y
 _atom_site_fract_z
 _atom_site_occupancy
  Li  Li0  1  0.70838055  0.85262901  0.01435787  1
  Li  Li1  1  0.79282264  0.02511388  0.00388343  1
  Li  Li2  1  0.31875192  0.54925206  0.98274863  1
  Li  Li3  1  0.26733070  0.35686484  0.99633050  1
  Li  Li4  1  0.88202833  0.23814073  0.03784548  1
  Li  Li5  1  0.63907180  0.73263810  0.05085799  1
  Li  Li6  1  0.36219204  0.20181347  0.04769902  1
  Li  Li7  1  0.17310283  0.67032719  0.03524563  1
  Li  Li8  1  0.26166827  0.99759759  0.09048647  1
  Li  Li9  1  0.16254748  0.83268897  0.07468926  1
  Li  Li10  1  0.83976562  0.36583889  0.07559571  1
  Li  Li11  1  0.74055740  0.50665104  0.09144619  1
  Li  Li12  1  0.44130889  0.31238712  0.10243536  1
  Li  Li13  1  0.07290963  0.65991686  0.10132799  1
  Li  Li14  1  0.93754927  0.16336749  0.10015350  1
  Li  Li15  1  0.57047570  0.81620759  0.10513697  1
  Li  Li16  1  0.41730306  0.91984357  0.11111187  1
  Li  Li17  1  0.09311048  0.05801978  0.10995560  1
  Li  Li18  1  0.59335490  0.41322362  0.11181395  1
  Li  Li19  1  0.91795203  0.55244921  0.10901280  1
  Li  Li20  1  0.37488799  0.41415953  0.15931149  1
  Li  Li21  1  0.14313987  0.56046515  0.16043077  1
  Li  Li22  1  0.63938759  0.91133361  0.16209013  1
  Li  Li23  1  0.87755295  0.06386872  0.15908948  1
  Li  Li24  1  0.05929739  0.15688305  0.16460748  1
  Li  Li25  1  0.44934609  0.82126248  0.16856886  1
  Li  Li26  1  0.55917867  0.31576600  0.16752870  1
  Li  Li27  1  0.95415069  0.65071244  0.16617238  1
  Li  Li28  1  0.20095112  0.39991587  0.19549305  1
  Li  Li29  1  0.31226575  0.57302783  0.19546058  1
  Li  Li30  1  0.70168834  0.07413054  0.19428124  1
  Li  Li31  1  0.81466259  0.90495712  0.19760233  1
  Li  Li32  1  0.38004486  0.73897120  0.22503083  1
  Li  Li33  1  0.13594052  0.22968217  0.22162078  1
  Li  Li34  1  0.88188957  0.73845408  0.22400531  1
  Li  Li35  1  0.63252336  0.23706804  0.22397927  1
  Li  Li36  1  0.81415463  0.57993860  0.25068512  1
  Li  Li37  1  0.69358499  0.39769405  0.25262821  1
  Li  Li38  1  0.31291428  0.90669006  0.25447380  1
  Li  Li39  1  0.20798697  0.07187002  0.25489677  1
  Li  Li40  1  0.95066624  0.82285643  0.28081818  1
  Li  Li41  1  0.56343775  0.16502224  0.28136604  1
  Li  Li42  1  0.45410621  0.65260925  0.28364139  1
  Li  Li43  1  0.07824563  0.31756045  0.26725445  1
  Li  Li44  1  0.84933896  0.42395862  0.28843635  1
  Li  Li45  1  0.64967586  0.56142274  0.28757335  1
  Li  Li46  1  0.13235253  0.91782174  0.28915756  1
  Li  Li47  1  0.40062911  0.06432296  0.28839816  1
  Li  Li48  1  0.92321054  0.92124194  0.33762363  1
  Li  Li49  1  0.60071670  0.06672257  0.33828548  1
  Li  Li50  1  0.17630116  0.44507763  0.34138300  1
  Li  Li51  1  0.39204069  0.55839499  0.34253126  1
  Li  Li52  1  0.56356150  0.65764787  0.34391778  1
  Li  Li53  1  0.99967675  0.36536742  0.31952630  1
  Li  Li54  1  0.07342197  0.81328941  0.34532627  1
  Li  Li55  1  0.44112842  0.16566471  0.34527434  1
  Li  Li56  1  0.74753053  0.97052103  0.35729290  1
  Li  Li57  1  0.82670635  0.12049178  0.37340100  1
  Li  Li58  1  0.16839877  0.62661022  0.37201165  1
  Li  Li59  1  0.33649355  0.39408467  0.37530225  1
  Li  Li60  1  0.90982813  0.30526538  0.37786320  1
  Li  Li61  1  0.63567807  0.75732646  0.39710880  1
  Li  Li62  1  0.37576044  0.23768128  0.40689183  1
  Li  Li63  1  0.16588758  0.80810321  0.41546615  1
  Li  Li64  1  0.28411191  0.02726642  0.44270224  1
  Li  Li65  1  0.29856626  0.85664655  0.47381507  1
  Li  Li66  1  0.79200890  0.45259588  0.44772722  1
  Li  Li67  1  0.71263186  0.63309253  0.43353005  1
  Li  Li68  1  0.36687937  0.33532960  0.47472298  1
  Li  Li69  1  0.08320716  0.70014587  0.45994669  1
  Li  Li70  1  0.93110579  0.18711314  0.43097271  1
  Li  Li71  1  0.57255294  0.77647387  0.45819974  1
  Li  Li72  1  0.58001241  0.69636917  0.99220495  1
  Li  Li73  1  0.86446724  0.34280432  0.97065398  1
  Li  Li74  1  0.07474250  0.78445754  0.99723831  1
  Li  Li75  1  0.35421706  0.14248031  0.97491740  1
  Li  Li76  1  0.59098577  0.62301263  0.51439894  1
  Li  Li77  1  0.50783240  0.44999176  0.50391674  1
  Li  Li78  1  0.98249242  0.92528399  0.48220041  1
  Li  Li79  1  0.03132283  0.11798143  0.49635148  1
  Li  Li80  1  0.41725184  0.23581660  0.53775236  1
  Li  Li81  1  0.66082536  0.74315884  0.55102045  1
  Li  Li82  1  0.93734492  0.27440816  0.54773892  1
  Li  Li83  1  0.12682318  0.80537014  0.53523754  1
  Li  Li84  1  0.03921548  0.47783390  0.59047678  1
  Li  Li85  1  0.13726813  0.64351986  0.57446528  1
  Li  Li86  1  0.46006274  0.10907314  0.57523904  1
  Li  Li87  1  0.55916411  0.96915481  0.59158843  1
  Li  Li88  1  0.86069071  0.16210469  0.60238340  1
  Li  Li89  1  0.22678928  0.81595349  0.60133497  1
  Li  Li90  1  0.36153097  0.31025339  0.60015592  1
  Li  Li91  1  0.72936076  0.65853772  0.60523792  1
  Li  Li92  1  0.88317128  0.55541937  0.61098212  1
  Li  Li93  1  0.20585164  0.41775135  0.61053203  1
  Li  Li94  1  0.70827717  0.06205603  0.61184953  1
  Li  Li95  1  0.38163926  0.92338587  0.60911773  1
  Li  Li96  1  0.92999151  0.06110863  0.65932324  1
  Li  Li97  1  0.15643246  0.91564133  0.66040765  1
  Li  Li98  1  0.65978131  0.56249339  0.66198966  1
  Li  Li99  1  0.42031990  0.41199162  0.65850052  1
  Li  Li100  1  0.24080548  0.31865125  0.66502321  1
  Li  Li101  1  0.85046601  0.65331294  0.66834941  1
  Li  Li102  1  0.74260994  0.15907321  0.66715001  1
  Li  Li103  1  0.34639229  0.82365508  0.66646392  1
  Li  Li104  1  0.10043294  0.07619252  0.69631191  1
  Li  Li105  1  0.98756302  0.90250492  0.69555124  1
  Li  Li106  1  0.59721001  0.40124270  0.69371041  1
  Li  Li107  1  0.48498901  0.57117947  0.69750002  1
  Li  Li108  1  0.91990867  0.73624721  0.72497066  1
  Li  Li109  1  0.16315190  0.24514979  0.72177758  1
  Li  Li110  1  0.41806935  0.73552424  0.72423871  1
  Li  Li111  1  0.66683007  0.23863877  0.72384249  1
  Li  Li112  1  0.48731142  0.89580447  0.75069103  1
  Li  Li113  1  0.60551031  0.07586698  0.75257625  1
  Li  Li114  1  0.98765707  0.56921742  0.75400742  1
  Li  Li115  1  0.09256199  0.40435419  0.75478126  1
  Li  Li116  1  0.34856467  0.65253328  0.78113020  1
  Li  Li117  1  0.73635142  0.30974459  0.78110353  1
  Li  Li118  1  0.84667430  0.82263428  0.78326043  1
  Li  Li119  1  0.22179955  0.15789499  0.76772099  1
  Li  Li120  1  0.44906330  0.05254095  0.78833894  1
  Li  Li121  1  0.65231615  0.91268613  0.78761014  1
  Li  Li122  1  0.16588231  0.55805941  0.78919815  1
  Li  Li123  1  0.90085223  0.41068194  0.78816562  1
  Li  Li124  1  0.37712096  0.55367022  0.83791606  1
  Li  Li125  1  0.70085854  0.40865779  0.83768467  1
  Li  Li126  1  0.12229127  0.03000910  0.84151995  1
  Li  Li127  1  0.90497355  0.91593057  0.84278327  1
  Li  Li128  1  0.73629229  0.81608138  0.84364340  1
  Li  Li129  1  0.29989813  0.10908114  0.81995512  1
  Li  Li130  1  0.22553304  0.66188320  0.84540465  1
  Li  Li131  1  0.85950611  0.30964407  0.84524723  1
  Li  Li132  1  0.55273219  0.50408016  0.85728273  1
  Li  Li133  1  0.47328376  0.35324674  0.87335769  1
  Li  Li134  1  0.13171755  0.84993294  0.87165504  1
  Li  Li135  1  0.96267176  0.07951973  0.87536927  1
  Li  Li136  1  0.39082234  0.16946822  0.87814216  1
  Li  Li137  1  0.66379897  0.71805733  0.89708910  1
  Li  Li138  1  0.92355052  0.23604606  0.90643118  1
  Li  Li139  1  0.13505908  0.66845726  0.91532517  1
  Li  Li140  1  0.01566200  0.44663642  0.94255548  1
  Li  Li141  1  0.00001148  0.61643844  0.97337215  1
  Li  Li142  1  0.50766144  0.02296039  0.94769243  1
  Li  Li143  1  0.58724537  0.84132250  0.93443475  1
  Li  Li144  1  0.93362131  0.13946858  0.97468849  1
  Li  Li145  1  0.21947380  0.77375481  0.96017465  1
  Li  Li146  1  0.36742351  0.28773854  0.93090248  1
  Li  Li147  1  0.72828092  0.69840866  0.95797854  1
  Li  Li148  1  0.72184524  0.77529682  0.49238678  1
  Li  Li149  1  0.43550991  0.13222591  0.47099272  1
  Li  Li150  1  0.22421384  0.68890085  0.49786227  1
  Li  Li151  1  0.94626124  0.33330698  0.47473901  1
  La  La152  1  0.25363390  0.96704467  0.00897990  1
  La  La153  1  0.75259834  0.49664739  0.00912684  1
  La  La154  1  0.88077406  0.73002216  0.05152588  1
  La  La155  1  0.38399043  0.75407443  0.05127594  1
  La  La156  1  0.64816293  0.23543041  0.04864934  1
  La  La157  1  0.12884736  0.22692285  0.04645287  1
  La  La158  1  0.75240287  0.97726035  0.09048343  1
  La  La159  1  0.25421656  0.47992731  0.08703087  1
  La  La160  1  0.50996805  0.11063943  0.13341361  1
  La  La161  1  0.01350060  0.36514199  0.13416964  1
  La  La162  1  0.50146389  0.61320001  0.13947305  1
  La  La163  1  0.99972075  0.86505970  0.13732841  1
  La  La164  1  0.75581666  0.48710510  0.17852188  1
  La  La165  1  0.25646971  0.98913501  0.17788511  1
  La  La166  1  0.38283251  0.23837089  0.22362891  1
  La  La167  1  0.88128774  0.23978414  0.22518616  1
  La  La168  1  0.13038987  0.74038977  0.22489960  1
  La  La169  1  0.63036539  0.73907109  0.22546201  1
  La  La170  1  0.25861318  0.49171706  0.26935743  1
  La  La171  1  0.75511428  0.99229653  0.27068318  1
  La  La172  1  0.00029205  0.60868274  0.31172842  1
  La  La173  1  0.50390787  0.86606805  0.31361368  1
  La  La174  1  0.00901877  0.12022718  0.31421838  1
  La  La175  1  0.50794045  0.37255601  0.31476811  1
  La  La176  1  0.25698515  0.99925454  0.35879561  1
  La  La177  1  0.74890248  0.50030191  0.36128377  1
  La  La178  1  0.88948197  0.74358675  0.39762273  1
  La  La179  1  0.38152592  0.73870189  0.40017581  1
  La  La180  1  0.61463518  0.24377961  0.39972238  1
  La  La181  1  0.14073114  0.25211233  0.39997644  1
  La  La182  1  0.75399195  0.95690422  0.43865603  1
  La  La183  1  0.25642771  0.49708473  0.44109490  1
  La  La184  1  0.04644093  0.50772979  0.50906055  1
  La  La185  1  0.54758646  0.97761164  0.50915992  1
  La  La186  1  0.41897587  0.74494019  0.55165468  1
  La  La187  1  0.91627276  0.72108100  0.55129161  1
  La  La188  1  0.65168148  0.23946564  0.54868035  1
  La  La189  1  0.17064113  0.24801292  0.54641359  1
  La  La190  1  0.54750644  0.49761818  0.59040462  1
  La  La191  1  0.04594049  0.99491855  0.58685642  1
  La  La192  1  0.79031448  0.36433542  0.63315019  1
  La  La193  1  0.28630390  0.11000353  0.63435882  1
  La  La194  1  0.79857444  0.86207972  0.63944752  1
  La  La195  1  0.30000407  0.61047671  0.63718131  1
  La  La196  1  0.54411669  0.98803086  0.67837782  1
  La  La197  1  0.04336020  0.48615010  0.67785600  1
  La  La198  1  0.91697443  0.23673429  0.72352940  1
  La  La199  1  0.41843603  0.23553546  0.72503164  1
  La  La200  1  0.16965395  0.73512889  0.72482697  1
  La  La201  1  0.66978204  0.73575370  0.72530444  1
  La  La202  1  0.04109380  0.98355012  0.76944613  1
  La  La203  1  0.54471781  0.48273053  0.77055528  1
  La  La204  1  0.30009386  0.86633014  0.81168059  1
  La  La205  1  0.79652004  0.60884709  0.81334636  1
  La  La206  1  0.29097319  0.35512478  0.81414786  1
  La  La207  1  0.79171561  0.10264170  0.81465710  1
  La  La208  1  0.04309820  0.47578053  0.85880589  1
  La  La209  1  0.55126650  0.97410983  0.86117401  1
  La  La210  1  0.41097855  0.73123145  0.89751365  1
  La  La211  1  0.91853732  0.73614227  0.90007030  1
  La  La212  1  0.68531309  0.23142027  0.89958752  1
  La  La213  1  0.15895316  0.22255938  0.89981459  1
  La  La214  1  0.54620364  0.51735121  0.93856302  1
  La  La215  1  0.04358052  0.97716863  0.94105151  1
  Zr  Zr216  1  0.99256707  0.98220155  0.04569655  1
  Zr  Zr217  1  0.51514462  0.99610202  0.04034289  1
  Zr  Zr218  1  0.50369950  0.51999995  0.05029692  1
  Zr  Zr219  1  0.01565481  0.47964146  0.03883737  1
  Zr  Zr220  1  0.75739216  0.24375742  0.13653442  1
  Zr  Zr221  1  0.75529285  0.73102670  0.13773980  1
  Zr  Zr222  1  0.25822154  0.23171735  0.13409756  1
  Zr  Zr223  1  0.25491315  0.74113689  0.13685966  1
  Zr  Zr224  1  0.50579812  0.48608632  0.22429180  1
  Zr  Zr225  1  0.00584638  0.48776834  0.22434123  1
  Zr  Zr226  1  0.00818155  0.99272425  0.22558390  1
  Zr  Zr227  1  0.50727246  0.99040435  0.22370089  1
  Zr  Zr228  1  0.25566396  0.73588512  0.31262834  1
  Zr  Zr229  1  0.25759828  0.24270782  0.31202843  1
  Zr  Zr230  1  0.75582843  0.74419786  0.31243547  1
  Zr  Zr231  1  0.75489435  0.23817149  0.31450512  1
  Zr  Zr232  1  0.01525865  0.99782683  0.40697373  1
  Zr  Zr233  1  0.49981324  0.98543255  0.40257204  1
  Zr  Zr234  1  0.51745481  0.49527415  0.41147418  1
  Zr  Zr235  1  0.99540900  0.49232007  0.40410955  1
  Zr  Zr236  1  0.30743183  0.49196341  0.54581967  1
  Zr  Zr237  1  0.78475406  0.47935124  0.54030967  1
  Zr  Zr238  1  0.79658561  0.95498210  0.55015177  1
  Zr  Zr239  1  0.28441490  0.99559197  0.53884277  1
  Zr  Zr240  1  0.54256743  0.23127308  0.63646126  1
  Zr  Zr241  1  0.54473996  0.74387550  0.63771837  1
  Zr  Zr242  1  0.04226913  0.24365813  0.63413396  1
  Zr  Zr243  1  0.04502798  0.73433723  0.63690797  1
  Zr  Zr244  1  0.79392431  0.98932772  0.72414823  1
  Zr  Zr245  1  0.29440372  0.98720037  0.72443117  1
  Zr  Zr246  1  0.29190799  0.48289460  0.72554697  1
  Zr  Zr247  1  0.79271841  0.48431793  0.72357866  1
  Zr  Zr248  1  0.04433775  0.73961631  0.81255864  1
  Zr  Zr249  1  0.04207379  0.23251813  0.81193176  1
  Zr  Zr250  1  0.54434538  0.73030704  0.81232777  1
  Zr  Zr251  1  0.54497025  0.23694665  0.81436992  1
  Zr  Zr252  1  0.28464996  0.47726453  0.90705452  1
  Zr  Zr253  1  0.80016573  0.48967372  0.90241760  1
  Zr  Zr254  1  0.78207200  0.97960574  0.91156664  1
  Zr  Zr255  1  0.30486080  0.98222518  0.90420234  1
  O  O256  1  0.84364766  0.91721675  0.03538789  1
  O  O257  1  0.66652201  0.05101711  0.03296184  1
  O  O258  1  0.16295769  0.42007109  0.03055790  1
  O  O259  1  0.35441969  0.56181589  0.03453004  1
  O  O260  1  0.36458140  0.93255732  0.06012754  1
  O  O261  1  0.14748549  0.03706003  0.06021529  1
  O  O262  1  0.63926616  0.43093865  0.06051292  1
  O  O263  1  0.85946548  0.53062025  0.06021371  1
  O  O264  1  0.48991435  0.14608583  0.06406012  1
  O  O265  1  0.01914030  0.83684408  0.07257361  1
  O  O266  1  0.97952820  0.33638960  0.06348816  1
  O  O267  1  0.53413459  0.65084880  0.07208251  1
  O  O268  1  0.79887474  0.21039618  0.08225864  1
  O  O269  1  0.71996787  0.79169452  0.08685722  1
  O  O270  1  0.29630049  0.28894788  0.08290278  1
  O  O271  1  0.21636843  0.69639395  0.08392822  1
  O  O272  1  0.94309834  0.02040173  0.10066965  1
  O  O273  1  0.56165718  0.96110984  0.09828731  1
  O  O274  1  0.06604669  0.51522629  0.09581340  1
  O  O275  1  0.44684677  0.45826835  0.09890845  1
  O  O276  1  0.10261673  0.20165026  0.11549775  1
  O  O277  1  0.40910829  0.77634101  0.11864971  1
  O  O278  1  0.60393539  0.27233723  0.11768140  1
  O  O279  1  0.90615567  0.69428617  0.11810509  1
  O  O280  1  0.31704417  0.08526143  0.12558088  1
  O  O281  1  0.19728992  0.88940688  0.12378240  1
  O  O282  1  0.81313587  0.39529169  0.12444885  1
  O  O283  1  0.69125956  0.58731608  0.12846253  1
  O  O284  1  0.20330379  0.38446338  0.14434088  1
  O  O285  1  0.30329114  0.58948342  0.14499628  1
  O  O286  1  0.71193865  0.09186944  0.14353326  1
  O  O287  1  0.80612949  0.88308736  0.14754192  1
  O  O288  1  0.40860456  0.27122774  0.15443834  1
  O  O289  1  0.10179477  0.70503664  0.15637537  1
  O  O290  1  0.91155128  0.20980082  0.15541170  1
  O  O291  1  0.60197648  0.77095618  0.15773798  1
  O  O292  1  0.95883793  0.51032773  0.17028349  1
  O  O293  1  0.55528677  0.45783481  0.17044202  1
  O  O294  1  0.05763445  0.01661574  0.17115666  1
  O  O295  1  0.45501216  0.96169327  0.17031994  1
  O  O296  1  0.72348022  0.29608344  0.18850326  1
  O  O297  1  0.79177522  0.67651216  0.18977823  1
  O  O298  1  0.22312427  0.17826941  0.18659587  1
  O  O299  1  0.28896368  0.79687260  0.18875147  1
  O  O300  1  0.04494256  0.33913784  0.20920769  1
  O  O301  1  0.46869827  0.63423623  0.20541792  1
  O  O302  1  0.54371793  0.13645794  0.20368070  1
  O  O303  1  0.97158698  0.84487084  0.20801191  1
  O  O304  1  0.35272418  0.43233922  0.21127830  1
  O  O305  1  0.16020689  0.54189967  0.21274269  1
  O  O306  1  0.66106412  0.93618051  0.21264159  1
  O  O307  1  0.85433586  0.04749855  0.21265595  1
  O  O308  1  0.85147799  0.43515919  0.23620714  1
  O  O309  1  0.65778579  0.54151833  0.23641404  1
  O  O310  1  0.16083904  0.93738001  0.23744240  1
  O  O311  1  0.35519834  0.04530150  0.23719262  1
  O  O312  1  0.97212392  0.63474450  0.24317435  1
  O  O313  1  0.54329453  0.34056293  0.24314719  1
  O  O314  1  0.47183346  0.84294539  0.24286777  1
  O  O315  1  0.04090091  0.14042707  0.24514120  1
  O  O316  1  0.28908706  0.68142636  0.26062711  1
  O  O317  1  0.22590543  0.29434244  0.25877385  1
  O  O318  1  0.79098875  0.79562626  0.25994891  1
  O  O319  1  0.71934485  0.18440674  0.26229668  1
  O  O320  1  0.44951810  0.51336828  0.27722952  1
  O  O321  1  0.05464610  0.45576802  0.27909470  1
  O  O322  1  0.55572924  0.02155087  0.27782038  1
  O  O323  1  0.95771242  0.96542262  0.27999227  1
  O  O324  1  0.60332254  0.70284189  0.29295443  1
  O  O325  1  0.90503593  0.27444460  0.29373742  1
  O  O326  1  0.10215819  0.77244862  0.29304791  1
  O  O327  1  0.40992942  0.20869439  0.29260428  1
  O  O328  1  0.80565495  0.58981456  0.30207378  1
  O  O329  1  0.70510210  0.38909704  0.30500093  1
  O  O330  1  0.30402197  0.88700581  0.30538817  1
  O  O331  1  0.19973687  0.09366673  0.30464877  1
  O  O332  1  0.69516285  0.88981332  0.32060420  1
  O  O333  1  0.80942506  0.08614335  0.32444297  1
  O  O334  1  0.19597444  0.58657548  0.32284379  1
  O  O335  1  0.31168933  0.39325412  0.32446013  1
  O  O336  1  0.90960501  0.77705684  0.33089758  1
  O  O337  1  0.59621626  0.20922647  0.33265824  1
  O  O338  1  0.40777936  0.70041309  0.33151574  1
  O  O339  1  0.10841759  0.27802622  0.33185019  1
  O  O340  1  0.45350033  0.02244555  0.34801905  1
  O  O341  1  0.06650033  0.95872069  0.35295547  1
  O  O342  1  0.55866101  0.51790240  0.35194657  1
  O  O343  1  0.92966479  0.44611581  0.35290133  1
  O  O344  1  0.21317603  0.77151572  0.36679132  1
  O  O345  1  0.29561313  0.19246423  0.36438594  1
  O  O346  1  0.72289100  0.68698790  0.36417560  1
  O  O347  1  0.77656963  0.26023085  0.37021422  1
  O  O348  1  0.52700955  0.83889651  0.37807996  1
  O  O349  1  0.97330297  0.14384799  0.38407401  1
  O  O350  1  0.02201010  0.63315976  0.37609692  1
  O  O351  1  0.47478332  0.34248701  0.38311362  1
  O  O352  1  0.86459427  0.93502406  0.38739654  1
  O  O353  1  0.65937051  0.04891202  0.39045304  1
  O  O354  1  0.14793295  0.44175871  0.38999718  1
  O  O355  1  0.36412834  0.54907108  0.39290925  1
  O  O356  1  0.34931920  0.92737735  0.41188436  1
  O  O357  1  0.16138431  0.05978699  0.41484060  1
  O  O358  1  0.66272111  0.42558547  0.41736182  1
  O  O359  1  0.84538928  0.55953989  0.41578801  1
  O  O360  1  0.43599387  0.03512026  0.99454228  1
  O  O361  1  0.06576171  0.92809632  0.00101308  1
  O  O362  1  0.56440419  0.54306843  0.00019826  1
  O  O363  1  0.94651057  0.45926701  0.98912843  1
  O  O364  1  0.23966740  0.78553294  0.01223732  1
  O  O365  1  0.26760134  0.21141677  0.00669648  1
  O  O366  1  0.73561550  0.70436045  0.01001745  1
  O  O367  1  0.76959543  0.31107294  0.00864514  1
  O  O368  1  0.55031024  0.84004198  0.02621749  1
  O  O369  1  0.96638962  0.12742741  0.02509973  1
  O  O370  1  0.03276979  0.63758038  0.02398724  1
  O  O371  1  0.46980760  0.13268312  0.42151062  1
  O  O372  1  0.02825554  0.85123489  0.43220558  1
  O  O373  1  0.96676679  0.33976073  0.42402149  1
  O  O374  1  0.55575300  0.64536211  0.42446985  1
  O  O375  1  0.74387754  0.77726181  0.43945060  1
  O  O376  1  0.27285562  0.31263039  0.43586347  1
  O  O377  1  0.25323826  0.73080214  0.44779872  1
  O  O378  1  0.93793277  0.05255587  0.45438214  1
  O  O379  1  0.56792587  0.92583728  0.44815409  1
  O  O380  1  0.06915756  0.55392884  0.44823996  1
  O  O381  1  0.44619235  0.44846231  0.45688246  1
  O  O382  1  0.45619944  0.55742971  0.53542975  1
  O  O383  1  0.63366321  0.42428404  0.53282469  1
  O  O384  1  0.13691543  0.05489649  0.53050465  1
  O  O385  1  0.94590749  0.91345135  0.53427852  1
  O  O386  1  0.93549179  0.54264189  0.56013952  1
  O  O387  1  0.15247622  0.43743074  0.56034223  1
  O  O388  1  0.66127052  0.04406660  0.56044796  1
  O  O389  1  0.44041501  0.94466727  0.56025663  1
  O  O390  1  0.80981850  0.32947187  0.56412774  1
  O  O391  1  0.28067149  0.63796671  0.57243096  1
  O  O392  1  0.32015890  0.13884688  0.56341018  1
  O  O393  1  0.76630026  0.82425168  0.57209256  1
  O  O394  1  0.50095051  0.26442642  0.58217459  1
  O  O395  1  0.58009137  0.68315344  0.58682788  1
  O  O396  1  0.00420954  0.18648793  0.58286753  1
  O  O397  1  0.08353197  0.77964256  0.58396893  1
  O  O398  1  0.35683932  0.45425622  0.60081062  1
  O  O399  1  0.73852419  0.51417941  0.59817983  1
  O  O400  1  0.23388603  0.96029045  0.59589852  1
  O  O401  1  0.85378672  0.01675533  0.59874616  1
  O  O402  1  0.19768786  0.27327897  0.61563463  1
  O  O403  1  0.89098496  0.69881034  0.61862959  1
  O  O404  1  0.69616525  0.20272425  0.61768019  1
  O  O405  1  0.39374527  0.78081636  0.61809991  1
  O  O406  1  0.98354008  0.38999470  0.62550042  1
  O  O407  1  0.10262010  0.58618132  0.62363587  1
  O  O408  1  0.48658636  0.07972904  0.62430972  1
  O  O409  1  0.60875286  0.88750212  0.62841859  1
  O  O410  1  0.09624814  0.09056681  0.64468044  1
  O  O411  1  0.99647650  0.88602399  0.64506465  1
  O  O412  1  0.58833117  0.38320701  0.64321389  1
  O  O413  1  0.49359489  0.59176938  0.64743674  1
  O  O414  1  0.89187069  0.20359406  0.65431044  1
  O  O415  1  0.19800242  0.77051030  0.65640660  1
  O  O416  1  0.38835541  0.26536280  0.65541088  1
  O  O417  1  0.69785924  0.70360885  0.65771821  1
  O  O418  1  0.34128571  0.96460449  0.67032322  1
  O  O419  1  0.74388435  0.01711199  0.67036418  1
  O  O420  1  0.24196483  0.45884180  0.67102210  1
  O  O421  1  0.84530004  0.51299297  0.67020496  1
  O  O422  1  0.57575514  0.17912019  0.68844210  1
  O  O423  1  0.50810279  0.79796818  0.68977045  1
  O  O424  1  0.07683353  0.29699347  0.68664991  1
  O  O425  1  0.01099008  0.67826861  0.68872874  1
  O  O426  1  0.25468722  0.13587424  0.70916632  1
  O  O427  1  0.83128950  0.84102093  0.70538053  1
  O  O428  1  0.75660453  0.33825408  0.70352172  1
  O  O429  1  0.32830155  0.63060013  0.70781213  1
  O  O430  1  0.94712240  0.04300399  0.71136529  1
  O  O431  1  0.13985240  0.93347677  0.71286392  1
  O  O432  1  0.63891793  0.53859743  0.71258148  1
  O  O433  1  0.44528047  0.42804618  0.71242387  1
  O  O434  1  0.44866162  0.04005478  0.73616594  1
  O  O435  1  0.64214053  0.93320214  0.73640173  1
  O  O436  1  0.13923935  0.53858587  0.73741880  1
  O  O437  1  0.94517545  0.42993983  0.73701254  1
  O  O438  1  0.32802789  0.84021786  0.74317493  1
  O  O439  1  0.75618214  0.13457818  0.74304906  1
  O  O440  1  0.82847301  0.63193971  0.74270564  1
  O  O441  1  0.25860841  0.33517197  0.74499327  1
  O  O442  1  0.01061694  0.79391099  0.76056903  1
  O  O443  1  0.07402750  0.18017531  0.75874976  1
  O  O444  1  0.50921973  0.67868159  0.75989643  1
  O  O445  1  0.58035421  0.29107629  0.76220955  1
  O  O446  1  0.84993206  0.96179128  0.77713895  1
  O  O447  1  0.24614131  0.01937992  0.77917631  1
  O  O448  1  0.74467852  0.45324324  0.77771476  1
  O  O449  1  0.34251031  0.50973032  0.77984436  1
  O  O450  1  0.69700058  0.77149400  0.79279631  1
  O  O451  1  0.39458218  0.20056851  0.79368405  1
  O  O452  1  0.19793109  0.70303468  0.79308291  1
  O  O453  1  0.88998803  0.26640539  0.79242818  1
  O  O454  1  0.49478722  0.88469989  0.80208308  1
  O  O455  1  0.59453123  0.08601480  0.80498239  1
  O  O456  1  0.99686642  0.58829496  0.80516376  1
  O  O457  1  0.09968587  0.38155984  0.80454538  1
  O  O458  1  0.60524073  0.58470968  0.82054239  1
  O  O459  1  0.48968896  0.38872939  0.82438223  1
  O  O460  1  0.10435753  0.88876162  0.82264089  1
  O  O461  1  0.98777734  0.08203328  0.82445086  1
  O  O462  1  0.39064292  0.69764683  0.83088637  1
  O  O463  1  0.70377180  0.26599657  0.83245450  1
  O  O464  1  0.89216903  0.77449260  0.83133917  1
  O  O465  1  0.19125665  0.19699230  0.83173398  1
  O  O466  1  0.84715026  0.45285058  0.84784658  1
  O  O467  1  0.23348517  0.51637158  0.85298287  1
  O  O468  1  0.74136136  0.95625601  0.85178837  1
  O  O469  1  0.37087659  0.02890609  0.85311399  1
  O  O470  1  0.08672676  0.70408312  0.86672920  1
  O  O471  1  0.00427261  0.28258098  0.86429110  1
  O  O472  1  0.57707548  0.78747716  0.86405319  1
  O  O473  1  0.52364202  0.21475973  0.87009463  1
  O  O474  1  0.77270896  0.63622764  0.87801479  1
  O  O475  1  0.32657435  0.33110991  0.88408301  1
  O  O476  1  0.27818483  0.84170997  0.87605247  1
  O  O477  1  0.82474467  0.13219736  0.88297313  1
  O  O478  1  0.43552280  0.53954574  0.88747586  1
  O  O479  1  0.64094198  0.42592201  0.89035640  1
  O  O480  1  0.15223207  0.03240438  0.88996629  1
  O  O481  1  0.93554608  0.92617703  0.89284348  1
  O  O482  1  0.95062172  0.54739073  0.91188354  1
  O  O483  1  0.13862951  0.41476767  0.91478425  1
  O  O484  1  0.63714472  0.04966423  0.91737353  1
  O  O485  1  0.45482314  0.91504668  0.91593627  1
  O  O486  1  0.86396783  0.44024656  0.49453040  1
  O  O487  1  0.23414887  0.54577351  0.50106655  1
  O  O488  1  0.73571284  0.93088977  0.50018124  1
  O  O489  1  0.35362975  0.01545497  0.48918605  1
  O  O490  1  0.06147316  0.68899510  0.51244643  1
  O  O491  1  0.03179889  0.26380342  0.50667262  1
  O  O492  1  0.56405331  0.77055397  0.51015102  1
  O  O493  1  0.53005187  0.16353290  0.50893210  1
  O  O494  1  0.74999291  0.63573793  0.52609857  1
  O  O495  1  0.33351597  0.34711264  0.52509371  1
  O  O496  1  0.26703568  0.83748160  0.52427482  1
  O  O497  1  0.83069719  0.34219007  0.92112947  1
  O  O498  1  0.27193267  0.62444771  0.93205104  1
  O  O499  1  0.33320656  0.13508384  0.92415359  1
  O  O500  1  0.74391537  0.82971026  0.92466498  1
  O  O501  1  0.55634901  0.69684772  0.93945098  1
  O  O502  1  0.02699912  0.16168421  0.93566052  1
  O  O503  1  0.04542755  0.74368205  0.94758939  1
  O  O504  1  0.36145066  0.42241933  0.95448033  1
  O  O505  1  0.73239712  0.54875501  0.94814362  1
  O  O506  1  0.23095454  0.92036883  0.94826144  1
  O  O507  1  0.85388827  0.02626816  0.95685791  1
