# generated using pymatgen
data_Li20La8Zr5O32
_symmetry_space_group_name_H-M   'P 1'
_cell_length_a   12.70453900
_cell_length_b   13.20454200
_cell_length_c   36.79830705
_cell_angle_alpha   90.00000000
_cell_angle_beta   90.00000000
_cell_angle_gamma   90.00000000
_symmetry_Int_Tables_number   1
_chemical_formula_structural   Li20La8Zr5O32
_chemical_formula_sum   'Li160 La64 Zr40 O256'
_cell_volume   6173.19636683
_cell_formula_units_Z   8
loop_
 _symmetry_equiv_pos_site_id
 _symmetry_equiv_pos_as_xyz
  1  'x, y, z'
loop_
 _atom_site_type_symbol
 _atom_site_label
 _atom_site_symmetry_multiplicity
 _atom_site_fract_x
 _atom_site_fract_y
 _atom_site_fract_z
 _atom_site_occupancy
  Li  Li0  1  0.72695895  0.88107557  0.98023050  1
  Li  Li1  1  0.73043259  0.04998392  0.00488454  1
  Li  Li2  1  0.22628210  0.62048614  0.98060093  1
  Li  Li3  1  0.23035159  0.45032326  0.00488779  1
  Li  Li4  1  0.82566036  0.23524057  0.04600923  1
  Li  Li5  1  0.59249818  0.76056772  0.04457455  1
  Li  Li6  1  0.32564425  0.26465039  0.04597121  1
  Li  Li7  1  0.09311832  0.73758991  0.04444783  1
  Li  Li8  1  0.27298800  0.09281467  0.07946263  1
  Li  Li9  1  0.14982830  0.92125030  0.07312093  1
  Li  Li10  1  0.77297542  0.40717323  0.07945270  1
  Li  Li11  1  0.65108790  0.57733703  0.07326752  1
  Li  Li12  1  0.39602661  0.33172012  0.10708708  1
  Li  Li13  1  0.01368781  0.66508066  0.10491290  1
  Li  Li14  1  0.89608562  0.16800304  0.10709919  1
  Li  Li15  1  0.51399321  0.83499853  0.10479755  1
  Li  Li16  1  0.31944925  0.92480852  0.10761343  1
  Li  Li17  1  0.06919364  0.07202775  0.10934954  1
  Li  Li18  1  0.56908985  0.42769704  0.10944785  1
  Li  Li19  1  0.82007655  0.57518816  0.10763302  1
  Li  Li20  1  0.31226689  0.43372040  0.16228517  1
  Li  Li21  1  0.07959347  0.56912204  0.16094278  1
  Li  Li22  1  0.58672481  0.93167986  0.16062277  1
  Li  Li23  1  0.81173086  0.06603870  0.16234297  1
  Li  Li24  1  0.01100565  0.16332540  0.16793124  1
  Li  Li25  1  0.40671838  0.82866979  0.16491333  1
  Li  Li26  1  0.51094830  0.33632763  0.16789982  1
  Li  Li27  1  0.90364463  0.67254082  0.16606349  1
  Li  Li28  1  0.14896331  0.41445729  0.19875532  1
  Li  Li29  1  0.26455947  0.59032845  0.19503030  1
  Li  Li30  1  0.64849448  0.08598871  0.19899874  1
  Li  Li31  1  0.76635975  0.90881415  0.19523438  1
  Li  Li32  1  0.33633844  0.74919768  0.22511108  1
  Li  Li33  1  0.08340007  0.24999104  0.22561708  1
  Li  Li34  1  0.83513240  0.75003343  0.22562205  1
  Li  Li35  1  0.58333746  0.24992959  0.22562031  1
  Li  Li36  1  0.76714591  0.59123443  0.25544531  1
  Li  Li37  1  0.64868277  0.41396806  0.25141066  1
  Li  Li38  1  0.26812909  0.90749876  0.25526390  1
  Li  Li39  1  0.14939585  0.08555417  0.25139979  1
  Li  Li40  1  0.90588740  0.82836861  0.28560220  1
  Li  Li41  1  0.51079674  0.16314361  0.28307480  1
  Li  Li42  1  0.40531576  0.67186212  0.28544672  1
  Li  Li43  1  0.01077815  0.33667451  0.28307636  1
  Li  Li44  1  0.81122551  0.43271156  0.28818663  1
  Li  Li45  1  0.58347857  0.56729302  0.28944982  1
  Li  Li46  1  0.08641677  0.93182899  0.28953537  1
  Li  Li47  1  0.31139323  0.06710121  0.28813871  1
  Li  Li48  1  0.81892881  0.92341555  0.34294175  1
  Li  Li49  1  0.56942862  0.07156521  0.34098846  1
  Li  Li50  1  0.06861228  0.42782441  0.34106684  1
  Li  Li51  1  0.31898983  0.57638218  0.34291290  1
  Li  Li52  1  0.51359573  0.66337300  0.34528682  1
  Li  Li53  1  0.89564127  0.33193077  0.34410581  1
  Li  Li54  1  0.01359278  0.83653259  0.34526814  1
  Li  Li55  1  0.39592085  0.16777134  0.34405786  1
  Li  Li56  1  0.64959341  0.92141413  0.37769748  1
  Li  Li57  1  0.77270145  0.09176284  0.37083649  1
  Li  Li58  1  0.14953092  0.57842885  0.37766584  1
  Li  Li59  1  0.27263627  0.40818188  0.37082874  1
  Li  Li60  1  0.82562146  0.26280598  0.40469563  1
  Li  Li61  1  0.59108146  0.73785965  0.40521721  1
  Li  Li62  1  0.32570960  0.23707260  0.40468468  1
  Li  Li63  1  0.09109885  0.76204125  0.40519363  1
  Li  Li64  1  0.22960215  0.04992201  0.44545602  1
  Li  Li65  1  0.22750014  0.88049765  0.46978656  1
  Li  Li66  1  0.72958574  0.45004576  0.44544373  1
  Li  Li67  1  0.72654127  0.61912416  0.47000444  1
  Li  Li68  1  0.39720746  0.28360624  0.46003366  1
  Li  Li69  1  0.04808435  0.77650213  0.46249609  1
  Li  Li70  1  0.89707948  0.21595342  0.45995784  1
  Li  Li71  1  0.54793679  0.72344949  0.46249217  1
  Li  Li72  1  0.06297607  0.11980858  0.46799187  1
  Li  Li73  1  0.56292448  0.38004569  0.46793412  1
  Li  Li74  1  0.56341657  0.11956077  0.98289320  1
  Li  Li75  1  0.06362326  0.37995247  0.98246078  1
  Li  Li76  1  0.54749779  0.77811897  0.98751473  1
  Li  Li77  1  0.89704739  0.28356557  0.99079541  1
  Li  Li78  1  0.04535655  0.72554390  0.98779334  1
  Li  Li79  1  0.39649946  0.21593827  0.99077339  1
  Li  Li80  1  0.47408985  0.12015564  0.48074643  1
  Li  Li81  1  0.46731859  0.94989559  0.50494836  1
  Li  Li82  1  0.97328308  0.37905537  0.48078193  1
  Li  Li83  1  0.96729706  0.54990583  0.50493331  1
  Li  Li84  1  0.37474298  0.76306512  0.54564378  1
  Li  Li85  1  0.60788563  0.23853508  0.54478354  1
  Li  Li86  1  0.87476022  0.73619090  0.54556729  1
  Li  Li87  1  0.10791365  0.26140257  0.54477393  1
  Li  Li88  1  0.92680436  0.90659861  0.57955632  1
  Li  Li89  1  0.04997954  0.07869774  0.57323827  1
  Li  Li90  1  0.42657264  0.59285168  0.57947443  1
  Li  Li91  1  0.54993538  0.42122318  0.57323626  1
  Li  Li92  1  0.80347919  0.66871954  0.60667720  1
  Li  Li93  1  0.18652589  0.33565342  0.60493578  1
  Li  Li94  1  0.30371444  0.83121791  0.60653285  1
  Li  Li95  1  0.68656727  0.16421849  0.60495268  1
  Li  Li96  1  0.88024290  0.07418879  0.60821839  1
  Li  Li97  1  0.13150303  0.92728020  0.60946539  1
  Li  Li98  1  0.63112522  0.57232368  0.60947950  1
  Li  Li99  1  0.38020169  0.42576973  0.60822162  1
  Li  Li100  1  0.88843401  0.56582162  0.66207981  1
  Li  Li101  1  0.11480151  0.43149363  0.66064083  1
  Li  Li102  1  0.61561329  0.06874214  0.66073862  1
  Li  Li103  1  0.38841838  0.93414892  0.66205917  1
  Li  Li104  1  0.18892500  0.83651217  0.66759565  1
  Li  Li105  1  0.79434848  0.17197690  0.66516722  1
  Li  Li106  1  0.68882473  0.66349539  0.66757903  1
  Li  Li107  1  0.29420939  0.32807032  0.66517555  1
  Li  Li108  1  0.05091332  0.58533279  0.69872699  1
  Li  Li109  1  0.93291431  0.40881740  0.69522156  1
  Li  Li110  1  0.55089114  0.91466698  0.69871640  1
  Li  Li111  1  0.43298458  0.09120465  0.69519110  1
  Li  Li112  1  0.86414085  0.25011679  0.72516052  1
  Li  Li113  1  0.11676455  0.74922576  0.72498476  1
  Li  Li114  1  0.36416263  0.24999784  0.72513863  1
  Li  Li115  1  0.61675152  0.75078864  0.72498546  1
  Li  Li116  1  0.43349604  0.40802129  0.75511077  1
  Li  Li117  1  0.55138010  0.58645890  0.75140285  1
  Li  Li118  1  0.93357254  0.09204965  0.75507165  1
  Li  Li119  1  0.05211549  0.91367514  0.75130517  1
  Li  Li120  1  0.29541214  0.17212329  0.78491512  1
  Li  Li121  1  0.69078389  0.83682337  0.78304096  1
  Li  Li122  1  0.79550226  0.32829537  0.78491354  1
  Li  Li123  1  0.19069831  0.66329730  0.78307469  1
  Li  Li124  1  0.38872620  0.56606392  0.78813121  1
  Li  Li125  1  0.61455565  0.43211528  0.78949943  1
  Li  Li126  1  0.11445493  0.06838653  0.78955353  1
  Li  Li127  1  0.89005800  0.93387295  0.78799137  1
  Li  Li128  1  0.38153734  0.07509976  0.84270832  1
  Li  Li129  1  0.62923260  0.92913795  0.84103511  1
  Li  Li130  1  0.12909989  0.57128333  0.84114212  1
  Li  Li131  1  0.88154608  0.42525231  0.84276682  1
  Li  Li132  1  0.68875201  0.33586543  0.84462423  1
  Li  Li133  1  0.30272032  0.66847789  0.84381646  1
  Li  Li134  1  0.18878054  0.16445227  0.84467835  1
  Li  Li135  1  0.80392572  0.83330522  0.84349754  1
  Li  Li136  1  0.55019192  0.07968147  0.87759263  1
  Li  Li137  1  0.42687769  0.90628047  0.87074146  1
  Li  Li138  1  0.05014149  0.42141307  0.87762691  1
  Li  Li139  1  0.92649549  0.59371140  0.87091474  1
  Li  Li140  1  0.37500327  0.73528840  0.90475387  1
  Li  Li141  1  0.60801950  0.26357231  0.90578630  1
  Li  Li142  1  0.87490230  0.76501436  0.90463124  1
  Li  Li143  1  0.10881423  0.23891655  0.90536306  1
  Li  Li144  1  0.96892233  0.94958047  0.94533551  1
  Li  Li145  1  0.97382509  0.11883188  0.96973403  1
  Li  Li146  1  0.47123811  0.54989105  0.94547535  1
  Li  Li147  1  0.47433077  0.38071442  0.96996260  1
  Li  Li148  1  0.80387863  0.71620360  0.95968222  1
  Li  Li149  1  0.15265533  0.22280034  0.96243564  1
  Li  Li150  1  0.30333034  0.78462619  0.95986893  1
  Li  Li151  1  0.65396479  0.27496824  0.96279904  1
  Li  Li152  1  0.13586280  0.88066592  0.96764150  1
  Li  Li153  1  0.63711463  0.62092901  0.96817579  1
  Li  Li154  1  0.63525411  0.88036472  0.48302039  1
  Li  Li155  1  0.13506727  0.61931959  0.48297042  1
  Li  Li156  1  0.65297774  0.22471936  0.48777207  1
  Li  Li157  1  0.30315575  0.71579435  0.49047271  1
  Li  Li158  1  0.15282006  0.27533989  0.48772916  1
  Li  Li159  1  0.80319834  0.78410254  0.49046039  1
  La  La160  1  0.22849953  0.04161392  0.00373403  1
  La  La161  1  0.72851402  0.45748851  0.00348061  1
  La  La162  1  0.83435876  0.75426996  0.04568633  1
  La  La163  1  0.33460623  0.74564365  0.04580475  1
  La  La164  1  0.58038654  0.25145179  0.05288826  1
  La  La165  1  0.08053361  0.24844364  0.05277797  1
  La  La166  1  0.71484910  0.00346369  0.08834684  1
  La  La167  1  0.21449113  0.49649012  0.08861375  1
  La  La168  1  0.45976850  0.11934275  0.13696333  1
  La  La169  1  0.95974967  0.38000001  0.13690353  1
  La  La170  1  0.46213957  0.61967647  0.13289718  1
  La  La171  1  0.96208561  0.88000137  0.13300446  1
  La  La172  1  0.71157650  0.50438639  0.17921093  1
  La  La173  1  0.21156094  0.99512945  0.17920717  1
  La  La174  1  0.33563217  0.24988574  0.22528613  1
  La  La175  1  0.83568254  0.24971831  0.22531951  1
  La  La176  1  0.08473702  0.75003804  0.22531380  1
  La  La177  1  0.58470256  0.74980959  0.22525975  1
  La  La178  1  0.21155508  0.50443467  0.27137775  1
  La  La179  1  0.71149407  0.99521376  0.27135595  1
  La  La180  1  0.96186876  0.61971057  0.31771013  1
  La  La181  1  0.46192040  0.88009492  0.31765233  1
  La  La182  1  0.95965216  0.11940967  0.31354435  1
  La  La183  1  0.45951836  0.38004368  0.31357978  1
  La  La184  1  0.21449306  0.00339626  0.36209959  1
  La  La185  1  0.71438476  0.49640177  0.36206129  1
  La  La186  1  0.83404511  0.74551547  0.40485064  1
  La  La187  1  0.33412486  0.75412899  0.40481588  1
  La  La188  1  0.58036899  0.24844117  0.39772548  1
  La  La189  1  0.08035308  0.25125259  0.39773137  1
  La  La190  1  0.72796146  0.04190258  0.44690426  1
  La  La191  1  0.22793121  0.45783697  0.44689381  1
  La  La192  1  0.97151327  0.95805030  0.50373780  1
  La  La193  1  0.47143900  0.54171224  0.50370730  1
  La  La194  1  0.36553061  0.24607198  0.54589738  1
  La  La195  1  0.86550681  0.25363671  0.54593524  1
  La  La196  1  0.61968086  0.74836372  0.55272819  1
  La  La197  1  0.11967470  0.75143517  0.55270363  1
  La  La198  1  0.48526444  0.99655618  0.58831379  1
  La  La199  1  0.98517870  0.50336623  0.58829672  1
  La  La200  1  0.73989655  0.88031227  0.63696238  1
  La  La201  1  0.23992676  0.61967809  0.63694767  1
  La  La202  1  0.73780013  0.38016766  0.63293817  1
  La  La203  1  0.23782528  0.11978495  0.63289070  1
  La  La204  1  0.48866645  0.49573231  0.67918762  1
  La  La205  1  0.98871689  0.00437171  0.67917885  1
  La  La206  1  0.86450649  0.74997880  0.72513760  1
  La  La207  1  0.36450225  0.75013847  0.72514265  1
  La  La208  1  0.11527237  0.25009488  0.72521275  1
  La  La209  1  0.61521504  0.25024609  0.72523053  1
  La  La210  1  0.98875467  0.49584659  0.77117141  1
  La  La211  1  0.48876789  0.00451015  0.77115702  1
  La  La212  1  0.23826155  0.38061044  0.81747106  1
  La  La213  1  0.73834090  0.11990561  0.81729962  1
  La  La214  1  0.24040142  0.88061090  0.81344428  1
  La  La215  1  0.74047202  0.61978834  0.81357693  1
  La  La216  1  0.98551107  0.99717954  0.86206526  1
  La  La217  1  0.48557231  0.50369136  0.86208300  1
  La  La218  1  0.36586016  0.25468516  0.90481317  1
  La  La219  1  0.86600267  0.24620961  0.90481697  1
  La  La220  1  0.62003915  0.75194609  0.89761589  1
  La  La221  1  0.11973328  0.74885519  0.89761775  1
  La  La222  1  0.47149268  0.95874801  0.94655721  1
  La  La223  1  0.97189931  0.54258737  0.94693336  1
  Zr  Zr224  1  0.96294886  0.00077926  0.03878612  1
  Zr  Zr225  1  0.46682410  0.00315052  0.04646504  1
  Zr  Zr226  1  0.46295425  0.49909303  0.03888013  1
  Zr  Zr227  1  0.96678579  0.49660797  0.04640952  1
  Zr  Zr228  1  0.70874817  0.25049229  0.13906875  1
  Zr  Zr229  1  0.71062297  0.75349500  0.13453615  1
  Zr  Zr230  1  0.20876308  0.24897016  0.13901825  1
  Zr  Zr231  1  0.21067664  0.74599874  0.13470266  1
  Zr  Zr232  1  0.45893794  0.50439104  0.22398454  1
  Zr  Zr233  1  0.95908252  0.50397818  0.22662618  1
  Zr  Zr234  1  0.95901346  0.99542956  0.22408617  1
  Zr  Zr235  1  0.45914600  0.99565023  0.22646451  1
  Zr  Zr236  1  0.21038168  0.75376072  0.31587828  1
  Zr  Zr237  1  0.20875686  0.25062502  0.31164991  1
  Zr  Zr238  1  0.71022606  0.74582028  0.31588146  1
  Zr  Zr239  1  0.70877380  0.24905645  0.31164067  1
  Zr  Zr240  1  0.96626941  0.00325067  0.40405367  1
  Zr  Zr241  1  0.46254546  0.00104161  0.41176744  1
  Zr  Zr242  1  0.46623817  0.49650959  0.40403163  1
  Zr  Zr243  1  0.96248417  0.49865861  0.41179068  1
  Zr  Zr244  1  0.23701863  0.99911193  0.53890094  1
  Zr  Zr245  1  0.73310816  0.99658258  0.54641595  1
  Zr  Zr246  1  0.73693508  0.50058052  0.53893534  1
  Zr  Zr247  1  0.23301296  0.50321923  0.54640162  1
  Zr  Zr248  1  0.49088235  0.74921009  0.63880403  1
  Zr  Zr249  1  0.48935852  0.24631106  0.63466884  1
  Zr  Zr250  1  0.99088859  0.75073051  0.63882518  1
  Zr  Zr251  1  0.98936835  0.25366615  0.63467438  1
  Zr  Zr252  1  0.74103355  0.49609209  0.72403149  1
  Zr  Zr253  1  0.24107774  0.49567535  0.72627231  1
  Zr  Zr254  1  0.24111504  0.00426967  0.72398479  1
  Zr  Zr255  1  0.74107027  0.00450020  0.72631483  1
  Zr  Zr256  1  0.98981912  0.24656194  0.81582806  1
  Zr  Zr257  1  0.99152064  0.74940110  0.81145221  1
  Zr  Zr258  1  0.48974220  0.25398926  0.81587846  1
  Zr  Zr259  1  0.49143895  0.75081055  0.81146075  1
  Zr  Zr260  1  0.23332781  0.99710405  0.90385546  1
  Zr  Zr261  1  0.73711199  0.99989430  0.91156493  1
  Zr  Zr262  1  0.73357953  0.50348334  0.90408015  1
  Zr  Zr263  1  0.23739570  0.50133821  0.91167969  1
  O  O264  1  0.42087100  0.06865420  0.99608691  1
  O  O265  1  0.04476791  0.98350906  0.98949941  1
  O  O266  1  0.54550307  0.51658173  0.98967875  1
  O  O267  1  0.92106205  0.43104508  0.99601896  1
  O  O268  1  0.19437123  0.76008962  0.99871573  1
  O  O269  1  0.22277136  0.21648300  0.00731165  1
  O  O270  1  0.69470090  0.74105954  0.99847244  1
  O  O271  1  0.72312495  0.28269119  0.00755653  1
  O  O272  1  0.48474022  0.85647772  0.02477504  1
  O  O273  1  0.93191679  0.15382029  0.02207549  1
  O  O274  1  0.98476792  0.64297365  0.02439495  1
  O  O275  1  0.43188426  0.34606103  0.02208911  1
  O  O276  1  0.81519395  0.94150295  0.02633274  1
  O  O277  1  0.61266023  0.07375017  0.03624897  1
  O  O278  1  0.11279175  0.42626721  0.03635613  1
  O  O279  1  0.31544263  0.55876571  0.02632773  1
  O  O280  1  0.30643156  0.95326769  0.05651952  1
  O  O281  1  0.11475138  0.06289600  0.05919187  1
  O  O282  1  0.61498029  0.43658120  0.05923132  1
  O  O283  1  0.80637629  0.54668405  0.05646821  1
  O  O284  1  0.41929684  0.14853187  0.06962737  1
  O  O285  1  0.00218769  0.85491434  0.06048457  1
  O  O286  1  0.91930213  0.35128403  0.06960072  1
  O  O287  1  0.50211718  0.64444088  0.06087394  1
  O  O288  1  0.74587689  0.19784104  0.08682524  1
  O  O289  1  0.68099715  0.80706257  0.08175366  1
  O  O290  1  0.24568071  0.30125616  0.08673160  1
  O  O291  1  0.18102033  0.69209681  0.08190104  1
  O  O292  1  0.91062839  0.02776620  0.09485603  1
  O  O293  1  0.52156440  0.97514133  0.09918647  1
  O  O294  1  0.02094201  0.52488349  0.09922962  1
  O  O295  1  0.41058220  0.47161035  0.09485145  1
  O  O296  1  0.05467012  0.21510351  0.11884454  1
  O  O297  1  0.36490011  0.78389123  0.11360088  1
  O  O298  1  0.55481867  0.28455154  0.11888561  1
  O  O299  1  0.86486617  0.71636498  0.11361645  1
  O  O300  1  0.26719742  0.09964880  0.12917902  1
  O  O301  1  0.16289697  0.89667441  0.12362379  1
  O  O302  1  0.76742603  0.39980266  0.12921936  1
  O  O303  1  0.66334961  0.60268863  0.12367418  1
  O  O304  1  0.15827413  0.40047828  0.14755234  1
  O  O305  1  0.26929387  0.59608279  0.14373934  1
  O  O306  1  0.65806464  0.09901732  0.14773537  1
  O  O307  1  0.76779996  0.90392921  0.14381946  1
  O  O308  1  0.36096889  0.28857256  0.15796480  1
  O  O309  1  0.05789989  0.71467570  0.15342786  1
  O  O310  1  0.86100033  0.21103758  0.15796992  1
  O  O311  1  0.55828291  0.78556202  0.15333009  1
  O  O312  1  0.91218163  0.53160099  0.17229061  1
  O  O313  1  0.51755559  0.47790505  0.16985808  1
  O  O314  1  0.01743621  0.02170216  0.16992444  1
  O  O315  1  0.41101327  0.96876859  0.17229251  1
  O  O316  1  0.67562976  0.30819518  0.19068535  1
  O  O317  1  0.74569850  0.70005341  0.18737994  1
  O  O318  1  0.17557307  0.19147634  0.19066107  1
  O  O319  1  0.24504544  0.79935766  0.18747877  1
  O  O320  1  0.99382024  0.35590947  0.20801132  1
  O  O321  1  0.42730920  0.65044881  0.20401005  1
  O  O322  1  0.49395043  0.14380601  0.20798636  1
  O  O323  1  0.92628589  0.84928771  0.20405362  1
  O  O324  1  0.30535499  0.45207259  0.21335921  1
  O  O325  1  0.11265570  0.55947994  0.21316335  1
  O  O326  1  0.61287781  0.94044623  0.21317397  1
  O  O327  1  0.80549375  0.04790946  0.21341669  1
  O  O328  1  0.80566253  0.45169935  0.23719689  1
  O  O329  1  0.61303223  0.55910067  0.23726619  1
  O  O330  1  0.11300837  0.94039081  0.23725400  1
  O  O331  1  0.30569155  0.04800212  0.23718582  1
  O  O332  1  0.92604296  0.65007106  0.24659228  1
  O  O333  1  0.49350185  0.35602869  0.24253974  1
  O  O334  1  0.42626999  0.84952309  0.24653333  1
  O  O335  1  0.99366944  0.14369860  0.24259845  1
  O  O336  1  0.24542151  0.70001697  0.26318736  1
  O  O337  1  0.17568977  0.30844962  0.26008256  1
  O  O338  1  0.74479081  0.79991075  0.26321564  1
  O  O339  1  0.67556482  0.19136912  0.26007064  1
  O  O340  1  0.41191620  0.53143810  0.27823731  1
  O  O341  1  0.01779269  0.47807061  0.28075899  1
  O  O342  1  0.51770611  0.02162916  0.28070030  1
  O  O343  1  0.91146741  0.96848087  0.27824775  1
  O  O344  1  0.55800710  0.71383813  0.29703842  1
  O  O345  1  0.86099574  0.28853517  0.29277662  1
  O  O346  1  0.05814637  0.78588734  0.29703855  1
  O  O347  1  0.36104634  0.21120608  0.29278144  1
  O  O348  1  0.76856305  0.59591427  0.30675709  1
  O  O349  1  0.65810217  0.40041506  0.30277804  1
  O  O350  1  0.26806565  0.90379411  0.30663477  1
  O  O351  1  0.15831799  0.09919583  0.30279232  1
  O  O352  1  0.66263721  0.89651212  0.32711095  1
  O  O353  1  0.76715556  0.09964752  0.32125996  1
  O  O354  1  0.16289138  0.60314018  0.32707626  1
  O  O355  1  0.26726729  0.40008151  0.32124531  1
  O  O356  1  0.86484734  0.78357153  0.33688407  1
  O  O357  1  0.55474741  0.21500750  0.33186212  1
  O  O358  1  0.36488338  0.71625791  0.33690005  1
  O  O359  1  0.05473204  0.28454252  0.33184447  1
  O  O360  1  0.41022208  0.02761757  0.35569175  1
  O  O361  1  0.02128358  0.97564777  0.35129023  1
  O  O362  1  0.52115457  0.52416658  0.35125696  1
  O  O363  1  0.91028480  0.47193725  0.35569884  1
  O  O364  1  0.18082648  0.80805034  0.36857266  1
  O  O365  1  0.24558789  0.19828195  0.36393141  1
  O  O366  1  0.68066839  0.69172788  0.36857340  1
  O  O367  1  0.74552690  0.30149016  0.36393975  1
  O  O368  1  0.50172274  0.85525198  0.38998976  1
  O  O369  1  0.91852503  0.14823441  0.38088451  1
  O  O370  1  0.00171623  0.64442188  0.38995829  1
  O  O371  1  0.41856377  0.35148009  0.38085868  1
  O  O372  1  0.80586771  0.95278044  0.39406234  1
  O  O373  1  0.61438935  0.06288176  0.39133052  1
  O  O374  1  0.11432640  0.43676433  0.39132992  1
  O  O375  1  0.30584637  0.54698844  0.39403652  1
  O  O376  1  0.31477734  0.94163855  0.42425056  1
  O  O377  1  0.11204416  0.07364095  0.41425842  1
  O  O378  1  0.61200015  0.42618687  0.41424033  1
  O  O379  1  0.81471893  0.55815364  0.42418808  1
  O  O380  1  0.43162313  0.15430140  0.42843667  1
  O  O381  1  0.98448306  0.85655271  0.42568015  1
  O  O382  1  0.93146095  0.34541567  0.42846374  1
  O  O383  1  0.48451371  0.64316092  0.42570209  1
  O  O384  1  0.72237799  0.21667732  0.44306259  1
  O  O385  1  0.69490675  0.75922565  0.45188708  1
  O  O386  1  0.22236250  0.28305077  0.44306062  1
  O  O387  1  0.19502917  0.74058712  0.45185336  1
  O  O388  1  0.92043169  0.06861409  0.45444951  1
  O  O389  1  0.54440803  0.98376828  0.46098812  1
  O  O390  1  0.04434372  0.51604304  0.46097654  1
  O  O391  1  0.42037692  0.43110735  0.45442608  1
  O  O392  1  0.77890157  0.93114099  0.49609984  1
  O  O393  1  0.15480404  0.01665160  0.48972887  1
  O  O394  1  0.65472377  0.48318833  0.48971741  1
  O  O395  1  0.27879224  0.56869243  0.49608252  1
  O  O396  1  0.00537094  0.23988200  0.49873340  1
  O  O397  1  0.97747916  0.78334706  0.50725489  1
  O  O398  1  0.50545265  0.25996469  0.49874470  1
  O  O399  1  0.47753309  0.71634028  0.50727225  1
  O  O400  1  0.71494689  0.14319726  0.52461434  1
  O  O401  1  0.26911483  0.84642054  0.52205233  1
  O  O402  1  0.21492757  0.35666190  0.52460627  1
  O  O403  1  0.76901768  0.65323537  0.52204687  1
  O  O404  1  0.38471799  0.05899938  0.52652418  1
  O  O405  1  0.58700377  0.92605851  0.53616364  1
  O  O406  1  0.08690483  0.57378364  0.53617385  1
  O  O407  1  0.88462213  0.44067513  0.52653255  1
  O  O408  1  0.89332688  0.04656975  0.55663967  1
  O  O409  1  0.08542122  0.93686653  0.55923808  1
  O  O410  1  0.58536540  0.56287462  0.55922778  1
  O  O411  1  0.39325110  0.45333785  0.55663029  1
  O  O412  1  0.78065345  0.85111047  0.56951348  1
  O  O413  1  0.19805407  0.14487319  0.56089107  1
  O  O414  1  0.28062413  0.64875921  0.56948459  1
  O  O415  1  0.69790246  0.35494610  0.56093606  1
  O  O416  1  0.45436208  0.80102297  0.58648023  1
  O  O417  1  0.51890724  0.19261040  0.58187776  1
  O  O418  1  0.95433921  0.69893622  0.58650136  1
  O  O419  1  0.01895958  0.30726667  0.58188107  1
  O  O420  1  0.28948201  0.97168463  0.59488217  1
  O  O421  1  0.67832032  0.02447479  0.59918358  1
  O  O422  1  0.17828814  0.47544189  0.59918081  1
  O  O423  1  0.78951151  0.52817323  0.59487719  1
  O  O424  1  0.14517419  0.78453688  0.61870520  1
  O  O425  1  0.83512615  0.21591533  0.61370638  1
  O  O426  1  0.64517676  0.71532650  0.61869243  1
  O  O427  1  0.33511639  0.28403667  0.61370650  1
  O  O428  1  0.93230695  0.90025580  0.62919328  1
  O  O429  1  0.03725774  0.10303691  0.62371565  1
  O  O430  1  0.43237267  0.59969958  0.62913490  1
  O  O431  1  0.53723721  0.39699908  0.62371896  1
  O  O432  1  0.04144463  0.59925313  0.64749283  1
  O  O433  1  0.93171775  0.40388587  0.64381959  1
  O  O434  1  0.54147320  0.90069027  0.64748491  1
  O  O435  1  0.43162260  0.09612219  0.64378998  1
  O  O436  1  0.83888104  0.71131420  0.65776636  1
  O  O437  1  0.14182080  0.28554993  0.65342936  1
  O  O438  1  0.33894501  0.78869710  0.65774855  1
  O  O439  1  0.64191469  0.21458277  0.65340890  1
  O  O440  1  0.28877104  0.46845632  0.67206700  1
  O  O441  1  0.68252474  0.52200150  0.66985350  1
  O  O442  1  0.18246167  0.97805473  0.66984828  1
  O  O443  1  0.78842242  0.03169000  0.67206722  1
  O  O444  1  0.52457440  0.69150696  0.69040206  1
  O  O445  1  0.45482063  0.29983508  0.68745959  1
  O  O446  1  0.02453367  0.80846888  0.69043311  1
  O  O447  1  0.95454388  0.20012414  0.68743621  1
  O  O448  1  0.20614321  0.64368152  0.70753923  1
  O  O449  1  0.77361239  0.34989856  0.70408443  1
  O  O450  1  0.70617929  0.85646108  0.70760574  1
  O  O451  1  0.27365071  0.15034534  0.70401323  1
  O  O452  1  0.89453951  0.54834861  0.71324154  1
  O  O453  1  0.08710674  0.44058878  0.71305890  1
  O  O454  1  0.58712735  0.05967577  0.71309941  1
  O  O455  1  0.39457090  0.95193706  0.71319817  1
  O  O456  1  0.39439533  0.54831271  0.73704469  1
  O  O457  1  0.58713791  0.44101221  0.73724547  1
  O  O458  1  0.08726673  0.05933046  0.73722847  1
  O  O459  1  0.89450481  0.95217800  0.73697416  1
  O  O460  1  0.27359574  0.34969111  0.74632744  1
  O  O461  1  0.70637268  0.64434047  0.74256208  1
  O  O462  1  0.77355611  0.15053424  0.74648430  1
  O  O463  1  0.20639528  0.85592167  0.74248723  1
  O  O464  1  0.95462087  0.30007622  0.76305980  1
  O  O465  1  0.02422371  0.69155855  0.75982083  1
  O  O466  1  0.45455167  0.20052776  0.76313145  1
  O  O467  1  0.52405061  0.80836830  0.75977746  1
  O  O468  1  0.78901811  0.46900414  0.77818667  1
  O  O469  1  0.18263685  0.52189662  0.78044189  1
  O  O470  1  0.68241990  0.97827358  0.78042931  1
  O  O471  1  0.28909323  0.03138654  0.77814585  1
  O  O472  1  0.64202315  0.28600450  0.79685147  1
  O  O473  1  0.33910727  0.71151460  0.79261870  1
  O  O474  1  0.14213733  0.21463274  0.79683494  1
  O  O475  1  0.83934608  0.78900064  0.79252968  1
  O  O476  1  0.43199195  0.40423818  0.80653349  1
  O  O477  1  0.54223793  0.59949148  0.80276965  1
  O  O478  1  0.93246710  0.09621515  0.80647470  1
  O  O479  1  0.04236899  0.90065818  0.80259744  1
  O  O480  1  0.53788927  0.10331226  0.82691151  1
  O  O481  1  0.43343699  0.90046001  0.82119309  1
  O  O482  1  0.03780330  0.39728746  0.82692452  1
  O  O483  1  0.93329732  0.59992195  0.82128293  1
  O  O484  1  0.33547293  0.21621298  0.83669878  1
  O  O485  1  0.64548918  0.78537297  0.83166241  1
  O  O486  1  0.83549439  0.28421325  0.83661910  1
  O  O487  1  0.14533016  0.71498678  0.83171203  1
  O  O488  1  0.78955892  0.97314133  0.85553296  1
  O  O489  1  0.17858945  0.02495806  0.85109094  1
  O  O490  1  0.67894281  0.47539447  0.85130826  1
  O  O491  1  0.28955810  0.52816645  0.85564284  1
  O  O492  1  0.01856783  0.19296368  0.86859463  1
  O  O493  1  0.95436271  0.80215776  0.86367167  1
  O  O494  1  0.51842635  0.30802994  0.86864991  1
  O  O495  1  0.45461601  0.69900407  0.86379795  1
  O  O496  1  0.69800321  0.14574611  0.89006042  1
  O  O497  1  0.28065213  0.85161512  0.88060855  1
  O  O498  1  0.19820557  0.35573716  0.88985795  1
  O  O499  1  0.78097580  0.64877424  0.88079001  1
  O  O500  1  0.39372511  0.04692037  0.89386169  1
  O  O501  1  0.58541647  0.93761744  0.89126784  1
  O  O502  1  0.08518297  0.56344847  0.89140000  1
  O  O503  1  0.89382363  0.45330647  0.89400082  1
  O  O504  1  0.88516213  0.05876710  0.92401547  1
  O  O505  1  0.08733337  0.92664908  0.91407136  1
  O  O506  1  0.58772409  0.57418851  0.91408594  1
  O  O507  1  0.38536525  0.44210137  0.92405146  1
  O  O508  1  0.76868124  0.84672945  0.92823401  1
  O  O509  1  0.21533475  0.14355906  0.92547300  1
  O  O510  1  0.26814031  0.65450790  0.92838467  1
  O  O511  1  0.71538140  0.35756991  0.92630351  1
  O  O512  1  0.47727344  0.78392860  0.94290763  1
  O  O513  1  0.50532261  0.24061071  0.95182664  1
  O  O514  1  0.97669043  0.71765011  0.94301313  1
  O  O515  1  0.00534949  0.25930063  0.95175806  1
  O  O516  1  0.27903002  0.93161744  0.95423213  1
  O  O517  1  0.65507303  0.01661262  0.96084758  1
  O  O518  1  0.15506952  0.48381820  0.96084208  1
  O  O519  1  0.77953199  0.56917852  0.95441684  1
