# generated using pymatgen
data_Li21La9Zr5O34
_symmetry_space_group_name_H-M   'P 1'
_cell_length_a   12.70453900
_cell_length_b   13.20454200
_cell_length_c   38.99123685
_cell_angle_alpha   90.00000000
_cell_angle_beta   90.00000000
_cell_angle_gamma   90.00000000
_symmetry_Int_Tables_number   1
_chemical_formula_structural   Li21La9Zr5O34
_chemical_formula_sum   'Li168 La72 Zr40 O272'
_cell_volume   6541.07704872
_cell_formula_units_Z   8
loop_
 _symmetry_equiv_pos_site_id
 _symmetry_equiv_pos_as_xyz
  1  'x, y, z'
loop_
 _atom_site_type_symbol
 _atom_site_label
 _atom_site_symmetry_multiplicity
 _atom_site_fract_x
 _atom_site_fract_y
 _atom_site_fract_z
 _atom_site_occupancy
  Li  Li0  1  0.00065896  0.95094495  0.00229520  1
  Li  Li1  1  0.62008860  0.92386150  0.99916706  1
  Li  Li2  1  0.16704817  0.48377425  0.99511262  1
  Li  Li3  1  0.50902546  0.66594824  0.99015809  1
  Li  Li4  1  0.68278750  0.71816745  0.01645531  1
  Li  Li5  1  0.02003016  0.38926742  0.02682365  1
  Li  Li6  1  0.26930936  0.84167789  0.96952496  1
  Li  Li7  1  0.49383497  0.17861915  0.99185082  1
  Li  Li8  1  0.82253671  0.90645347  0.01909805  1
  Li  Li9  1  0.86571633  0.06029844  0.02399415  1
  Li  Li10  1  0.28330916  0.66404955  0.03620563  1
  Li  Li11  1  0.38842215  0.49903039  0.01999117  1
  Li  Li12  1  0.91294841  0.24498726  0.04709673  1
  Li  Li13  1  0.72209507  0.81476691  0.05981282  1
  Li  Li14  1  0.46173672  0.29410610  0.05428995  1
  Li  Li15  1  0.20671496  0.82294542  0.04861428  1
  Li  Li16  1  0.38537263  0.12638528  0.08656599  1
  Li  Li17  1  0.27703612  0.95960308  0.08951443  1
  Li  Li18  1  0.91640545  0.43415206  0.08035579  1
  Li  Li19  1  0.76576128  0.64670890  0.08484725  1
  Li  Li20  1  0.53309039  0.38714340  0.11157895  1
  Li  Li21  1  0.17256002  0.72344925  0.09821946  1
  Li  Li22  1  0.01068516  0.21122970  0.10166981  1
  Li  Li23  1  0.64662768  0.87684173  0.11613691  1
  Li  Li24  1  0.48934028  0.97592006  0.11291033  1
  Li  Li25  1  0.18447748  0.11734511  0.12291610  1
  Li  Li26  1  0.74328573  0.48381820  0.11637784  1
  Li  Li27  1  0.92426855  0.59463855  0.11757138  1
  Li  Li28  1  0.44698691  0.47699319  0.16862767  1
  Li  Li29  1  0.25017995  0.60825617  0.16629247  1
  Li  Li30  1  0.71572114  0.97040953  0.17055347  1
  Li  Li31  1  0.98353394  0.11753153  0.16308803  1
  Li  Li32  1  0.14768694  0.22052419  0.17278760  1
  Li  Li33  1  0.53280217  0.87902825  0.17176071  1
  Li  Li34  1  0.63911470  0.38462251  0.16800925  1
  Li  Li35  1  0.07689185  0.66950341  0.14968120  1
  Li  Li36  1  0.27756446  0.45205258  0.20079407  1
  Li  Li37  1  0.40339334  0.63734996  0.20357712  1
  Li  Li38  1  0.78875001  0.13046769  0.19939703  1
  Li  Li39  1  0.89712190  0.96268885  0.20108114  1
  Li  Li40  1  0.46406993  0.79891291  0.22672177  1
  Li  Li41  1  0.21766363  0.29297612  0.22671914  1
  Li  Li42  1  0.96535019  0.78851359  0.22464741  1
  Li  Li43  1  0.71543646  0.29707436  0.22672691  1
  Li  Li44  1  0.89619853  0.62739909  0.25591602  1
  Li  Li45  1  0.79083384  0.45974452  0.25905059  1
  Li  Li46  1  0.39579373  0.96283797  0.25323933  1
  Li  Li47  1  0.28928385  0.12802652  0.25459473  1
  Li  Li48  1  0.03204239  0.87776358  0.28037534  1
  Li  Li49  1  0.64840814  0.21746592  0.27964905  1
  Li  Li50  1  0.52790012  0.70994210  0.27704861  1
  Li  Li51  1  0.14903235  0.36677408  0.27949980  1
  Li  Li52  1  0.98239206  0.46338541  0.29221065  1
  Li  Li53  1  0.71216433  0.61761722  0.28894305  1
  Li  Li54  1  0.21198300  0.96993015  0.28357176  1
  Li  Li55  1  0.47897207  0.11760378  0.28782757  1
  Li  Li56  1  0.00241985  0.97598175  0.34053330  1
  Li  Li57  1  0.68388836  0.11240739  0.33150808  1
  Li  Li58  1  0.16606679  0.45891991  0.33271216  1
  Li  Li59  1  0.50390094  0.61416956  0.33145060  1
  Li  Li60  1  0.65824925  0.72217542  0.33967342  1
  Li  Li61  1  0.00873334  0.35710836  0.36345295  1
  Li  Li62  1  0.15234213  0.87484084  0.34118427  1
  Li  Li63  1  0.52262143  0.20788316  0.34508706  1
  Li  Li64  1  0.82842255  0.01584089  0.35639188  1
  Li  Li65  1  0.90843683  0.17516836  0.37031330  1
  Li  Li66  1  0.33747239  0.54445067  0.35094027  1
  Li  Li67  1  0.42706029  0.39460379  0.37271763  1
  Li  Li68  1  0.98429605  0.26862355  0.41810677  1
  Li  Li69  1  0.72441868  0.80924213  0.39009605  1
  Li  Li70  1  0.42424459  0.23586076  0.40464685  1
  Li  Li71  1  0.25332207  0.71133321  0.37169776  1
  Li  Li72  1  0.34807589  0.04478232  0.43076234  1
  Li  Li73  1  0.27858179  0.87759449  0.40776169  1
  Li  Li74  1  0.88866496  0.47897175  0.43268787  1
  Li  Li75  1  0.78496842  0.66577973  0.42474057  1
  Li  Li76  1  0.51949261  0.39043538  0.43083122  1
  Li  Li77  1  0.18414387  0.71959008  0.43476038  1
  Li  Li78  1  0.98339690  0.15727763  0.47019404  1
  Li  Li79  1  0.67588469  0.83076529  0.44562318  1
  Li  Li80  1  0.48672188  0.95110692  0.45118238  1
  Li  Li81  1  0.11881298  0.91110754  0.45859702  1
  Li  Li82  1  0.67180969  0.47982329  0.46207685  1
  Li  Li83  1  0.02610114  0.63940090  0.45213823  1
  Li  Li84  1  0.89780173  0.54280202  0.50164411  1
  Li  Li85  1  0.19174403  0.59973580  0.49951219  1
  Li  Li86  1  0.65039982  0.01270703  0.49598818  1
  Li  Li87  1  0.32004388  0.90959747  0.49399964  1
  Li  Li88  1  0.04139679  0.73543363  0.49540034  1
  Li  Li89  1  0.80146271  0.10963809  0.52319747  1
  Li  Li90  1  0.55098089  0.65763151  0.46730773  1
  Li  Li91  1  0.31298385  0.33560922  0.49567086  1
  Li  Li92  1  0.04442662  0.56852645  0.54186117  1
  Li  Li93  1  0.92883174  0.39383495  0.53381397  1
  Li  Li94  1  0.54972104  0.82229697  0.53789555  1
  Li  Li95  1  0.44606289  0.00305686  0.52399275  1
  Li  Li96  1  0.86794711  0.21698471  0.56118995  1
  Li  Li97  1  0.11117086  0.72818587  0.56106020  1
  Li  Li98  1  0.36190399  0.22313881  0.54940535  1
  Li  Li99  1  0.64151587  0.65980011  0.53341707  1
  Li  Li100  1  0.43002045  0.37298649  0.58480373  1
  Li  Li101  1  0.54397047  0.55100284  0.58767636  1
  Li  Li102  1  0.92954559  0.03654831  0.58932146  1
  Li  Li103  1  0.03272004  0.87891010  0.58867040  1
  Li  Li104  1  0.30552346  0.13507574  0.59831189  1
  Li  Li105  1  0.65207120  0.75848720  0.59175867  1
  Li  Li106  1  0.79331642  0.30157870  0.61500920  1
  Li  Li107  1  0.18025744  0.62812857  0.61136672  1
  Li  Li108  1  0.36481950  0.52963684  0.61835296  1
  Li  Li109  1  0.61268320  0.39388539  0.61900866  1
  Li  Li110  1  0.13584040  0.04111941  0.61758420  1
  Li  Li111  1  0.81640677  0.88038857  0.62290067  1
  Li  Li112  1  0.34351305  0.03728959  0.66387592  1
  Li  Li113  1  0.63470236  0.88265055  0.66242020  1
  Li  Li114  1  0.10611250  0.52920807  0.66881529  1
  Li  Li115  1  0.84774050  0.39049225  0.66952645  1
  Li  Li116  1  0.67501315  0.28940769  0.67442133  1
  Li  Li117  1  0.29158890  0.62492263  0.67142391  1
  Li  Li118  1  0.18059932  0.13714231  0.67145072  1
  Li  Li119  1  0.80239007  0.78872522  0.67679289  1
  Li  Li120  1  0.53695710  0.04100115  0.69534320  1
  Li  Li121  1  0.43210914  0.87776157  0.69900997  1
  Li  Li122  1  0.04168644  0.37236227  0.70076458  1
  Li  Li123  1  0.93187835  0.54392923  0.70267097  1
  Li  Li124  1  0.36219184  0.70921903  0.72713002  1
  Li  Li125  1  0.61291772  0.20236444  0.73023187  1
  Li  Li126  1  0.86404410  0.70745002  0.72834851  1
  Li  Li127  1  0.11133481  0.21032509  0.72766358  1
  Li  Li128  1  0.92791077  0.87256966  0.75124663  1
  Li  Li129  1  0.04950104  0.05184055  0.75454003  1
  Li  Li130  1  0.43402466  0.53965315  0.75549871  1
  Li  Li131  1  0.54061136  0.37291458  0.75605372  1
  Li  Li132  1  0.79658153  0.62603136  0.78117814  1
  Li  Li133  1  0.18051369  0.27901737  0.78085335  1
  Li  Li134  1  0.29715783  0.79907129  0.78024798  1
  Li  Li135  1  0.72469780  0.08900477  0.80762982  1
  Li  Li136  1  0.89041488  0.02856981  0.78758385  1
  Li  Li137  1  0.09043319  0.88831504  0.78604116  1
  Li  Li138  1  0.61987924  0.53280831  0.78793455  1
  Li  Li139  1  0.34360024  0.38294733  0.78802628  1
  Li  Li140  1  0.82381813  0.52313037  0.83284388  1
  Li  Li141  1  0.14597240  0.38622454  0.83090372  1
  Li  Li142  1  0.57283283  0.02333496  0.84077842  1
  Li  Li143  1  0.38398647  0.89358444  0.83580986  1
  Li  Li144  1  0.19067408  0.79354673  0.83562539  1
  Li  Li145  1  0.81512219  0.12956538  0.86551305  1
  Li  Li146  1  0.67344157  0.63796049  0.84381503  1
  Li  Li147  1  0.30246677  0.29300290  0.84220403  1
  Li  Li148  1  0.99996085  0.47886876  0.85473381  1
  Li  Li149  1  0.91157563  0.32566774  0.87054209  1
  Li  Li150  1  0.56069677  0.84807043  0.86512788  1
  Li  Li151  1  0.40956701  0.04628043  0.87426385  1
  Li  Li152  1  0.83649404  0.23214422  0.91836525  1
  Li  Li153  1  0.10497208  0.69091392  0.88879859  1
  Li  Li154  1  0.36907167  0.21717335  0.89495512  1
  Li  Li155  1  0.61273513  0.71003705  0.89864694  1
  Li  Li156  1  0.43987829  0.39845148  0.92503684  1
  Li  Li157  1  0.53274695  0.57000067  0.92226269  1
  Li  Li158  1  0.93342255  0.99723855  0.93417003  1
  Li  Li159  1  0.03505978  0.82467745  0.92407932  1
  Li  Li160  1  0.30893284  0.10439910  0.93158648  1
  Li  Li161  1  0.60627021  0.78309648  0.95924081  1
  Li  Li162  1  0.83702546  0.32065989  0.97507510  1
  Li  Li163  1  0.14306072  0.66064094  0.94505950  1
  Li  Li164  1  0.34219122  0.54554723  0.95131974  1
  Li  Li165  1  0.71579047  0.58005841  0.95835341  1
  Li  Li166  1  0.15540767  0.02524946  0.95938087  1
  Li  Li167  1  0.81922011  0.87460247  0.95791283  1
  La  La168  1  0.04124612  0.19540636  0.98767957  1
  La  La169  1  0.59243108  0.37980621  0.97911463  1
  La  La170  1  0.32466264  0.02940237  0.01499444  1
  La  La171  1  0.84702097  0.54819331  0.01814413  1
  La  La172  1  0.96344083  0.78600420  0.06504497  1
  La  La173  1  0.46464417  0.80112690  0.05414030  1
  La  La174  1  0.70820662  0.31488018  0.06094300  1
  La  La175  1  0.21258917  0.28779771  0.06091590  1
  La  La176  1  0.83107009  0.03135988  0.10312791  1
  La  La177  1  0.34153811  0.54304546  0.09922247  1
  La  La178  1  0.58994492  0.16947798  0.14148717  1
  La  La179  1  0.08940502  0.42277871  0.14108809  1
  La  La180  1  0.58751896  0.66449705  0.14345082  1
  La  La181  1  0.08879984  0.91245421  0.14542986  1
  La  La182  1  0.83707291  0.53979697  0.18650358  1
  La  La183  1  0.34257467  0.04443405  0.18221598  1
  La  La184  1  0.46644861  0.29426906  0.22728619  1
  La  La185  1  0.96485284  0.29226756  0.22795560  1
  La  La186  1  0.21117897  0.78874344  0.22461492  1
  La  La187  1  0.71370178  0.79275710  0.22884664  1
  La  La188  1  0.33715415  0.53771267  0.27129721  1
  La  La189  1  0.84273072  0.04422878  0.27151999  1
  La  La190  1  0.08667971  0.66853703  0.31012181  1
  La  La191  1  0.58873897  0.91733900  0.30848186  1
  La  La192  1  0.09195324  0.16839580  0.31354292  1
  La  La193  1  0.59306106  0.41612991  0.31290719  1
  La  La194  1  0.33698055  0.03325891  0.35035198  1
  La  La195  1  0.84041499  0.55147754  0.35444307  1
  La  La196  1  0.96730765  0.79436470  0.39824871  1
  La  La197  1  0.46898052  0.78114486  0.38838247  1
  La  La198  1  0.70735298  0.27432975  0.39608185  1
  La  La199  1  0.21938823  0.29740072  0.39843996  1
  La  La200  1  0.82426575  0.01085260  0.43835147  1
  La  La201  1  0.34226286  0.54753159  0.43051126  1
  La  La202  1  0.51155346  0.18914352  0.46947512  1
  La  La203  1  0.09293861  0.42056887  0.47784881  1
  La  La204  1  0.78745633  0.28815151  0.48453491  1
  La  La205  1  0.22269657  0.11795692  0.47992039  1
  La  La206  1  0.49013106  0.48051810  0.51518580  1
  La  La207  1  0.98232612  0.96007106  0.51833921  1
  La  La208  1  0.86659446  0.71780706  0.56527701  1
  La  La209  1  0.35872537  0.71087409  0.56010885  1
  La  La210  1  0.10892303  0.22220588  0.55694668  1
  La  La211  1  0.61490410  0.21962907  0.56019770  1
  La  La212  1  0.98483645  0.46310245  0.60482620  1
  La  La213  1  0.48503592  0.95761354  0.60131619  1
  La  La214  1  0.23806554  0.33898204  0.64170867  1
  La  La215  1  0.73603630  0.08763066  0.64208025  1
  La  La216  1  0.23722092  0.83832065  0.64268375  1
  La  La217  1  0.73595856  0.58587601  0.64521211  1
  La  La218  1  0.98859771  0.96546810  0.68233584  1
  La  La219  1  0.48683008  0.45999057  0.68447966  1
  La  La220  1  0.36259016  0.20975855  0.72671115  1
  La  La221  1  0.85982710  0.20884821  0.72833186  1
  La  La222  1  0.61245066  0.71197830  0.72630419  1
  La  La223  1  0.11503841  0.71120576  0.72727952  1
  La  La224  1  0.49011820  0.96625057  0.76862621  1
  La  La225  1  0.98851919  0.45541126  0.77171401  1
  La  La226  1  0.74077838  0.83967028  0.80916072  1
  La  La227  1  0.24131291  0.58583687  0.80934946  1
  La  La228  1  0.73448474  0.32419846  0.81254199  1
  La  La229  1  0.23743003  0.07798786  0.81372797  1
  La  La230  1  0.49023511  0.46010385  0.85186304  1
  La  La231  1  0.98677949  0.94934897  0.85528141  1
  La  La232  1  0.86117156  0.69670111  0.89101301  1
  La  La233  1  0.36570825  0.71087346  0.89172645  1
  La  La234  1  0.11683413  0.22180753  0.89708500  1
  La  La235  1  0.59850889  0.21811039  0.90089440  1
  La  La236  1  0.99454557  0.47708735  0.93628284  1
  La  La237  1  0.48542692  0.95472472  0.93690620  1
  La  La238  1  0.30438667  0.30938843  0.97143868  1
  La  La239  1  0.73104836  0.10666340  0.97497756  1
  Zr  Zr240  1  0.08588341  0.03849657  0.06218369  1
  Zr  Zr241  1  0.58219101  0.07630118  0.05076352  1
  Zr  Zr242  1  0.58556760  0.55788214  0.05375663  1
  Zr  Zr243  1  0.09603990  0.55687819  0.05800285  1
  Zr  Zr244  1  0.83871567  0.29237984  0.14231259  1
  Zr  Zr245  1  0.83758424  0.78883902  0.14684363  1
  Zr  Zr246  1  0.34238876  0.29611731  0.14238101  1
  Zr  Zr247  1  0.34539047  0.79594551  0.14165406  1
  Zr  Zr248  1  0.59093799  0.54098540  0.22942809  1
  Zr  Zr249  1  0.08721199  0.54138618  0.22662393  1
  Zr  Zr250  1  0.09328171  0.04813776  0.22662452  1
  Zr  Zr251  1  0.59167346  0.04807396  0.22705497  1
  Zr  Zr252  1  0.33729068  0.79032552  0.30753988  1
  Zr  Zr253  1  0.33927072  0.29175962  0.31115017  1
  Zr  Zr254  1  0.84490433  0.79954501  0.31165845  1
  Zr  Zr255  1  0.83923862  0.28877158  0.31276470  1
  Zr  Zr256  1  0.07951382  0.06585621  0.40530974  1
  Zr  Zr257  1  0.58738878  0.02440242  0.39293719  1
  Zr  Zr258  1  0.60090398  0.55313013  0.39813969  1
  Zr  Zr259  1  0.08925372  0.54499830  0.39391041  1
  Zr  Zr260  1  0.73503595  0.47321387  0.55932408  1
  Zr  Zr261  1  0.23630038  0.46502385  0.55758614  1
  Zr  Zr262  1  0.23105028  0.95846466  0.55741959  1
  Zr  Zr263  1  0.72982969  0.94632315  0.55842556  1
  Zr  Zr264  1  0.98691206  0.21542483  0.64353918  1
  Zr  Zr265  1  0.99098532  0.71041358  0.64558043  1
  Zr  Zr266  1  0.48476144  0.21408194  0.64200432  1
  Zr  Zr267  1  0.48488307  0.71069209  0.64388967  1
  Zr  Zr268  1  0.23712877  0.96350613  0.72739817  1
  Zr  Zr269  1  0.73627440  0.96414555  0.72615629  1
  Zr  Zr270  1  0.73545023  0.45823797  0.72919753  1
  Zr  Zr271  1  0.23707355  0.45652875  0.72739932  1
  Zr  Zr272  1  0.48969054  0.71393739  0.80887975  1
  Zr  Zr273  1  0.48790688  0.20697535  0.81238114  1
  Zr  Zr274  1  0.98919297  0.70470559  0.81045859  1
  Zr  Zr275  1  0.98939038  0.21021946  0.81390208  1
  Zr  Zr276  1  0.73707467  0.45532792  0.89941819  1
  Zr  Zr277  1  0.23822805  0.47242417  0.89317996  1
  Zr  Zr278  1  0.22481912  0.93991661  0.89953102  1
  Zr  Zr279  1  0.73562680  0.94413159  0.89618125  1
  O  O280  1  0.31502827  0.84798119  0.01802604  1
  O  O281  1  0.36071403  0.21513660  0.02170366  1
  O  O282  1  0.82282042  0.76108034  0.02542608  1
  O  O283  1  0.86871577  0.38061587  0.03243508  1
  O  O284  1  0.56868990  0.79682456  0.00521880  1
  O  O285  1  0.05030571  0.19048461  0.05170742  1
  O  O286  1  0.12782190  0.70601310  0.04808881  1
  O  O287  1  0.55104408  0.40867365  0.04084581  1
  O  O288  1  0.94079384  0.96701929  0.04986686  1
  O  O289  1  0.71339775  0.00016360  0.03318251  1
  O  O290  1  0.24754657  0.51655836  0.04149368  1
  O  O291  1  0.44074636  0.62297198  0.03768765  1
  O  O292  1  0.44324274  0.99877887  0.06557506  1
  O  O293  1  0.23814718  0.09107677  0.07269199  1
  O  O294  1  0.73387835  0.50757504  0.06843530  1
  O  O295  1  0.93767199  0.59985713  0.06993128  1
  O  O296  1  0.55457804  0.20178559  0.08141037  1
  O  O297  1  0.13153449  0.89712427  0.08179266  1
  O  O298  1  0.06782526  0.40699859  0.07649673  1
  O  O299  1  0.63004817  0.70421100  0.07149526  1
  O  O300  1  0.85608327  0.22852654  0.09169521  1
  O  O301  1  0.79613613  0.84570438  0.09806422  1
  O  O302  1  0.37049225  0.35151468  0.09192104  1
  O  O303  1  0.31794463  0.73920547  0.09067559  1
  O  O304  1  0.02762464  0.06805489  0.11198351  1
  O  O305  1  0.63810758  0.02153321  0.10209940  1
  O  O306  1  0.14985976  0.58063681  0.11012796  1
  O  O307  1  0.52800810  0.53215827  0.10457597  1
  O  O308  1  0.18844533  0.26279526  0.12505984  1
  O  O309  1  0.49749386  0.83326324  0.12370402  1
  O  O310  1  0.68810119  0.34156784  0.12325839  1
  O  O311  1  0.98555218  0.75615640  0.12564015  1
  O  O312  1  0.39668939  0.14697493  0.13396113  1
  O  O313  1  0.28345551  0.94140999  0.13539838  1
  O  O314  1  0.89177145  0.44269010  0.12955894  1
  O  O315  1  0.78285561  0.63879647  0.13333414  1
  O  O316  1  0.29118097  0.44933736  0.15221509  1
  O  O317  1  0.39737330  0.64416471  0.15375002  1
  O  O318  1  0.78008148  0.14298483  0.15162698  1
  O  O319  1  0.88664885  0.93948993  0.15410167  1
  O  O320  1  0.49403169  0.33604964  0.16009309  1
  O  O321  1  0.19425489  0.75494336  0.16028909  1
  O  O322  1  0.99125336  0.26284326  0.15893600  1
  O  O323  1  0.68248539  0.82737091  0.16373098  1
  O  O324  1  0.02660122  0.56284830  0.17695912  1
  O  O325  1  0.64084747  0.52139906  0.17825166  1
  O  O326  1  0.14307409  0.07576037  0.17499625  1
  O  O327  1  0.54489793  0.01925692  0.17573429  1
  O  O328  1  0.80617746  0.34794649  0.19157914  1
  O  O329  1  0.85887688  0.73134967  0.19580444  1
  O  O330  1  0.30862336  0.24385549  0.19217859  1
  O  O331  1  0.37984333  0.84883088  0.19115982  1
  O  O332  1  0.12547603  0.39459339  0.20890038  1
  O  O333  1  0.55495729  0.68994690  0.21394891  1
  O  O334  1  0.62287632  0.19494773  0.21006216  1
  O  O335  1  0.05685817  0.89802007  0.20873630  1
  O  O336  1  0.43641609  0.48873165  0.21773686  1
  O  O337  1  0.24118705  0.59438299  0.21574383  1
  O  O338  1  0.74582675  0.99195807  0.21735830  1
  O  O339  1  0.94020775  0.10165673  0.21474154  1
  O  O340  1  0.93653664  0.48509016  0.24055727  1
  O  O341  1  0.74385369  0.59258088  0.24146171  1
  O  O342  1  0.24627270  0.99071140  0.23665571  1
  O  O343  1  0.43819914  0.10070458  0.23870374  1
  O  O344  1  0.05523442  0.68737237  0.24564813  1
  O  O345  1  0.62608430  0.39536963  0.24823032  1
  O  O346  1  0.55282272  0.90034732  0.24523600  1
  O  O347  1  0.12731674  0.19330468  0.24419068  1
  O  O348  1  0.37081296  0.73269289  0.25896246  1
  O  O349  1  0.30496833  0.35126666  0.26186288  1
  O  O350  1  0.88061161  0.84988765  0.26196920  1
  O  O351  1  0.80326094  0.23635138  0.26269204  1
  O  O352  1  0.53745360  0.56920171  0.28077340  1
  O  O353  1  0.13863138  0.51079716  0.27935050  1
  O  O354  1  0.64070354  0.07480897  0.27846708  1
  O  O355  1  0.04622072  0.01857985  0.27796051  1
  O  O356  1  0.69026635  0.76026824  0.29209232  1
  O  O357  1  0.98895618  0.31805648  0.29162720  1
  O  O358  1  0.18429687  0.82691522  0.28998012  1
  O  O359  1  0.49282562  0.26040477  0.29202536  1
  O  O360  1  0.89544983  0.64628444  0.30335986  1
  O  O361  1  0.78760621  0.44008949  0.30675390  1
  O  O362  1  0.38698116  0.94170492  0.30065132  1
  O  O363  1  0.28592248  0.14042539  0.30258306  1
  O  O364  1  0.78053294  0.94336192  0.31887387  1
  O  O365  1  0.89116864  0.13647461  0.32352514  1
  O  O366  1  0.28148825  0.64592013  0.32139191  1
  O  O367  1  0.40009760  0.43931985  0.32340648  1
  O  O368  1  0.99589712  0.83561283  0.32941551  1
  O  O369  1  0.68075314  0.25554286  0.32976009  1
  O  O370  1  0.49050943  0.75666444  0.32524923  1
  O  O371  1  0.18828612  0.32213416  0.32785962  1
  O  O372  1  0.53130524  0.06510895  0.34339028  1
  O  O373  1  0.14450519  0.02027387  0.35317342  1
  O  O374  1  0.64864556  0.58112096  0.34736409  1
  O  O375  1  0.02453462  0.50391098  0.34573532  1
  O  O376  1  0.29623747  0.84487915  0.35740452  1
  O  O377  1  0.37677228  0.24107804  0.36030894  1
  O  O378  1  0.80721695  0.73466775  0.36032850  1
  O  O379  1  0.86539600  0.32120851  0.36513059  1
  O  O380  1  0.61661973  0.88319660  0.37036553  1
  O  O381  1  0.05637837  0.19937414  0.37453076  1
  O  O382  1  0.11142681  0.69192074  0.37421977  1
  O  O383  1  0.57540810  0.40389799  0.38142802  1
  O  O384  1  0.94611476  0.99148503  0.38758730  1
  O  O385  1  0.73454466  0.08581428  0.38378508  1
  O  O386  1  0.23332089  0.48905068  0.37906642  1
  O  O387  1  0.44826257  0.59637780  0.38048382  1
  O  O388  1  0.43389924  0.96192649  0.40417948  1
  O  O389  1  0.20497984  0.98995864  0.42477674  1
  O  O390  1  0.74747108  0.51779475  0.41614628  1
  O  O391  1  0.94217414  0.60672992  0.41199450  1
  O  O392  1  0.55225769  0.17224283  0.40892959  1
  O  O393  1  0.06288650  0.78172002  0.44931232  1
  O  O394  1  0.05212705  0.39996705  0.41377114  1
  O  O395  1  0.61775594  0.70734018  0.42167723  1
  O  O396  1  0.85762592  0.19886473  0.43723881  1
  O  O397  1  0.81251325  0.83044941  0.42868002  1
  O  O398  1  0.37576973  0.37818295  0.42040161  1
  O  O399  1  0.32287860  0.73974015  0.42247240  1
  O  O400  1  0.86261977  0.18767111  0.00481906  1
  O  O401  1  0.48198724  0.27149397  0.95415986  1
  O  O402  1  0.62462370  0.20269291  0.01800885  1
  O  O403  1  0.14624104  0.33425799  0.00412893  1
  O  O404  1  0.51349824  0.03381842  0.99764818  1
  O  O405  1  0.12342413  0.02280420  0.00865243  1
  O  O406  1  0.65180589  0.58164492  0.00248608  1
  O  O407  1  0.03071922  0.52350546  0.00857085  1
  O  O408  1  0.00312537  0.01524443  0.45677781  1
  O  O409  1  0.62866072  0.97464394  0.44463526  1
  O  O410  1  0.16223735  0.57490725  0.44149465  1
  O  O411  1  0.52788538  0.52548080  0.44860575  1
  O  O412  1  0.10069955  0.18989048  0.43846761  1
  O  O413  1  0.63913378  0.32901533  0.45312724  1
  O  O414  1  0.32718574  0.18461094  0.43596355  1
  O  O415  1  0.91093903  0.41629121  0.48019139  1
  O  O416  1  0.49732894  0.66847358  0.51567403  1
  O  O417  1  0.44855667  0.29215776  0.51341011  1
  O  O418  1  0.00202749  0.79279076  0.53499149  1
  O  O419  1  0.94708850  0.16568519  0.52006696  1
  O  O420  1  0.19942988  0.61899527  0.54784743  1
  O  O421  1  0.78068502  0.32472084  0.54499638  1
  O  O422  1  0.70159152  0.79556505  0.54564168  1
  O  O423  1  0.26489035  0.11119375  0.54613115  1
  O  O424  1  0.88684369  0.53025797  0.55046304  1
  O  O425  1  0.07925754  0.41805120  0.54609269  1
  O  O426  1  0.57724066  0.98140716  0.54322765  1
  O  O427  1  0.37212052  0.88944026  0.54056162  1
  O  O428  1  0.39312759  0.51754737  0.56843529  1
  O  O429  1  0.58296311  0.40889931  0.56892517  1
  O  O430  1  0.07669830  0.01269142  0.57055392  1
  O  O431  1  0.87749923  0.90635644  0.57685303  1
  O  O432  1  0.27504504  0.32106043  0.57516089  1
  O  O433  1  0.68885122  0.61140165  0.58040167  1
  O  O434  1  0.76560453  0.10486302  0.57286065  1
  O  O435  1  0.20336578  0.81924808  0.58144671  1
  O  O436  1  0.95185116  0.27507461  0.59458724  1
  O  O437  1  0.02565082  0.65517458  0.59587747  1
  O  O438  1  0.45590447  0.17302808  0.58930732  1
  O  O439  1  0.50706838  0.76910221  0.59216761  1
  O  O440  1  0.78823733  0.44171629  0.61089363  1
  O  O441  1  0.18685285  0.48714222  0.60813718  1
  O  O442  1  0.67439004  0.92757642  0.60949590  1
  O  O443  1  0.29254184  0.99361385  0.60789847  1
  O  O444  1  0.64222862  0.24929413  0.62397067  1
  O  O445  1  0.33305039  0.67251922  0.62485070  1
  O  O446  1  0.13867651  0.18274002  0.62360551  1
  O  O447  1  0.83755719  0.73910904  0.62738827  1
  O  O448  1  0.43475296  0.36503238  0.63307226  1
  O  O449  1  0.53878157  0.56029438  0.63476368  1
  O  O450  1  0.92813815  0.06917166  0.63492508  1
  O  O451  1  0.04631962  0.85861381  0.63631930  1
  O  O452  1  0.53905675  0.06507548  0.64834531  1
  O  O453  1  0.43025598  0.85972763  0.65173596  1
  O  O454  1  0.04536900  0.36437781  0.65319849  1
  O  O455  1  0.93800633  0.56041180  0.65513475  1
  O  O456  1  0.33461975  0.18208839  0.66121667  1
  O  O457  1  0.63748280  0.73928965  0.66398496  1
  O  O458  1  0.83301114  0.24907275  0.66208375  1
  O  O459  1  0.14285294  0.67353433  0.66396756  1
  O  O460  1  0.78850638  0.93096172  0.67447109  1
  O  O461  1  0.18794819  0.99421438  0.67605969  1
  O  O462  1  0.68519323  0.43198191  0.67835480  1
  O  O463  1  0.29149955  0.48446508  0.67742772  1
  O  O464  1  0.02272655  0.15960084  0.69283483  1
  O  O465  1  0.95408721  0.76644881  0.69474193  1
  O  O466  1  0.52317264  0.26396107  0.69202608  1
  O  O467  1  0.44890159  0.65510428  0.69239031  1
  O  O468  1  0.70382420  0.10861986  0.70602339  1
  O  O469  1  0.27034288  0.81528042  0.71128238  1
  O  O470  1  0.20257257  0.31079168  0.70970918  1
  O  O471  1  0.77215062  0.60567108  0.71131204  1
  O  O472  1  0.38905585  0.01811252  0.71380935  1
  O  O473  1  0.58453410  0.90946157  0.71402103  1
  O  O474  1  0.08403937  0.51158506  0.71742574  1
  O  O475  1  0.88960624  0.40409851  0.71756741  1
  O  O476  1  0.89075787  0.01815499  0.73803436  1
  O  O477  1  0.08338860  0.91081942  0.73815386  1
  O  O478  1  0.58267130  0.51346166  0.73993094  1
  O  O479  1  0.39019659  0.40177033  0.74032990  1
  O  O480  1  0.77376839  0.81551906  0.74311867  1
  O  O481  1  0.20038924  0.10898966  0.74771628  1
  O  O482  1  0.27321635  0.60439411  0.74604314  1
  O  O483  1  0.70350981  0.31013850  0.74620426  1
  O  O484  1  0.45594997  0.76808187  0.75986941  1
  O  O485  1  0.50992475  0.15381870  0.76234872  1
  O  O486  1  0.95158011  0.65037091  0.76190776  1
  O  O487  1  0.02272415  0.26350700  0.76387326  1
  O  O488  1  0.29669876  0.93944558  0.77799516  1
  O  O489  1  0.68546462  0.98577949  0.77689138  1
  O  O490  1  0.18726630  0.42489704  0.77889953  1
  O  O491  1  0.78505525  0.48386366  0.78105931  1
  O  O492  1  0.14003223  0.74792009  0.79117879  1
  O  O493  1  0.83955455  0.17363239  0.79507720  1
  O  O494  1  0.64424816  0.67908582  0.79214392  1
  O  O495  1  0.33365164  0.24088501  0.79528467  1
  O  O496  1  0.93646749  0.85933810  0.80055057  1
  O  O497  1  0.03772051  0.05691896  0.80465069  1
  O  O498  1  0.44095690  0.56225820  0.80284309  1
  O  O499  1  0.54860238  0.35472356  0.80341666  1
  O  O500  1  0.05025128  0.56011250  0.81915263  1
  O  O501  1  0.93507585  0.36146951  0.82377308  1
  O  O502  1  0.53938633  0.86602053  0.81891105  1
  O  O503  1  0.43006852  0.05921102  0.82548317  1
  O  O504  1  0.83747998  0.66888353  0.82857254  1
  O  O505  1  0.14620255  0.24118922  0.83104521  1
  O  O506  1  0.33775150  0.75114738  0.82669650  1
  O  O507  1  0.63241304  0.16657792  0.83484212  1
  O  O508  1  0.29119244  0.43488914  0.84309033  1
  O  O509  1  0.68297281  0.48840910  0.84895345  1
  O  O510  1  0.17673382  0.92724367  0.84919852  1
  O  O511  1  0.80030169  0.98700160  0.84716640  1
  O  O512  1  0.52643690  0.67298450  0.85997657  1
  O  O513  1  0.45285931  0.27531321  0.86133467  1
  O  O514  1  0.02006994  0.76785729  0.85969950  1
  O  O515  1  0.95922387  0.17505986  0.86567349  1
  O  O516  1  0.21532725  0.61529697  0.87196716  1
  O  O517  1  0.76566213  0.30921671  0.87921712  1
  O  O518  1  0.70569504  0.80146581  0.87233521  1
  O  O519  1  0.25893338  0.09423032  0.88376164  1
  O  O520  1  0.88639792  0.50475716  0.88433201  1
  O  O521  1  0.09085628  0.40754962  0.88468984  1
  O  O522  1  0.58510712  0.97790729  0.88521727  1
  O  O523  1  0.37987126  0.89503322  0.88629828  1
  O  O524  1  0.39182197  0.52707022  0.90446164  1
  O  O525  1  0.58264261  0.42046625  0.91230617  1
  O  O526  1  0.07595278  0.97987121  0.91686363  1
  O  O527  1  0.88091782  0.87364314  0.91227860  1
  O  O528  1  0.28400511  0.32674636  0.90989618  1
  O  O529  1  0.70233603  0.60923185  0.91299055  1
  O  O530  1  0.77619971  0.09056416  0.91248872  1
  O  O531  1  0.20197770  0.79059475  0.92319257  1
  O  O532  1  0.97274528  0.28789901  0.93934178  1
  O  O533  1  0.00582590  0.66018570  0.92739380  1
  O  O534  1  0.45285373  0.10909287  0.91647189  1
  O  O535  1  0.49761956  0.71447929  0.93587371  1
  O  O536  1  0.03530105  0.59073184  0.49583647  1
  O  O537  1  0.40360156  0.02720670  0.47894893  1
  O  O538  1  0.17912656  0.27552117  0.50203344  1
  O  O539  1  0.66270750  0.15989431  0.50312463  1
  O  O540  1  0.28512569  0.47582151  0.50166766  1
  O  O541  1  0.67965800  0.51790676  0.51088947  1
  O  O542  1  0.17812034  0.94613032  0.50549401  1
  O  O543  1  0.79516754  0.97814376  0.50790959  1
  O  O544  1  0.80937889  0.46891694  0.95495672  1
  O  O545  1  0.19459459  0.51921247  0.94508834  1
  O  O546  1  0.67505213  0.91065872  0.94810586  1
  O  O547  1  0.29483147  0.97365492  0.95098508  1
  O  O548  1  0.71403391  0.26600309  0.94973231  1
  O  O549  1  0.19075450  0.16926647  0.95295763  1
  O  O550  1  0.42033373  0.45887119  0.97562794  1
  O  O551  1  0.88219691  0.98298017  0.97982256  1
