# generated using pymatgen
data_Li18La8Zr5O31
_symmetry_space_group_name_H-M   'P 1'
_cell_length_a   12.70453900
_cell_length_b   13.20454200
_cell_length_c   36.69432607
_cell_angle_alpha   90.00000000
_cell_angle_beta   90.00000000
_cell_angle_gamma   90.00000000
_symmetry_Int_Tables_number   1
_chemical_formula_structural   Li18La8Zr5O31
_chemical_formula_sum   'Li144 La64 Zr40 O248'
_cell_volume   6155.75276628
_cell_formula_units_Z   8
loop_
 _symmetry_equiv_pos_site_id
 _symmetry_equiv_pos_as_xyz
  1  'x, y, z'
loop_
 _atom_site_type_symbol
 _atom_site_label
 _atom_site_symmetry_multiplicity
 _atom_site_fract_x
 _atom_site_fract_y
 _atom_site_fract_z
 _atom_site_occupancy
  Li  Li0  1  0.67244629  0.97234721  0.00225990  1
  Li  Li1  1  0.76559639  0.12275969  0.00972331  1
  Li  Li2  1  0.15934363  0.56943835  0.01295285  1
  Li  Li3  1  0.27157555  0.41268240  0.01475009  1
  Li  Li4  1  0.83626777  0.25880769  0.04961445  1
  Li  Li5  1  0.61505045  0.80613767  0.03069953  1
  Li  Li6  1  0.41764501  0.22393958  0.99238356  1
  Li  Li7  1  0.08946083  0.75008022  0.01932680  1
  Li  Li8  1  0.29185583  0.13936070  0.07176993  1
  Li  Li9  1  0.12414920  0.86366988  0.07140271  1
  Li  Li10  1  0.72002406  0.48600920  0.08742919  1
  Li  Li11  1  0.62961893  0.64780605  0.07029291  1
  Li  Li12  1  0.37833603  0.30682628  0.07040943  1
  Li  Li13  1  0.03098864  0.67648605  0.09895763  1
  Li  Li14  1  0.91261420  0.15737971  0.10766894  1
  Li  Li15  1  0.51049965  0.84068368  0.10476327  1
  Li  Li16  1  0.30246079  0.94475830  0.10375131  1
  Li  Li17  1  0.11967348  0.05636339  0.10151448  1
  Li  Li18  1  0.53217841  0.41870891  0.11077771  1
  Li  Li19  1  0.87224087  0.58106839  0.10851101  1
  Li  Li20  1  0.35848264  0.41444303  0.15491920  1
  Li  Li21  1  0.06997067  0.57780463  0.15689878  1
  Li  Li22  1  0.60425906  0.93295596  0.16072009  1
  Li  Li23  1  0.81079130  0.06998399  0.16428179  1
  Li  Li24  1  0.02007920  0.15899258  0.16479830  1
  Li  Li25  1  0.40892129  0.83915552  0.16349705  1
  Li  Li26  1  0.53040028  0.33009560  0.16963099  1
  Li  Li27  1  0.90331895  0.67619945  0.16660492  1
  Li  Li28  1  0.16038022  0.41705468  0.19177600  1
  Li  Li29  1  0.26243173  0.57919006  0.18975492  1
  Li  Li30  1  0.65030448  0.08767460  0.20036438  1
  Li  Li31  1  0.76774893  0.91123549  0.19756125  1
  Li  Li32  1  0.33588222  0.74992536  0.22441135  1
  Li  Li33  1  0.08939845  0.25004613  0.22393251  1
  Li  Li34  1  0.83598009  0.75069472  0.22433836  1
  Li  Li35  1  0.59213094  0.25021841  0.22395628  1
  Li  Li36  1  0.76944063  0.59042505  0.25049158  1
  Li  Li37  1  0.65057709  0.41252041  0.24782960  1
  Li  Li38  1  0.26257574  0.92093649  0.25863610  1
  Li  Li39  1  0.16045778  0.08353360  0.25648810  1
  Li  Li40  1  0.90321781  0.82505637  0.28278585  1
  Li  Li41  1  0.52980865  0.17048718  0.27819797  1
  Li  Li42  1  0.41031606  0.66052048  0.28566137  1
  Li  Li43  1  0.02084613  0.34164672  0.28337703  1
  Li  Li44  1  0.81066203  0.43052690  0.28377103  1
  Li  Li45  1  0.60686906  0.56679346  0.28746579  1
  Li  Li46  1  0.07174019  0.92257995  0.29176273  1
  Li  Li47  1  0.35874954  0.08600699  0.29344318  1
  Li  Li48  1  0.87164692  0.91900879  0.34026371  1
  Li  Li49  1  0.53337192  0.08124214  0.33721832  1
  Li  Li50  1  0.11939604  0.44388359  0.34690550  1
  Li  Li51  1  0.30145993  0.55536031  0.34501250  1
  Li  Li52  1  0.51152046  0.66003709  0.34416192  1
  Li  Li53  1  0.91305321  0.34262401  0.34040661  1
  Li  Li54  1  0.03037175  0.82349845  0.34889042  1
  Li  Li55  1  0.37796376  0.19254038  0.37711653  1
  Li  Li56  1  0.62909999  0.85076791  0.37851981  1
  Li  Li57  1  0.71971733  0.01404748  0.36077675  1
  Li  Li58  1  0.12137634  0.63805257  0.37712703  1
  Li  Li59  1  0.29173184  0.36026296  0.37618975  1
  Li  Li60  1  0.83615246  0.23834089  0.39815771  1
  Li  Li61  1  0.61678010  0.68743631  0.41905401  1
  Li  Li62  1  0.41652808  0.27479308  0.45530260  1
  Li  Li63  1  0.08989240  0.75052042  0.42886399  1
  Li  Li64  1  0.27229149  0.08749140  0.43315321  1
  Li  Li65  1  0.15986959  0.93196659  0.43546125  1
  Li  Li66  1  0.76402147  0.37256851  0.43806623  1
  Li  Li67  1  0.67474913  0.52440212  0.44722355  1
  Li  Li68  1  0.88544441  0.22166803  0.46011119  1
  Li  Li69  1  0.57052556  0.81634102  0.46792821  1
  Li  Li70  1  0.56463438  0.69143268  0.98021468  1
  Li  Li71  1  0.87459120  0.28503769  0.98805574  1
  Li  Li72  1  0.52664462  0.02759106  0.50271375  1
  Li  Li73  1  0.43088189  0.87798293  0.51000468  1
  Li  Li74  1  0.04186785  0.42834489  0.51347833  1
  Li  Li75  1  0.92926126  0.58500324  0.51454435  1
  Li  Li76  1  0.36318458  0.74180868  0.54960342  1
  Li  Li77  1  0.58334184  0.19708503  0.53173224  1
  Li  Li78  1  0.78198739  0.78008758  0.49233470  1
  Li  Li79  1  0.11090122  0.24996701  0.52095632  1
  Li  Li80  1  0.90968607  0.86273949  0.57159938  1
  Li  Li81  1  0.07543583  0.13733378  0.57156229  1
  Li  Li82  1  0.47921287  0.51493617  0.58690584  1
  Li  Li83  1  0.57006752  0.35275228  0.57129992  1
  Li  Li84  1  0.82240115  0.69429217  0.56962284  1
  Li  Li85  1  0.16921279  0.32354415  0.59907369  1
  Li  Li86  1  0.28673987  0.84225456  0.60770683  1
  Li  Li87  1  0.69072163  0.15862614  0.60532220  1
  Li  Li88  1  0.89653026  0.05454598  0.60387219  1
  Li  Li89  1  0.07990581  0.94348496  0.60155266  1
  Li  Li90  1  0.66829552  0.58125886  0.61082666  1
  Li  Li91  1  0.32653563  0.41968288  0.60850360  1
  Li  Li92  1  0.84264728  0.58507659  0.65514630  1
  Li  Li93  1  0.12832805  0.42229917  0.65676728  1
  Li  Li94  1  0.59624100  0.06631790  0.66099615  1
  Li  Li95  1  0.38768141  0.92866760  0.66422090  1
  Li  Li96  1  0.17900933  0.84047098  0.66470048  1
  Li  Li97  1  0.79164214  0.16174011  0.66402043  1
  Li  Li98  1  0.67078329  0.67008341  0.66955817  1
  Li  Li99  1  0.29692988  0.32516901  0.66649156  1
  Li  Li100  1  0.03913558  0.58393625  0.69190421  1
  Li  Li101  1  0.93739912  0.42140333  0.68986916  1
  Li  Li102  1  0.54861499  0.91204414  0.70005952  1
  Li  Li103  1  0.43088531  0.08796828  0.69765843  1
  Li  Li104  1  0.86552810  0.25013978  0.72404108  1
  Li  Li105  1  0.11052961  0.74891046  0.72396368  1
  Li  Li106  1  0.36569480  0.24996872  0.72396502  1
  Li  Li107  1  0.60622649  0.75000543  0.72396302  1
  Li  Li108  1  0.43068267  0.41198463  0.75042352  1
  Li  Li109  1  0.54862013  0.58794497  0.74771543  1
  Li  Li110  1  0.93708399  0.07922680  0.75816310  1
  Li  Li111  1  0.03965727  0.91565967  0.75692133  1
  Li  Li112  1  0.29749199  0.17483388  0.78127253  1
  Li  Li113  1  0.67000766  0.82993477  0.77865113  1
  Li  Li114  1  0.79047613  0.33991519  0.78526196  1
  Li  Li115  1  0.17909304  0.65902593  0.78352714  1
  Li  Li116  1  0.38792027  0.57145503  0.78378424  1
  Li  Li117  1  0.59392323  0.43342917  0.78736384  1
  Li  Li118  1  0.12915122  0.07762172  0.79137044  1
  Li  Li119  1  0.84044053  0.91476511  0.79370782  1
  Li  Li120  1  0.32688734  0.08069226  0.83987292  1
  Li  Li121  1  0.66645830  0.92050664  0.83781637  1
  Li  Li122  1  0.08014040  0.55575607  0.84682004  1
  Li  Li123  1  0.89776635  0.44463729  0.84477860  1
  Li  Li124  1  0.68940285  0.34063972  0.84347929  1
  Li  Li125  1  0.28727567  0.65738995  0.84074904  1
  Li  Li126  1  0.16980058  0.17657567  0.84874111  1
  Li  Li127  1  0.82188656  0.80660450  0.87723333  1
  Li  Li128  1  0.57147750  0.14808838  0.87785378  1
  Li  Li129  1  0.47912070  0.98632811  0.86121954  1
  Li  Li130  1  0.07720094  0.36208263  0.87658522  1
  Li  Li131  1  0.90821076  0.63795892  0.87631225  1
  Li  Li132  1  0.36396724  0.75988231  0.89868554  1
  Li  Li133  1  0.58603060  0.30709757  0.91757305  1
  Li  Li134  1  0.78174854  0.72275090  0.95583868  1
  Li  Li135  1  0.11057592  0.24786234  0.92859378  1
  Li  Li136  1  0.92793030  0.91039797  0.93235821  1
  Li  Li137  1  0.04010259  0.06598161  0.93578290  1
  Li  Li138  1  0.43324394  0.62501348  0.93838972  1
  Li  Li139  1  0.52711135  0.47463790  0.94574932  1
  Li  Li140  1  0.32536729  0.78492045  0.96040305  1
  Li  Li141  1  0.63524317  0.19123865  0.96817775  1
  Li  Li142  1  0.63587194  0.30271201  0.48020324  1
  Li  Li143  1  0.32988891  0.71303998  0.48778528  1
  La  La144  1  0.22856712  0.97609576  0.00143971  1
  La  La145  1  0.71505003  0.49547644  0.99867035  1
  La  La146  1  0.83936976  0.75003515  0.04300889  1
  La  La147  1  0.33018597  0.74626579  0.04857723  1
  La  La148  1  0.59930158  0.26000765  0.05099701  1
  La  La149  1  0.07831645  0.24867071  0.04627076  1
  La  La150  1  0.71274626  0.00684683  0.08824848  1
  La  La151  1  0.21518013  0.49146414  0.08968315  1
  La  La152  1  0.46747261  0.12441785  0.13522942  1
  La  La153  1  0.96534245  0.37345562  0.13363685  1
  La  La154  1  0.45903845  0.62470246  0.13218498  1
  La  La155  1  0.95959311  0.88267905  0.14015738  1
  La  La156  1  0.71413677  0.50341663  0.17498153  1
  La  La157  1  0.21379118  0.00151615  0.18013757  1
  La  La158  1  0.33964063  0.25025534  0.22397594  1
  La  La159  1  0.84233268  0.25005382  0.22392743  1
  La  La160  1  0.08850114  0.75038798  0.22426683  1
  La  La161  1  0.58442540  0.75001806  0.22428829  1
  La  La162  1  0.21367614  0.49907419  0.26816301  1
  La  La163  1  0.71406033  0.99650813  0.27325751  1
  La  La164  1  0.95920517  0.61752903  0.30819546  1
  La  La165  1  0.45898392  0.87578168  0.31609541  1
  La  La166  1  0.96522094  0.12649519  0.31427996  1
  La  La167  1  0.46727631  0.37672623  0.31241236  1
  La  La168  1  0.21524386  0.00965329  0.35862051  1
  La  La169  1  0.71324717  0.49337554  0.36020329  1
  La  La170  1  0.83809306  0.75121354  0.40656085  1
  La  La171  1  0.32994998  0.75545122  0.39996913  1
  La  La172  1  0.59588624  0.24187577  0.39515955  1
  La  La173  1  0.07907670  0.25051785  0.40143093  1
  La  La174  1  0.71478951  0.03148035  0.44995682  1
  La  La175  1  0.22867163  0.52500525  0.44656958  1
  La  La176  1  0.97127598  0.02442043  0.50136703  1
  La  La177  1  0.48474818  0.49222373  0.49858337  1
  La  La178  1  0.35817380  0.25010246  0.54365439  1
  La  La179  1  0.86871920  0.25292888  0.54888069  1
  La  La180  1  0.59948240  0.73921530  0.54981054  1
  La  La181  1  0.12151593  0.75093540  0.54595111  1
  La  La182  1  0.48728995  0.99299988  0.58836716  1
  La  La183  1  0.98472520  0.50744134  0.58968605  1
  La  La184  1  0.73230948  0.87530521  0.63479489  1
  La  La185  1  0.23430238  0.62667075  0.63359804  1
  La  La186  1  0.74099499  0.37551559  0.63234553  1
  La  La187  1  0.24025554  0.11735464  0.64037898  1
  La  La188  1  0.48597525  0.49704118  0.67480515  1
  La  La189  1  0.98590397  0.99786873  0.68017290  1
  La  La190  1  0.85965182  0.75011081  0.72411535  1
  La  La191  1  0.35747415  0.75004162  0.72401635  1
  La  La192  1  0.11186940  0.24985741  0.72411574  1
  La  La193  1  0.61596289  0.24998085  0.72420616  1
  La  La194  1  0.98609923  0.50154239  0.76818271  1
  La  La195  1  0.48600590  0.00285482  0.77330479  1
  La  La196  1  0.24090637  0.38241752  0.80789820  1
  La  La197  1  0.74122259  0.12465313  0.81584282  1
  La  La198  1  0.23469407  0.87303916  0.81465518  1
  La  La199  1  0.73213200  0.62426799  0.81295072  1
  La  La200  1  0.98514608  0.99227138  0.85844963  1
  La  La201  1  0.48705620  0.50726948  0.85990006  1
  La  La202  1  0.36195043  0.25064311  0.90515814  1
  La  La203  1  0.87032882  0.24566476  0.89969025  1
  La  La204  1  0.60119797  0.76037852  0.89719210  1
  La  La205  1  0.12165652  0.74811169  0.90186958  1
  La  La206  1  0.48461375  0.99556910  0.94959042  1
  La  La207  1  0.97124521  0.47532333  0.94672345  1
  Zr  Zr208  1  0.95071784  0.00765672  0.04250268  1
  Zr  Zr209  1  0.47204118  0.01922663  0.04396235  1
  Zr  Zr210  1  0.45799534  0.50487236  0.03775340  1
  Zr  Zr211  1  0.96598626  0.49457666  0.04364888  1
  Zr  Zr212  1  0.71847383  0.25184638  0.13682095  1
  Zr  Zr213  1  0.71270889  0.75274264  0.13276132  1
  Zr  Zr214  1  0.21402296  0.24146905  0.13443543  1
  Zr  Zr215  1  0.21004126  0.75697788  0.13470515  1
  Zr  Zr216  1  0.46024755  0.50244324  0.22168177  1
  Zr  Zr217  1  0.96375284  0.50039754  0.22116327  1
  Zr  Zr218  1  0.96359363  0.99964469  0.22705790  1
  Zr  Zr219  1  0.46022582  0.99798368  0.22651002  1
  Zr  Zr220  1  0.20992623  0.74307502  0.31391225  1
  Zr  Zr221  1  0.21395877  0.25894122  0.31347165  1
  Zr  Zr222  1  0.71261083  0.74746872  0.31593070  1
  Zr  Zr223  1  0.71895085  0.24871022  0.31089175  1
  Zr  Zr224  1  0.96630457  0.00524656  0.40441402  1
  Zr  Zr225  1  0.45940270  0.99657657  0.41023152  1
  Zr  Zr226  1  0.47178055  0.48031209  0.40427580  1
  Zr  Zr227  1  0.95053108  0.49130248  0.40627184  1
  Zr  Zr228  1  0.24819637  0.99211055  0.54306992  1
  Zr  Zr229  1  0.72736621  0.98111570  0.54352772  1
  Zr  Zr230  1  0.74231984  0.49397808  0.53778711  1
  Zr  Zr231  1  0.23465525  0.50571621  0.54358659  1
  Zr  Zr232  1  0.48168290  0.74796290  0.63650939  1
  Zr  Zr233  1  0.48710189  0.24715005  0.63299762  1
  Zr  Zr234  1  0.98545086  0.75803563  0.63431096  1
  Zr  Zr235  1  0.98999268  0.24268282  0.63479010  1
  Zr  Zr236  1  0.73926646  0.49814471  0.72182875  1
  Zr  Zr237  1  0.23598914  0.49994495  0.72105968  1
  Zr  Zr238  1  0.23584073  0.99953457  0.72716547  1
  Zr  Zr239  1  0.73917833  0.00158146  0.72631635  1
  Zr  Zr240  1  0.99012027  0.25694948  0.81349017  1
  Zr  Zr241  1  0.98574641  0.74123847  0.81388385  1
  Zr  Zr242  1  0.48740827  0.25233867  0.81546408  1
  Zr  Zr243  1  0.48134943  0.75194925  0.81145088  1
  Zr  Zr244  1  0.23352786  0.99406392  0.90475931  1
  Zr  Zr245  1  0.74197413  0.00469217  0.91045482  1
  Zr  Zr246  1  0.72771099  0.51931529  0.90425562  1
  Zr  Zr247  1  0.24917988  0.50690008  0.90567083  1
  O  O248  1  0.80343449  0.95164834  0.03145839  1
  O  O249  1  0.62219009  0.08377375  0.03632850  1
  O  O250  1  0.12065277  0.42989518  0.02856191  1
  O  O251  1  0.30043660  0.55603551  0.03156428  1
  O  O252  1  0.32808668  0.93601320  0.05338481  1
  O  O253  1  0.11344700  0.06261539  0.04651471  1
  O  O254  1  0.60710933  0.45054819  0.05537304  1
  O  O255  1  0.82146461  0.56467153  0.05710355  1
  O  O256  1  0.43877800  0.16252259  0.06984821  1
  O  O257  1  0.00654915  0.86115108  0.03771509  1
  O  O258  1  0.94720417  0.34556380  0.06942726  1
  O  O259  1  0.48331564  0.65147667  0.06487138  1
  O  O260  1  0.75927036  0.19210686  0.08635139  1
  O  O261  1  0.67733220  0.79524748  0.07880505  1
  O  O262  1  0.23761704  0.28063158  0.07855170  1
  O  O263  1  0.16675313  0.72295336  0.07999852  1
  O  O264  1  0.91787889  0.01628124  0.09533530  1
  O  O265  1  0.52665267  0.97836404  0.09687814  1
  O  O266  1  0.02146048  0.53273432  0.09761513  1
  O  O267  1  0.39891565  0.46437399  0.09568079  1
  O  O268  1  0.06137466  0.20151539  0.11505036  1
  O  O269  1  0.36121223  0.79361738  0.11573817  1
  O  O270  1  0.56901066  0.28360767  0.11886165  1
  O  O271  1  0.87183755  0.72763320  0.11236613  1
  O  O272  1  0.26782316  0.09235576  0.12160198  1
  O  O273  1  0.15042700  0.90618091  0.12110315  1
  O  O274  1  0.77521876  0.39978492  0.12577065  1
  O  O275  1  0.66088504  0.60378825  0.12060349  1
  O  O276  1  0.16292596  0.39153090  0.14148619  1
  O  O277  1  0.26296263  0.60691132  0.13934306  1
  O  O278  1  0.66326973  0.10084794  0.14848907  1
  O  O279  1  0.76324343  0.90373883  0.14503796  1
  O  O280  1  0.36513907  0.27125070  0.15716840  1
  O  O281  1  0.05715996  0.72238549  0.15454720  1
  O  O282  1  0.87016215  0.20863792  0.15732905  1
  O  O283  1  0.56094707  0.78834185  0.15269430  1
  O  O284  1  0.91437998  0.53402452  0.16711721  1
  O  O285  1  0.51191886  0.47236738  0.16589282  1
  O  O286  1  0.02006422  0.02168007  0.17405409  1
  O  O287  1  0.40774085  0.97719467  0.17333424  1
  O  O288  1  0.68275619  0.31070681  0.18908782  1
  O  O289  1  0.74933314  0.69754892  0.18547975  1
  O  O290  1  0.17721228  0.18842049  0.18701826  1
  O  O291  1  0.24276336  0.81008022  0.18731837  1
  O  O292  1  0.99969260  0.35465718  0.20340804  1
  O  O293  1  0.42782290  0.65038203  0.20194906  1
  O  O294  1  0.50092699  0.14463598  0.21003672  1
  O  O295  1  0.92681164  0.85227484  0.20573247  1
  O  O296  1  0.30899985  0.44614044  0.20853510  1
  O  O297  1  0.11632898  0.55712942  0.20821960  1
  O  O298  1  0.61463513  0.94156596  0.21418615  1
  O  O299  1  0.80960820  0.04888874  0.21504972  1
  O  O300  1  0.80966249  0.45150919  0.23303924  1
  O  O301  1  0.61462992  0.55878893  0.23405542  1
  O  O302  1  0.11617988  0.94292907  0.24013724  1
  O  O303  1  0.30895344  0.05378676  0.23969066  1
  O  O304  1  0.92679412  0.64807110  0.24242677  1
  O  O305  1  0.50114405  0.35584007  0.23824488  1
  O  O306  1  0.42821706  0.84989728  0.24651709  1
  O  O307  1  0.99969819  0.14559040  0.24458354  1
  O  O308  1  0.24206332  0.69024057  0.26129807  1
  O  O309  1  0.17668679  0.31206817  0.26104772  1
  O  O310  1  0.74889315  0.80265896  0.26307891  1
  O  O311  1  0.68319581  0.19002755  0.25874770  1
  O  O312  1  0.40710027  0.52303689  0.27481764  1
  O  O313  1  0.01981816  0.47885372  0.27424268  1
  O  O314  1  0.51232390  0.02790054  0.28227223  1
  O  O315  1  0.91406409  0.96666184  0.28113609  1
  O  O316  1  0.56089519  0.71146431  0.29587009  1
  O  O317  1  0.87039037  0.29186379  0.29069967  1
  O  O318  1  0.05694313  0.77801684  0.29411488  1
  O  O319  1  0.36493157  0.22933142  0.29071914  1
  O  O320  1  0.76371063  0.59649322  0.30326747  1
  O  O321  1  0.66363203  0.40004734  0.29958718  1
  O  O322  1  0.26256641  0.89315401  0.30907666  1
  O  O323  1  0.16283145  0.10877492  0.30666983  1
  O  O324  1  0.66070345  0.89626511  0.32795645  1
  O  O325  1  0.77460024  0.10076647  0.32221217  1
  O  O326  1  0.14992118  0.59423259  0.32761386  1
  O  O327  1  0.26739079  0.40823199  0.32653528  1
  O  O328  1  0.87139751  0.77293228  0.33591377  1
  O  O329  1  0.56873368  0.21730645  0.32857202  1
  O  O330  1  0.36110456  0.70701213  0.33293196  1
  O  O331  1  0.06165887  0.29899917  0.33306640  1
  O  O332  1  0.39887451  0.03704167  0.35222935  1
  O  O333  1  0.02208800  0.96699756  0.35056460  1
  O  O334  1  0.52723084  0.52177224  0.35161970  1
  O  O335  1  0.91880935  0.48371192  0.35331399  1
  O  O336  1  0.16584318  0.77717712  0.36874928  1
  O  O337  1  0.23779962  0.21939527  0.36927114  1
  O  O338  1  0.67619779  0.70411943  0.36978438  1
  O  O339  1  0.75912023  0.30768442  0.36172175  1
  O  O340  1  0.48310713  0.85041349  0.38344800  1
  O  O341  1  0.94785112  0.15421657  0.37801089  1
  O  O342  1  0.00672049  0.63732303  0.41181984  1
  O  O343  1  0.43841708  0.33751650  0.37742926  1
  O  O344  1  0.82190608  0.93748021  0.39138687  1
  O  O345  1  0.60638430  0.05437477  0.39160294  1
  O  O346  1  0.11350459  0.43614908  0.40210834  1
  O  O347  1  0.32954228  0.56555527  0.39516527  1
  O  O348  1  0.30207889  0.94465873  0.41711973  1
  O  O349  1  0.12270563  0.07026484  0.41883164  1
  O  O350  1  0.62206782  0.41324614  0.41201919  1
  O  O351  1  0.80300618  0.54505886  0.41692366  1
  O  O352  1  0.38563258  0.07887029  0.99981543  1
  O  O353  1  0.52439144  0.55271953  0.99038417  1
  O  O354  1  0.88757418  0.42784138  0.00104025  1
  O  O355  1  0.22512626  0.79695123  0.00147657  1
  O  O356  1  0.70624008  0.71177756  0.00306912  1
  O  O357  1  0.72355364  0.26577366  0.00595359  1
  O  O358  1  0.53268114  0.90989177  0.00948833  1
  O  O359  1  0.92062159  0.15226116  0.02303427  1
  O  O360  1  0.01717465  0.62122139  0.01601811  1
  O  O361  1  0.41379370  0.35716566  0.02240498  1
  O  O362  1  0.41379560  0.14437451  0.42537568  1
  O  O363  1  0.01756210  0.88031737  0.43305494  1
  O  O364  1  0.91974253  0.34541494  0.42581764  1
  O  O365  1  0.53334539  0.58399938  0.43991593  1
  O  O366  1  0.72187777  0.22494937  0.44191728  1
  O  O367  1  0.70780183  0.77606645  0.44622896  1
  O  O368  1  0.22596872  0.70363247  0.44716106  1
  O  O369  1  0.89383785  0.07868039  0.44680293  1
  O  O370  1  0.53038552  0.95432010  0.45724234  1
  O  O371  1  0.38286862  0.41768009  0.44729026  1
  O  O372  1  0.39506248  0.04721862  0.53133561  1
  O  O373  1  0.57775720  0.91793080  0.53620466  1
  O  O374  1  0.08063334  0.56870043  0.52807669  1
  O  O375  1  0.90033355  0.44245146  0.53190057  1
  O  O376  1  0.87194261  0.06353672  0.55344795  1
  O  O377  1  0.08501008  0.93692711  0.54658177  1
  O  O378  1  0.59255729  0.54783318  0.55472896  1
  O  O379  1  0.37880770  0.43411920  0.55737494  1
  O  O380  1  0.76221674  0.83797405  0.56854799  1
  O  O381  1  0.19358653  0.13924221  0.53890026  1
  O  O382  1  0.25296325  0.65429875  0.56916745  1
  O  O383  1  0.71609362  0.34738724  0.56538981  1
  O  O384  1  0.44091782  0.80808821  0.58610710  1
  O  O385  1  0.52037674  0.20535578  0.57892792  1
  O  O386  1  0.96269590  0.71936922  0.57833196  1
  O  O387  1  0.03307739  0.27746136  0.58019090  1
  O  O388  1  0.28172317  0.98330676  0.59577099  1
  O  O389  1  0.67332963  0.02131607  0.59686939  1
  O  O390  1  0.17859579  0.46764586  0.59768372  1
  O  O391  1  0.80105835  0.53380137  0.59581746  1
  O  O392  1  0.13821332  0.79802329  0.61500901  1
  O  O393  1  0.83878674  0.20605618  0.61597389  1
  O  O394  1  0.63108621  0.71660385  0.61835665  1
  O  O395  1  0.32734264  0.27290420  0.61258294  1
  O  O396  1  0.93168988  0.90747263  0.62157649  1
  O  O397  1  0.04947816  0.09369316  0.62115339  1
  O  O398  1  0.42445676  0.60030992  0.62545874  1
  O  O399  1  0.53958068  0.39629215  0.62093836  1
  O  O400  1  0.03615388  0.60808556  0.64149514  1
  O  O401  1  0.93776851  0.39298235  0.63957253  1
  O  O402  1  0.53625924  0.89915878  0.64830795  1
  O  O403  1  0.43628269  0.09659540  0.64517681  1
  O  O404  1  0.83421919  0.72853007  0.65708991  1
  O  O405  1  0.14275154  0.27752996  0.65479574  1
  O  O406  1  0.32964047  0.79075913  0.65713389  1
  O  O407  1  0.63880238  0.21129190  0.65281939  1
  O  O408  1  0.28571302  0.46671725  0.66704906  1
  O  O409  1  0.68814546  0.52794009  0.66595519  1
  O  O410  1  0.17966318  0.97795744  0.67413404  1
  O  O411  1  0.79160726  0.02265615  0.67313731  1
  O  O412  1  0.51695773  0.68958507  0.68888657  1
  O  O413  1  0.45067274  0.30326757  0.68543169  1
  O  O414  1  0.02258370  0.81095249  0.68688679  1
  O  O415  1  0.95728430  0.18934210  0.68736555  1
  O  O416  1  0.19985377  0.64550045  0.70324923  1
  O  O417  1  0.77193257  0.34984871  0.70202827  1
  O  O418  1  0.69834441  0.85518034  0.70982979  1
  O  O419  1  0.27368801  0.14728276  0.70608400  1
  O  O420  1  0.89080013  0.55423086  0.70870016  1
  O  O421  1  0.08351024  0.44314285  0.70824340  1
  O  O422  1  0.58471495  0.05782671  0.71423120  1
  O  O423  1  0.38973369  0.94982555  0.71503273  1
  O  O424  1  0.38983725  0.54982806  0.73310675  1
  O  O425  1  0.58493041  0.44185727  0.73400239  1
  O  O426  1  0.08354738  0.05655893  0.74013203  1
  O  O427  1  0.89067381  0.94563863  0.73953125  1
  O  O428  1  0.27386055  0.35235082  0.74219828  1
  O  O429  1  0.69830003  0.64468300  0.73821220  1
  O  O430  1  0.77193641  0.14998974  0.74601049  1
  O  O431  1  0.19964209  0.85387838  0.74479866  1
  O  O432  1  0.95774898  0.31020539  0.76098996  1
  O  O433  1  0.02303447  0.68828561  0.76130319  1
  O  O434  1  0.45102551  0.19673559  0.76286061  1
  O  O435  1  0.51673850  0.81032587  0.75909489  1
  O  O436  1  0.79226382  0.47757768  0.77496120  1
  O  O437  1  0.18023866  0.52161739  0.77416061  1
  O  O438  1  0.68777715  0.97236464  0.78225504  1
  O  O439  1  0.28567062  0.03310356  0.78116614  1
  O  O440  1  0.63917791  0.28844180  0.79547491  1
  O  O441  1  0.32945064  0.70906668  0.79097442  1
  O  O442  1  0.14320146  0.22214413  0.79365458  1
  O  O443  1  0.83475730  0.77110742  0.79105413  1
  O  O444  1  0.43662213  0.40319336  0.80311514  1
  O  O445  1  0.53615771  0.60079541  0.79966794  1
  O  O446  1  0.93733647  0.10688191  0.80861403  1
  O  O447  1  0.03736557  0.89118752  0.80704798  1
  O  O448  1  0.53983383  0.10360167  0.82765450  1
  O  O449  1  0.42469195  0.89977850  0.82263826  1
  O  O450  1  0.04990746  0.40579989  0.82724396  1
  O  O451  1  0.93222432  0.59185096  0.82664318  1
  O  O452  1  0.32853069  0.22716850  0.83580398  1
  O  O453  1  0.63080811  0.78414894  0.82940835  1
  O  O454  1  0.83907701  0.29352718  0.83254032  1
  O  O455  1  0.13839862  0.70109455  0.83333473  1
  O  O456  1  0.80145505  0.96448251  0.85220372  1
  O  O457  1  0.17841473  0.03281144  0.85073608  1
  O  O458  1  0.67298880  0.47827780  0.85132608  1
  O  O459  1  0.28166723  0.51599393  0.85285945  1
  O  O460  1  0.03370285  0.22202856  0.86816487  1
  O  O461  1  0.96227556  0.77974634  0.86977182  1
  O  O462  1  0.52339475  0.29497297  0.86940776  1
  O  O463  1  0.44048783  0.69205361  0.86187578  1
  O  O464  1  0.71748457  0.15117751  0.88330561  1
  O  O465  1  0.25276484  0.84543981  0.87882108  1
  O  O466  1  0.19400949  0.35992849  0.91040088  1
  O  O467  1  0.76109326  0.66211497  0.87817230  1
  O  O468  1  0.37776376  0.06472522  0.89134238  1
  O  O469  1  0.59284837  0.95105993  0.89267999  1
  O  O470  1  0.08656569  0.56172625  0.90191430  1
  O  O471  1  0.87128213  0.43539204  0.89493653  1
  O  O472  1  0.89978064  0.05490754  0.91659165  1
  O  O473  1  0.07906025  0.92819301  0.91950976  1
  O  O474  1  0.57752084  0.58431890  0.91181801  1
  O  O475  1  0.39655499  0.45061337  0.91653851  1
  O  O476  1  0.81110554  0.92783708  0.49822759  1
  O  O477  1  0.67873892  0.44126149  0.49045741  1
  O  O478  1  0.31511189  0.56935656  0.50082329  1
  O  O479  1  0.97676552  0.20362424  0.50235370  1
  O  O480  1  0.49224303  0.29119020  0.50304597  1
  O  O481  1  0.47617115  0.74006400  0.50542903  1
  O  O482  1  0.66606582  0.09638720  0.51062351  1
  O  O483  1  0.27785534  0.84786245  0.52358975  1
  O  O484  1  0.18462297  0.37655535  0.51723301  1
  O  O485  1  0.78701649  0.64066581  0.52249999  1
  O  O486  1  0.78519458  0.85638100  0.92529658  1
  O  O487  1  0.18102414  0.11853074  0.93322747  1
  O  O488  1  0.27951796  0.65165037  0.92507699  1
  O  O489  1  0.66678616  0.41081265  0.93892233  1
  O  O490  1  0.47632750  0.76648711  0.94215585  1
  O  O491  1  0.49430358  0.21192700  0.94513703  1
  O  O492  1  0.97491238  0.29674960  0.94674733  1
  O  O493  1  0.31242114  0.92747025  0.94726263  1
  O  O494  1  0.67584165  0.05211204  0.95787336  1
  O  O495  1  0.81452997  0.57875401  0.94827178  1
