# generated using pymatgen
data_Li42La16Zr10O65
_symmetry_space_group_name_H-M   'P 1'
_cell_length_a   12.70453900
_cell_length_b   13.20454200
_cell_length_c   38.60180427
_cell_angle_alpha   90.00000000
_cell_angle_beta   90.00000000
_cell_angle_gamma   90.00000000
_symmetry_Int_Tables_number   1
_chemical_formula_structural   Li42La16Zr10O65
_chemical_formula_sum   'Li168 La64 Zr40 O260'
_cell_volume   6475.74676635
_cell_formula_units_Z   4
loop_
 _symmetry_equiv_pos_site_id
 _symmetry_equiv_pos_as_xyz
  1  'x, y, z'
loop_
 _atom_site_type_symbol
 _atom_site_label
 _atom_site_symmetry_multiplicity
 _atom_site_fract_x
 _atom_site_fract_y
 _atom_site_fract_z
 _atom_site_occupancy
  Li  Li0  1  0.91948724  0.91640874  0.98570856  1
  Li  Li1  1  0.59058200  0.06249776  0.00048620  1
  Li  Li2  1  0.01505653  0.57197754  0.99590584  1
  Li  Li3  1  0.41180555  0.56254359  0.99004608  1
  Li  Li4  1  0.63120360  0.70010008  0.98605147  1
  Li  Li5  1  0.87790921  0.27833816  0.02586720  1
  Li  Li6  1  0.12247413  0.82151675  0.98556987  1
  Li  Li7  1  0.39585812  0.19040952  0.02828080  1
  Li  Li8  1  0.68444596  0.88222600  0.03824413  1
  Li  Li9  1  0.77822097  0.06570949  0.01817536  1
  Li  Li10  1  0.20456526  0.53125399  0.01779032  1
  Li  Li11  1  0.08689886  0.40523979  0.99763024  1
  Li  Li12  1  0.89384851  0.17958072  0.07879250  1
  Li  Li13  1  0.61663740  0.72116977  0.05587044  1
  Li  Li14  1  0.29201889  0.33461228  0.03316004  1
  Li  Li15  1  0.11878936  0.73310937  0.04970207  1
  Li  Li16  1  0.32098109  0.11853853  0.08475943  1
  Li  Li17  1  0.17156123  0.89091008  0.07893736  1
  Li  Li18  1  0.80645163  0.38318293  0.08670613  1
  Li  Li19  1  0.69490645  0.54836725  0.08815623  1
  Li  Li20  1  0.40866393  0.30497807  0.08888586  1
  Li  Li21  1  0.04995041  0.65968569  0.10660661  1
  Li  Li22  1  0.97897148  0.10887696  0.13409920  1
  Li  Li23  1  0.54599919  0.82774757  0.10720116  1
  Li  Li24  1  0.34374848  0.92947556  0.11520424  1
  Li  Li25  1  0.15879480  0.04433347  0.11333762  1
  Li  Li26  1  0.56480425  0.41023268  0.11865097  1
  Li  Li27  1  0.88545081  0.55508236  0.11903304  1
  Li  Li28  1  0.38048328  0.41259688  0.16166252  1
  Li  Li29  1  0.09401005  0.56597306  0.16369982  1
  Li  Li30  1  0.60265811  0.92002707  0.16560585  1
  Li  Li31  1  0.83854378  0.05704270  0.17023330  1
  Li  Li32  1  0.05924308  0.15281665  0.18147114  1
  Li  Li33  1  0.43302301  0.82324079  0.16745019  1
  Li  Li34  1  0.55012667  0.32014536  0.17370928  1
  Li  Li35  1  0.93025620  0.66571685  0.17021079  1
  Li  Li36  1  0.19114056  0.41399180  0.19635386  1
  Li  Li37  1  0.29546978  0.57847966  0.19551371  1
  Li  Li38  1  0.67635667  0.07316501  0.20248760  1
  Li  Li39  1  0.79301100  0.89675777  0.19977813  1
  Li  Li40  1  0.36396474  0.74235643  0.22586080  1
  Li  Li41  1  0.12427775  0.23867901  0.22537914  1
  Li  Li42  1  0.86557937  0.73948935  0.22579123  1
  Li  Li43  1  0.61661404  0.23932084  0.22668872  1
  Li  Li44  1  0.79407094  0.58235710  0.25301869  1
  Li  Li45  1  0.67504898  0.40386971  0.25104171  1
  Li  Li46  1  0.29300713  0.90601164  0.25784190  1
  Li  Li47  1  0.18767250  0.06957503  0.25528921  1
  Li  Li48  1  0.93290485  0.81427537  0.28159588  1
  Li  Li49  1  0.55084177  0.16050010  0.28009415  1
  Li  Li50  1  0.43186990  0.65999213  0.28246902  1
  Li  Li51  1  0.06370648  0.32424393  0.26931718  1
  Li  Li52  1  0.83149147  0.42781006  0.28454729  1
  Li  Li53  1  0.60351124  0.55920296  0.28618183  1
  Li  Li54  1  0.09553926  0.91548281  0.29111020  1
  Li  Li55  1  0.37977906  0.06756300  0.29014988  1
  Li  Li56  1  0.89204437  0.92029709  0.33280224  1
  Li  Li57  1  0.56404242  0.07214393  0.33547555  1
  Li  Li58  1  0.14990372  0.42637228  0.33704024  1
  Li  Li59  1  0.35548905  0.55750784  0.33586998  1
  Li  Li60  1  0.54751793  0.65362062  0.34268295  1
  Li  Li61  1  0.98057618  0.37462465  0.31446309  1
  Li  Li62  1  0.05751322  0.81844586  0.35324786  1
  Li  Li63  1  0.40271752  0.18741339  0.36811128  1
  Li  Li64  1  0.69141855  0.92403928  0.36472417  1
  Li  Li65  1  0.80388462  0.09163411  0.36505261  1
  Li  Li66  1  0.17926300  0.58275038  0.36910969  1
  Li  Li67  1  0.30644875  0.39161715  0.36958469  1
  Li  Li68  1  0.90744309  0.31260206  0.36604436  1
  Li  Li69  1  0.61886782  0.74684014  0.39827472  1
  Li  Li70  1  0.29498184  0.12849479  0.42692158  1
  Li  Li71  1  0.11864337  0.73151274  0.40341172  1
  Li  Li72  1  0.08931980  0.03150531  0.45724896  1
  Li  Li73  1  0.20098311  0.91201926  0.43058534  1
  Li  Li74  1  0.77283738  0.43557120  0.43187672  1
  Li  Li75  1  0.66584531  0.57498748  0.43281278  1
  Li  Li76  1  0.38490820  0.29085104  0.42705233  1
  Li  Li77  1  0.15251720  0.75065882  0.47417711  1
  Li  Li78  1  0.86068226  0.22493853  0.41433875  1
  Li  Li79  1  0.61614074  0.81446334  0.46634252  1
  Li  Li80  1  0.41107494  0.92413350  0.46368841  1
  Li  Li81  1  0.99698184  0.87922543  0.45408092  1
  Li  Li82  1  0.58821348  0.41253427  0.45397921  1
  Li  Li83  1  0.91742319  0.57503790  0.46081281  1
  Li  Li84  1  0.90514175  0.08419144  0.48563710  1
  Li  Li85  1  0.23294655  0.93734484  0.50087255  1
  Li  Li86  1  0.81051898  0.42807327  0.49588545  1
  Li  Li87  1  0.41131258  0.43732048  0.49028769  1
  Li  Li88  1  0.19457781  0.30120849  0.48609644  1
  Li  Li89  1  0.94773515  0.72337174  0.52644796  1
  Li  Li90  1  0.70211092  0.17840755  0.48538095  1
  Li  Li91  1  0.42750228  0.80983221  0.52848937  1
  Li  Li92  1  0.13974571  0.11688823  0.53802908  1
  Li  Li93  1  0.04583517  0.93306362  0.51849737  1
  Li  Li94  1  0.62084651  0.46910945  0.51772149  1
  Li  Li95  1  0.73902039  0.59505062  0.49764356  1
  Li  Li96  1  0.93021528  0.82164090  0.57964474  1
  Li  Li97  1  0.20798255  0.27809466  0.55589994  1
  Li  Li98  1  0.53198889  0.66731496  0.53446695  1
  Li  Li99  1  0.70585932  0.26691276  0.54942419  1
  Li  Li100  1  0.50419983  0.88016379  0.58458012  1
  Li  Li101  1  0.65399853  0.11003448  0.57886878  1
  Li  Li102  1  0.01980797  0.61452591  0.58688145  1
  Li  Li103  1  0.13168689  0.44936647  0.58798998  1
  Li  Li104  1  0.41427097  0.69557202  0.58944277  1
  Li  Li105  1  0.77263307  0.34030639  0.60640140  1
  Li  Li106  1  0.84488315  0.89196098  0.63448567  1
  Li  Li107  1  0.27798191  0.17241195  0.60693017  1
  Li  Li108  1  0.48196286  0.07053277  0.61483427  1
  Li  Li109  1  0.66522659  0.95634360  0.61284326  1
  Li  Li110  1  0.25947219  0.58973237  0.61883381  1
  Li  Li111  1  0.93808555  0.44475703  0.61898188  1
  Li  Li112  1  0.44529820  0.58768580  0.66133274  1
  Li  Li113  1  0.73196998  0.43396891  0.66349025  1
  Li  Li114  1  0.21982522  0.07959170  0.66557195  1
  Li  Li115  1  0.98733065  0.94523553  0.67006702  1
  Li  Li116  1  0.76684357  0.84775254  0.68247093  1
  Li  Li117  1  0.39065980  0.17637113  0.66708271  1
  Li  Li118  1  0.27405176  0.68009572  0.67367434  1
  Li  Li119  1  0.89522136  0.33451165  0.67036268  1
  Li  Li120  1  0.63463765  0.58559417  0.69616471  1
  Li  Li121  1  0.52936593  0.42198462  0.69525265  1
  Li  Li122  1  0.14859250  0.92681571  0.70256686  1
  Li  Li123  1  0.03141096  0.10477165  0.70006784  1
  Li  Li124  1  0.46167176  0.25760249  0.72559771  1
  Li  Li125  1  0.70050938  0.76055480  0.72570541  1
  Li  Li126  1  0.95891647  0.26015658  0.72617946  1
  Li  Li127  1  0.20890805  0.76025869  0.72685823  1
  Li  Li128  1  0.03144136  0.41733716  0.75291949  1
  Li  Li129  1  0.14977469  0.59573695  0.75159616  1
  Li  Li130  1  0.53223440  0.09466803  0.75782217  1
  Li  Li131  1  0.63661565  0.93072104  0.75501409  1
  Li  Li132  1  0.89129565  0.18492689  0.78224932  1
  Li  Li133  1  0.27576771  0.83885557  0.78012544  1
  Li  Li134  1  0.39440329  0.33852677  0.78211793  1
  Li  Li135  1  0.76038700  0.67581251  0.77012479  1
  Li  Li136  1  0.99390251  0.57044853  0.78511061  1
  Li  Li137  1  0.22574070  0.43981671  0.78600560  1
  Li  Li138  1  0.73029083  0.08417049  0.79087320  1
  Li  Li139  1  0.44580741  0.93304255  0.78999517  1
  Li  Li140  1  0.93620695  0.07824486  0.83327376  1
  Li  Li141  1  0.26323703  0.92672833  0.83552682  1
  Li  Li142  1  0.67409565  0.57378802  0.83699649  1
  Li  Li143  1  0.46810921  0.44252694  0.83576252  1
  Li  Li144  1  0.27795202  0.34578138  0.84314625  1
  Li  Li145  1  0.84309797  0.62498411  0.81450168  1
  Li  Li146  1  0.76917926  0.18122108  0.85264653  1
  Li  Li147  1  0.42261044  0.81548348  0.86804383  1
  Li  Li148  1  0.13155153  0.07007135  0.86414294  1
  Li  Li149  1  0.01835403  0.90052514  0.86534619  1
  Li  Li150  1  0.64576188  0.41804416  0.86891467  1
  Li  Li151  1  0.51839872  0.60810444  0.86939981  1
  Li  Li152  1  0.91846050  0.68526102  0.86582215  1
  Li  Li153  1  0.20652922  0.25261687  0.89842429  1
  Li  Li154  1  0.53183582  0.87212082  0.92668640  1
  Li  Li155  1  0.70632732  0.26799441  0.90263709  1
  Li  Li156  1  0.73472365  0.96846609  0.95697442  1
  Li  Li157  1  0.62445036  0.08957188  0.93050042  1
  Li  Li158  1  0.05237425  0.56322471  0.93207324  1
  Li  Li159  1  0.16337017  0.42540595  0.93325117  1
  Li  Li160  1  0.44123252  0.71012912  0.92702854  1
  Li  Li161  1  0.67239407  0.24906135  0.97361049  1
  Li  Li162  1  0.96779411  0.77266096  0.91348661  1
  Li  Li163  1  0.20798038  0.18430033  0.96627699  1
  Li  Li164  1  0.41350830  0.07651966  0.96388813  1
  Li  Li165  1  0.82726963  0.12106399  0.95381515  1
  Li  Li166  1  0.23663098  0.58965779  0.95371380  1
  Li  Li167  1  0.90575376  0.42426629  0.96107216  1
  La  La168  1  0.25025697  0.99301406  0.01481970  1
  La  La169  1  0.74271054  0.48699977  0.01539439  1
  La  La170  1  0.86544426  0.73325504  0.05667559  1
  La  La171  1  0.36485661  0.74646207  0.05577666  1
  La  La172  1  0.61744390  0.24922828  0.05924865  1
  La  La173  1  0.11194732  0.22336834  0.05875898  1
  La  La174  1  0.73881191  0.99782465  0.10119586  1
  La  La175  1  0.23850344  0.49308029  0.09866842  1
  La  La176  1  0.49252689  0.11569617  0.14301406  1
  La  La177  1  0.99410160  0.35560051  0.14344217  1
  La  La178  1  0.48907176  0.61671899  0.13823196  1
  La  La179  1  0.98907764  0.87020606  0.13799315  1
  La  La180  1  0.73978596  0.49294032  0.18091917  1
  La  La181  1  0.24303092  0.98573314  0.18419729  1
  La  La182  1  0.36757308  0.23985606  0.22660267  1
  La  La183  1  0.86393576  0.24041727  0.22718216  1
  La  La184  1  0.11527659  0.74064539  0.22665289  1
  La  La185  1  0.61200151  0.74060217  0.22609456  1
  La  La186  1  0.24326910  0.49487761  0.26836074  1
  La  La187  1  0.73971827  0.98921021  0.27220384  1
  La  La188  1  0.99084202  0.61158354  0.31341286  1
  La  La189  1  0.48939293  0.86478792  0.31428187  1
  La  La190  1  0.99400390  0.12373332  0.31018381  1
  La  La191  1  0.48986145  0.36407652  0.31116164  1
  La  La192  1  0.24077030  0.99775419  0.35413351  1
  La  La193  1  0.73645219  0.49253724  0.35388719  1
  La  La194  1  0.85933717  0.74176577  0.39398018  1
  La  La195  1  0.36996264  0.73791860  0.39598730  1
  La  La196  1  0.61598739  0.23290539  0.39469303  1
  La  La197  1  0.11572671  0.24817573  0.39736902  1
  La  La198  1  0.74638443  0.99135608  0.43657063  1
  La  La199  1  0.24434460  0.51310632  0.43963891  1
  La  La200  1  0.57458467  0.00660138  0.51477916  1
  La  La201  1  0.08161443  0.51332821  0.51535403  1
  La  La202  1  0.95946455  0.26743277  0.55677029  1
  La  La203  1  0.46000515  0.25368076  0.55566978  1
  La  La204  1  0.20697967  0.75099450  0.55953572  1
  La  La205  1  0.71344499  0.77673084  0.55878277  1
  La  La206  1  0.08602191  0.00243068  0.60117034  1
  La  La207  1  0.58613555  0.50746341  0.59856485  1
  La  La208  1  0.33256368  0.88488391  0.64299902  1
  La  La209  1  0.83102540  0.64487052  0.64338245  1
  La  La210  1  0.33565997  0.38338225  0.63822843  1
  La  La211  1  0.83578705  0.13018041  0.63798296  1
  La  La212  1  0.08506254  0.50745934  0.68099076  1
  La  La213  1  0.58213820  0.01446395  0.68406394  1
  La  La214  1  0.45755304  0.76014420  0.72649260  1
  La  La215  1  0.96106665  0.75937187  0.72733640  1
  La  La216  1  0.70981693  0.25952087  0.72651486  1
  La  La217  1  0.21327663  0.25922379  0.72604496  1
  La  La218  1  0.58145658  0.50499715  0.76830295  1
  La  La219  1  0.08547400  0.01056548  0.77216453  1
  La  La220  1  0.83407827  0.38826590  0.81336545  1
  La  La221  1  0.33565537  0.13502383  0.81442736  1
  La  La222  1  0.83066704  0.87652588  0.81017217  1
  La  La223  1  0.33500793  0.63609584  0.81120589  1
  La  La224  1  0.58495609  0.00295289  0.85404087  1
  La  La225  1  0.08941473  0.50480641  0.85393492  1
  La  La226  1  0.96623912  0.25800899  0.89412937  1
  La  La227  1  0.45541875  0.26214102  0.89598744  1
  La  La228  1  0.21044781  0.76776470  0.89479832  1
  La  La229  1  0.70996291  0.75148224  0.89721525  1
  La  La230  1  0.07865472  0.00766119  0.93649562  1
  La  La231  1  0.58094517  0.48716443  0.93960416  1
  Zr  Zr232  1  0.98512699  0.98598983  0.04859269  1
  Zr  Zr233  1  0.49461589  0.99166666  0.05802626  1
  Zr  Zr234  1  0.48400061  0.48817001  0.05163425  1
  Zr  Zr235  1  0.99021921  0.47567189  0.05821584  1
  Zr  Zr236  1  0.74107915  0.24144115  0.14380121  1
  Zr  Zr237  1  0.73849191  0.74372247  0.13988892  1
  Zr  Zr238  1  0.24330758  0.23554456  0.14236747  1
  Zr  Zr239  1  0.23700530  0.74182964  0.13945986  1
  Zr  Zr240  1  0.48738715  0.49314986  0.22400892  1
  Zr  Zr241  1  0.98795053  0.49431411  0.22624329  1
  Zr  Zr242  1  0.98777125  0.98516731  0.22674763  1
  Zr  Zr243  1  0.48732387  0.98675619  0.22872002  1
  Zr  Zr244  1  0.23839146  0.74045215  0.31272440  1
  Zr  Zr245  1  0.24199237  0.24271079  0.31035718  1
  Zr  Zr246  1  0.73834575  0.73696558  0.31055850  1
  Zr  Zr247  1  0.74112924  0.24011696  0.31073012  1
  Zr  Zr248  1  0.99095306  0.99724763  0.39426259  1
  Zr  Zr249  1  0.48752775  0.99039693  0.40122663  1
  Zr  Zr250  1  0.48983890  0.48627511  0.39599012  1
  Zr  Zr251  1  0.99168881  0.48988935  0.40072348  1
  Zr  Zr252  1  0.83986914  0.01444851  0.54860150  1
  Zr  Zr253  1  0.33019823  0.00859773  0.55798267  1
  Zr  Zr254  1  0.34016354  0.51214245  0.55178788  1
  Zr  Zr255  1  0.83474058  0.52435166  0.55825759  1
  Zr  Zr256  1  0.08371653  0.75936141  0.64393907  1
  Zr  Zr257  1  0.08631713  0.25637572  0.64004627  1
  Zr  Zr258  1  0.58200090  0.76481125  0.64228489  1
  Zr  Zr259  1  0.58747106  0.25831854  0.63940872  1
  Zr  Zr260  1  0.33758691  0.50696456  0.72391421  1
  Zr  Zr261  1  0.83697477  0.50598454  0.72628729  1
  Zr  Zr262  1  0.83740563  0.01502882  0.72667525  1
  Zr  Zr263  1  0.33787620  0.01332751  0.72870793  1
  Zr  Zr264  1  0.58671573  0.25926800  0.81273817  1
  Zr  Zr265  1  0.58243190  0.75763564  0.81038068  1
  Zr  Zr266  1  0.08678767  0.26248776  0.81052146  1
  Zr  Zr267  1  0.08361365  0.76059086  0.81090998  1
  Zr  Zr268  1  0.83392532  0.00247693  0.89425666  1
  Zr  Zr269  1  0.33836409  0.01004448  0.90148606  1
  Zr  Zr270  1  0.33562875  0.51444867  0.89590176  1
  Zr  Zr271  1  0.83358866  0.50970988  0.90069615  1
  O  O272  1  0.22812178  0.80980600  0.02102093  1
  O  O273  1  0.24140984  0.19898851  0.01525885  1
  O  O274  1  0.72823597  0.67697815  0.02234178  1
  O  O275  1  0.73274730  0.30592781  0.01572222  1
  O  O276  1  0.52850707  0.84141062  0.04478366  1
  O  O277  1  0.93874598  0.13387394  0.03510329  1
  O  O278  1  0.01693305  0.62597480  0.03988017  1
  O  O279  1  0.44428678  0.33697245  0.04064116  1
  O  O280  1  0.84608677  0.91630918  0.02970395  1
  O  O281  1  0.65074471  0.03250829  0.04508521  1
  O  O282  1  0.14556169  0.41664016  0.04451606  1
  O  O283  1  0.34312310  0.55706842  0.03462690  1
  O  O284  1  0.34063648  0.94524445  0.06684345  1
  O  O285  1  0.13805417  0.04013479  0.06397750  1
  O  O286  1  0.63250738  0.43140089  0.06930814  1
  O  O287  1  0.83843424  0.52404284  0.07048852  1
  O  O288  1  0.46451749  0.14370197  0.07751741  1
  O  O289  1  0.02273619  0.84319180  0.07274349  1
  O  O290  1  0.95171786  0.32728577  0.07566926  1
  O  O291  1  0.51690445  0.63002707  0.07582007  1
  O  O292  1  0.75992175  0.19161741  0.09270136  1
  O  O293  1  0.71006406  0.80350888  0.08899120  1
  O  O294  1  0.26837490  0.26706407  0.08973346  1
  O  O295  1  0.20242681  0.68627801  0.08943014  1
  O  O296  1  0.92701487  0.02140347  0.10009280  1
  O  O297  1  0.54875062  0.96962438  0.10957021  1
  O  O298  1  0.04414194  0.51189483  0.10815549  1
  O  O299  1  0.42225408  0.45376477  0.10343799  1
  O  O300  1  0.09113494  0.19424586  0.12540395  1
  O  O301  1  0.38877079  0.78104802  0.12031773  1
  O  O302  1  0.58957345  0.27372498  0.12682146  1
  O  O303  1  0.89127645  0.70370679  0.12072238  1
  O  O304  1  0.29874280  0.08422751  0.13171717  1
  O  O305  1  0.18671449  0.89513291  0.12891657  1
  O  O306  1  0.80762760  0.38567956  0.13464833  1
  O  O307  1  0.68439250  0.59521533  0.13232331  1
  O  O308  1  0.19026894  0.38491599  0.14856703  1
  O  O309  1  0.29379338  0.59396835  0.14757277  1
  O  O310  1  0.69234391  0.09028369  0.15410704  1
  O  O311  1  0.79813034  0.89266326  0.15051289  1
  O  O312  1  0.39242679  0.26764285  0.16325273  1
  O  O313  1  0.08357260  0.71006191  0.15728835  1
  O  O314  1  0.89434738  0.19858072  0.16357416  1
  O  O315  1  0.58469938  0.77730090  0.15748418  1
  O  O316  1  0.94117016  0.52146944  0.17452518  1
  O  O317  1  0.53734697  0.46262871  0.17152934  1
  O  O318  1  0.03555378  0.01583428  0.17366841  1
  O  O319  1  0.43640017  0.96173276  0.17752146  1
  O  O320  1  0.70561811  0.29979035  0.19307052  1
  O  O321  1  0.77549096  0.69110477  0.18999465  1
  O  O322  1  0.20735489  0.17599617  0.19204874  1
  O  O323  1  0.27192514  0.79493550  0.18990582  1
  O  O324  1  0.02754026  0.34347649  0.21006987  1
  O  O325  1  0.45458511  0.64045552  0.20593210  1
  O  O326  1  0.52714487  0.13367413  0.21068676  1
  O  O327  1  0.95734679  0.84028695  0.20815423  1
  O  O328  1  0.33612102  0.43997723  0.21226563  1
  O  O329  1  0.14206156  0.54887958  0.21320479  1
  O  O330  1  0.63969305  0.93101633  0.21578381  1
  O  O331  1  0.83325978  0.03830736  0.21774574  1
  O  O332  1  0.83426673  0.44185488  0.23597925  1
  O  O333  1  0.64089312  0.54763518  0.23628433  1
  O  O334  1  0.14251573  0.93270279  0.23886895  1
  O  O335  1  0.33572733  0.04157499  0.23999076  1
  O  O336  1  0.95621288  0.63889754  0.24503681  1
  O  O337  1  0.52620491  0.34606229  0.24185181  1
  O  O338  1  0.45450660  0.84063846  0.24706995  1
  O  O339  1  0.02643418  0.13706618  0.24231002  1
  O  O340  1  0.27440484  0.68710372  0.26183175  1
  O  O341  1  0.20919551  0.29903464  0.25957190  1
  O  O342  1  0.77500541  0.78976473  0.26083356  1
  O  O343  1  0.70410242  0.18235303  0.26103296  1
  O  O344  1  0.43704026  0.51826084  0.27556148  1
  O  O345  1  0.04210397  0.46289126  0.27810592  1
  O  O346  1  0.53662993  0.01881636  0.28108402  1
  O  O347  1  0.94166419  0.95823967  0.27841615  1
  O  O348  1  0.58532773  0.70228338  0.29269662  1
  O  O349  1  0.89182878  0.28288074  0.28957352  1
  O  O350  1  0.08635252  0.76934298  0.29351607  1
  O  O351  1  0.39266236  0.21217561  0.28989885  1
  O  O352  1  0.79606894  0.58614852  0.30186177  1
  O  O353  1  0.69026883  0.39112699  0.30095650  1
  O  O354  1  0.29328957  0.88887668  0.30551048  1
  O  O355  1  0.18782293  0.09418247  0.30253371  1
  O  O356  1  0.68309282  0.88444593  0.31933482  1
  O  O357  1  0.80783602  0.09415791  0.31749205  1
  O  O358  1  0.19014706  0.58557655  0.32113733  1
  O  O359  1  0.29463069  0.39340463  0.32087857  1
  O  O360  1  0.89104016  0.77256410  0.33033066  1
  O  O361  1  0.58883726  0.20941916  0.32773894  1
  O  O362  1  0.39308311  0.70217171  0.33095082  1
  O  O363  1  0.08922015  0.28588807  0.32607674  1
  O  O364  1  0.42728738  0.02192033  0.35003450  1
  O  O365  1  0.04823258  0.96440958  0.34411384  1
  O  O366  1  0.54473738  0.51167463  0.34454554  1
  O  O367  1  0.92643296  0.45703321  0.34937127  1
  O  O368  1  0.20746857  0.78572172  0.36400235  1
  O  O369  1  0.25914761  0.19179389  0.36183569  1
  O  O370  1  0.70447654  0.68063891  0.36089406  1
  O  O371  1  0.76910547  0.27491270  0.36267661  1
  O  O372  1  0.52337314  0.84637495  0.37796924  1
  O  O373  1  0.95651648  0.14438975  0.37702178  1
  O  O374  1  0.03043856  0.63096666  0.37705001  1
  O  O375  1  0.44890323  0.33724602  0.37595236  1
  O  O376  1  0.83757741  0.95061469  0.38120033  1
  O  O377  1  0.63627643  0.04764425  0.38420699  1
  O  O378  1  0.14710146  0.43574365  0.38748890  1
  O  O379  1  0.33787632  0.54301152  0.38536760  1
  O  O380  1  0.34779334  0.92103521  0.41838236  1
  O  O381  1  0.14532164  0.04700763  0.41057296  1
  O  O382  1  0.64303249  0.42858708  0.40665080  1
  O  O383  1  0.84618366  0.55835466  0.41623809  1
  O  O384  1  0.44490627  0.14017089  0.41358608  1
  O  O385  1  0.01457815  0.83952861  0.40714060  1
  O  O386  1  0.94801256  0.34306865  0.41248167  1
  O  O387  1  0.53009647  0.63152484  0.41224797  1
  O  O388  1  0.73553238  0.18157025  0.43754153  1
  O  O389  1  0.73231137  0.80250361  0.43273428  1
  O  O390  1  0.23705609  0.26219137  0.44115435  1
  O  O391  1  0.23379001  0.68608709  0.43531907  1
  O  O392  1  0.13207534  0.51775179  0.97400587  1
  O  O393  1  0.55323915  0.52144443  0.00170991  1
  O  O394  1  0.44486525  0.05630726  0.00996771  1
  O  O395  1  0.06055929  0.95631086  0.99946939  1
  O  O396  1  0.94076487  0.43484198  0.00754236  1
  O  O397  1  0.94238829  0.01672435  0.44584216  1
  O  O398  1  0.05459055  0.52036421  0.45087844  1
  O  O399  1  0.43878646  0.42545792  0.44387116  1
  O  O400  1  0.55765799  0.95545162  0.45158879  1
  O  O401  1  0.12656570  0.90101647  0.47387162  1
  O  O402  1  0.59674425  0.19066140  0.52090896  1
  O  O403  1  0.58293696  0.80204287  0.51557038  1
  O  O404  1  0.09652904  0.32319220  0.52233732  1
  O  O405  1  0.09220922  0.69464257  0.51602222  1
  O  O406  1  0.29597925  0.15870246  0.54473263  1
  O  O407  1  0.88675824  0.86635838  0.53540952  1
  O  O408  1  0.80765934  0.37412926  0.53990018  1
  O  O409  1  0.37945865  0.66350424  0.54093356  1
  O  O410  1  0.97884790  0.08394002  0.52966147  1
  O  O411  1  0.17376379  0.96746023  0.54521316  1
  O  O412  1  0.67976857  0.58363375  0.54459058  1
  O  O413  1  0.48131761  0.44335400  0.53477098  1
  O  O414  1  0.48408180  0.05537149  0.56658950  1
  O  O415  1  0.68696173  0.96017045  0.56383572  1
  O  O416  1  0.19149446  0.56860571  0.56950029  1
  O  O417  1  0.98636005  0.47494038  0.57058872  1
  O  O418  1  0.36042791  0.85665628  0.57755134  1
  O  O419  1  0.80236960  0.15715732  0.57268865  1
  O  O420  1  0.87371223  0.67243175  0.57576209  1
  O  O421  1  0.30645536  0.37033149  0.57589444  1
  O  O422  1  0.06487045  0.80975991  0.59294602  1
  O  O423  1  0.11485919  0.19696452  0.58914363  1
  O  O424  1  0.55593753  0.73202000  0.58958739  1
  O  O425  1  0.62217839  0.31372659  0.58932197  1
  O  O426  1  0.89760456  0.97893186  0.60021731  1
  O  O427  1  0.27594069  0.03060684  0.60950508  1
  O  O428  1  0.78052728  0.48800870  0.60822887  1
  O  O429  1  0.40208588  0.54616844  0.60356004  1
  O  O430  1  0.73392679  0.80552471  0.62487102  1
  O  O431  1  0.43590189  0.21906962  0.62016455  1
  O  O432  1  0.23524469  0.72659253  0.62675974  1
  O  O433  1  0.93360072  0.29605401  0.62093637  1
  O  O434  1  0.52654461  0.91585453  0.63144336  1
  O  O435  1  0.63789607  0.10514961  0.62868939  1
  O  O436  1  0.01734631  0.61500439  0.63482746  1
  O  O437  1  0.14052923  0.40491904  0.63258338  1
  O  O438  1  0.63474381  0.61535615  0.64850068  1
  O  O439  1  0.53068959  0.40623385  0.64740357  1
  O  O440  1  0.13324765  0.91043711  0.65421245  1
  O  O441  1  0.02705854  0.10706396  0.65071159  1
  O  O442  1  0.43272275  0.73274624  0.66309076  1
  O  O443  1  0.74098041  0.29005157  0.65718743  1
  O  O444  1  0.93063432  0.80221607  0.66362644  1
  O  O445  1  0.24003573  0.22245051  0.65756106  1
  O  O446  1  0.88426305  0.47862674  0.67458322  1
  O  O447  1  0.28739145  0.53769739  0.67156568  1
  O  O448  1  0.78883136  0.98445008  0.67362337  1
  O  O449  1  0.38889146  0.03794015  0.67750575  1
  O  O450  1  0.11952483  0.70074822  0.69313730  1
  O  O451  1  0.04960156  0.30824933  0.69025765  1
  O  O452  1  0.61786529  0.82409479  0.69202308  1
  O  O453  1  0.55326872  0.20506002  0.68980700  1
  O  O454  1  0.79746573  0.65649793  0.70988956  1
  O  O455  1  0.37037571  0.35965156  0.70585799  1
  O  O456  1  0.29799548  0.86611103  0.71083592  1
  O  O457  1  0.86773819  0.15980684  0.70796975  1
  O  O458  1  0.48878252  0.56012485  0.71218524  1
  O  O459  1  0.68287836  0.45115237  0.71312018  1
  O  O460  1  0.18539014  0.06912614  0.71587822  1
  O  O461  1  0.99191623  0.96209477  0.71776268  1
  O  O462  1  0.99064237  0.55828811  0.73625008  1
  O  O463  1  0.18412106  0.45251675  0.73640409  1
  O  O464  1  0.68254807  0.06758661  0.73880584  1
  O  O465  1  0.48941167  0.95846617  0.73992151  1
  O  O466  1  0.86850389  0.36124200  0.74490926  1
  O  O467  1  0.29878759  0.65372078  0.74221780  1
  O  O468  1  0.37090211  0.15948052  0.74698083  1
  O  O469  1  0.79858624  0.86283779  0.74189815  1
  O  O470  1  0.55080278  0.31236511  0.76177082  1
  O  O471  1  0.61526409  0.70071965  0.75960249  1
  O  O472  1  0.04977786  0.20976081  0.76097092  1
  O  O473  1  0.12082858  0.81748973  0.76123288  1
  O  O474  1  0.38760337  0.48062907  0.77546918  1
  O  O475  1  0.78240975  0.53693548  0.77814540  1
  O  O476  1  0.28894199  0.98106152  0.78112333  1
  O  O477  1  0.88302614  0.04159854  0.77825636  1
  O  O478  1  0.23991611  0.29690029  0.79277360  1
  O  O479  1  0.93305843  0.71730871  0.78988532  1
  O  O480  1  0.73902663  0.23033872  0.79367091  1
  O  O481  1  0.43205729  0.78828307  0.78986131  1
  O  O482  1  0.02829835  0.41311132  0.80181959  1
  O  O483  1  0.13410500  0.60913336  0.80170683  1
  O  O484  1  0.53099901  0.11108318  0.80545757  1
  O  O485  1  0.63695522  0.90596982  0.80235355  1
  O  O486  1  0.14149816  0.11510034  0.81948323  1
  O  O487  1  0.01670947  0.90677971  0.81752232  1
  O  O488  1  0.63472653  0.41423725  0.82102802  1
  O  O489  1  0.52982866  0.60655683  0.82077905  1
  O  O490  1  0.93442251  0.22654107  0.83062142  1
  O  O491  1  0.23645071  0.79014892  0.82782250  1
  O  O492  1  0.43230749  0.29763612  0.83096278  1
  O  O493  1  0.73506688  0.71382494  0.82568644  1
  O  O494  1  0.39870284  0.97748014  0.85026125  1
  O  O495  1  0.77728959  0.03529347  0.84397774  1
  O  O496  1  0.28125845  0.48779845  0.84447602  1
  O  O497  1  0.89978723  0.54305746  0.84925907  1
  O  O498  1  0.61797598  0.21274177  0.86380013  1
  O  O499  1  0.56624971  0.80818865  0.86184329  1
  O  O500  1  0.12111036  0.31979353  0.86085893  1
  O  O501  1  0.05417615  0.73283789  0.86338483  1
  O  O502  1  0.30353078  0.15417412  0.87801528  1
  O  O503  1  0.86610347  0.85522308  0.87683016  1
  O  O504  1  0.79430025  0.36924897  0.87672644  1
  O  O505  1  0.37610998  0.66310081  0.87574371  1
  O  O506  1  0.98779943  0.04650592  0.88130232  1
  O  O507  1  0.19084792  0.95177163  0.88439903  1
  O  O508  1  0.67822160  0.56444246  0.88733474  1
  O  O509  1  0.48733767  0.45769691  0.88529657  1
  O  O510  1  0.47745144  0.08015265  0.91877948  1
  O  O511  1  0.67917053  0.95376619  0.91050558  1
  O  O512  1  0.18170298  0.57137920  0.90641149  1
  O  O513  1  0.97806299  0.44067694  0.91643874  1
  O  O514  1  0.38141054  0.86035478  0.91384749  1
  O  O515  1  0.81099062  0.16059661  0.90693866  1
  O  O516  1  0.87833571  0.65602514  0.91230159  1
  O  O517  1  0.29540595  0.36894345  0.91227007  1
  O  O518  1  0.09052077  0.81799479  0.93773729  1
  O  O519  1  0.09309101  0.19666560  0.93246951  1
  O  O520  1  0.58909196  0.73841060  0.94115104  1
  O  O521  1  0.59213635  0.31411671  0.93498831  1
  O  O522  1  0.69417538  0.48258371  0.47396982  1
  O  O523  1  0.27083247  0.47851052  0.50188757  1
  O  O524  1  0.37927065  0.94393052  0.50987422  1
  O  O525  1  0.76432212  0.04364685  0.49947458  1
  O  O526  1  0.88457177  0.56477688  0.50758474  1
  O  O527  1  0.88209244  0.98360738  0.94587287  1
  O  O528  1  0.76996527  0.48010180  0.95083591  1
  O  O529  1  0.38572295  0.57598436  0.94369167  1
  O  O530  1  0.26733950  0.04453755  0.95169565  1
  O  O531  1  0.69786676  0.09914048  0.97378491  1
