# generated using pymatgen
data_Li18La8Zr5O31
_symmetry_space_group_name_H-M   'P 1'
_cell_length_a   12.70453900
_cell_length_b   13.20454200
_cell_length_c   36.47457599
_cell_angle_alpha   90.00000000
_cell_angle_beta   90.00000000
_cell_angle_gamma   90.00000000
_symmetry_Int_Tables_number   1
_chemical_formula_structural   Li18La8Zr5O31
_chemical_formula_sum   'Li144 La64 Zr40 O248'
_cell_volume   6118.88801524
_cell_formula_units_Z   8
loop_
 _symmetry_equiv_pos_site_id
 _symmetry_equiv_pos_as_xyz
  1  'x, y, z'
loop_
 _atom_site_type_symbol
 _atom_site_label
 _atom_site_symmetry_multiplicity
 _atom_site_fract_x
 _atom_site_fract_y
 _atom_site_fract_z
 _atom_site_occupancy
  Li  Li0  1  0.78295761  0.95682169  0.00671525  1
  Li  Li1  1  0.77535354  0.12175179  0.98093162  1
  Li  Li2  1  0.27053885  0.62478988  0.99999309  1
  Li  Li3  1  0.32676344  0.45802206  0.00545970  1
  Li  Li4  1  0.90685999  0.20531979  0.03532906  1
  Li  Li5  1  0.61599089  0.71757547  0.02075969  1
  Li  Li6  1  0.46919933  0.26493587  0.99288092  1
  Li  Li7  1  0.16992639  0.74845572  0.04579630  1
  Li  Li8  1  0.37027904  0.13576565  0.06957178  1
  Li  Li9  1  0.28449825  0.98167891  0.08775460  1
  Li  Li10  1  0.81325683  0.44838480  0.07585022  1
  Li  Li11  1  0.72121488  0.62364515  0.07616260  1
  Li  Li12  1  0.44734932  0.31992885  0.06426770  1
  Li  Li13  1  0.09721108  0.66603212  0.10578068  1
  Li  Li14  1  0.97855413  0.17364031  0.10384106  1
  Li  Li15  1  0.62590696  0.82682010  0.07634867  1
  Li  Li16  1  0.46730692  0.92690052  0.10869145  1
  Li  Li17  1  0.14178188  0.07869129  0.10762010  1
  Li  Li18  1  0.61671258  0.42168980  0.10637281  1
  Li  Li19  1  0.92878735  0.56732329  0.10527386  1
  Li  Li20  1  0.42884560  0.42469200  0.15482984  1
  Li  Li21  1  0.18638985  0.57515491  0.16205736  1
  Li  Li22  1  0.65356618  0.92665908  0.15712248  1
  Li  Li23  1  0.93032822  0.07501641  0.15986797  1
  Li  Li24  1  0.10032379  0.17506587  0.16555663  1
  Li  Li25  1  0.47965841  0.83450809  0.16751509  1
  Li  Li26  1  0.59750021  0.32807419  0.16526686  1
  Li  Li27  1  0.98256449  0.66514912  0.16620535  1
  Li  Li28  1  0.24074102  0.41482558  0.19272898  1
  Li  Li29  1  0.35160745  0.58349715  0.19715016  1
  Li  Li30  1  0.73780183  0.08452292  0.19346529  1
  Li  Li31  1  0.84114240  0.91971770  0.19318501  1
  Li  Li32  1  0.41412834  0.74989340  0.22426183  1
  Li  Li33  1  0.16666052  0.24997070  0.22386683  1
  Li  Li34  1  0.91472691  0.74975877  0.22399935  1
  Li  Li35  1  0.66737900  0.24871040  0.22381955  1
  Li  Li36  1  0.84097244  0.57985082  0.25468174  1
  Li  Li37  1  0.73684630  0.41380953  0.25415395  1
  Li  Li38  1  0.35177254  0.91632416  0.25073209  1
  Li  Li39  1  0.24050235  0.08530996  0.25515719  1
  Li  Li40  1  0.98266132  0.83494056  0.28183863  1
  Li  Li41  1  0.59828344  0.17149855  0.28227538  1
  Li  Li42  1  0.48008613  0.66413308  0.28064395  1
  Li  Li43  1  0.09994569  0.32410682  0.28225508  1
  Li  Li44  1  0.93010481  0.42466236  0.28793572  1
  Li  Li45  1  0.65415834  0.57252419  0.29054550  1
  Li  Li46  1  0.18703711  0.92459536  0.28583111  1
  Li  Li47  1  0.42986315  0.07505811  0.29319065  1
  Li  Li48  1  0.92844549  0.93269190  0.34254798  1
  Li  Li49  1  0.61643832  0.07849082  0.34143453  1
  Li  Li50  1  0.14054122  0.42156015  0.34010196  1
  Li  Li51  1  0.46682115  0.57161268  0.33951031  1
  Li  Li52  1  0.62566049  0.67284450  0.37136608  1
  Li  Li53  1  0.97855981  0.32645561  0.34428062  1
  Li  Li54  1  0.09725854  0.83392021  0.34238056  1
  Li  Li55  1  0.44600171  0.17922740  0.38396706  1
  Li  Li56  1  0.72116928  0.87658995  0.37157484  1
  Li  Li57  1  0.81433039  0.05321764  0.37233136  1
  Li  Li58  1  0.28422210  0.51762663  0.36048004  1
  Li  Li59  1  0.37088492  0.36328951  0.37855032  1
  Li  Li60  1  0.90633071  0.29413591  0.41269081  1
  Li  Li61  1  0.61631089  0.78254335  0.42699247  1
  Li  Li62  1  0.47083518  0.23624692  0.45458773  1
  Li  Li63  1  0.16985441  0.75094701  0.40211306  1
  Li  Li64  1  0.32644056  0.04180536  0.44287941  1
  Li  Li65  1  0.27050141  0.87499289  0.44785038  1
  Li  Li66  1  0.77418989  0.37779848  0.46711096  1
  Li  Li67  1  0.78360087  0.54308420  0.44115415  1
  Li  Li68  1  0.09928058  0.71504016  0.46011948  1
  Li  Li69  1  0.92240303  0.15635159  0.44751333  1
  Li  Li70  1  0.92217831  0.34324830  0.00072193  1
  Li  Li71  1  0.09936792  0.78502059  0.98772627  1
  Li  Li72  1  0.01737989  0.04279398  0.50688997  1
  Li  Li73  1  0.02663235  0.87799696  0.48094113  1
  Li  Li74  1  0.52809850  0.37677343  0.49999366  1
  Li  Li75  1  0.47338296  0.54369079  0.50570374  1
  Li  Li76  1  0.89407912  0.79450278  0.53530724  1
  Li  Li77  1  0.18436789  0.28313106  0.52079882  1
  Li  Li78  1  0.33273699  0.73564691  0.49278883  1
  Li  Li79  1  0.63012200  0.25199878  0.54573388  1
  Li  Li80  1  0.43057621  0.86307298  0.56951211  1
  Li  Li81  1  0.51681490  0.01806909  0.58737765  1
  Li  Li82  1  0.98325325  0.55489145  0.57521713  1
  Li  Li83  1  0.07902573  0.37717587  0.57645104  1
  Li  Li84  1  0.35415831  0.68041038  0.56420124  1
  Li  Li85  1  0.70307621  0.33283998  0.60612886  1
  Li  Li86  1  0.82193108  0.82620246  0.60356137  1
  Li  Li87  1  0.17433977  0.17473091  0.57646096  1
  Li  Li88  1  0.33333355  0.07259777  0.60843315  1
  Li  Li89  1  0.65921005  0.92103466  0.60816662  1
  Li  Li90  1  0.18233732  0.57797058  0.60710001  1
  Li  Li91  1  0.87093318  0.43229320  0.60549430  1
  Li  Li92  1  0.37021011  0.57695133  0.65464727  1
  Li  Li93  1  0.61511266  0.42364651  0.66232416  1
  Li  Li94  1  0.14511244  0.07381920  0.65713761  1
  Li  Li95  1  0.87179471  0.92403905  0.65995079  1
  Li  Li96  1  0.70067767  0.82472296  0.66618258  1
  Li  Li97  1  0.31911564  0.16519436  0.66700845  1
  Li  Li98  1  0.20076919  0.67247309  0.66619963  1
  Li  Li99  1  0.81822722  0.33452347  0.66656765  1
  Li  Li100  1  0.55818558  0.58471556  0.69268459  1
  Li  Li101  1  0.44819548  0.41657214  0.69706432  1
  Li  Li102  1  0.06268438  0.91502402  0.69392484  1
  Li  Li103  1  0.95845088  0.07914235  0.69323511  1
  Li  Li104  1  0.38424131  0.25012027  0.72383711  1
  Li  Li105  1  0.63272518  0.74998115  0.72391125  1
  Li  Li106  1  0.88421803  0.25002966  0.72387486  1
  Li  Li107  1  0.13197125  0.75027966  0.72405401  1
  Li  Li108  1  0.95823946  0.42064611  0.75468347  1
  Li  Li109  1  0.06278917  0.58509627  0.75396338  1
  Li  Li110  1  0.44789263  0.08426832  0.75062260  1
  Li  Li111  1  0.55997961  0.91460109  0.75507679  1
  Li  Li112  1  0.81787491  0.16551135  0.78117883  1
  Li  Li113  1  0.20300314  0.82911960  0.78250701  1
  Li  Li114  1  0.31911290  0.33493988  0.78081904  1
  Li  Li115  1  0.70057287  0.67543403  0.78153221  1
  Li  Li116  1  0.87197377  0.57543768  0.78824228  1
  Li  Li117  1  0.14514691  0.42649695  0.79061651  1
  Li  Li118  1  0.61199176  0.07652849  0.78572741  1
  Li  Li119  1  0.37434195  0.92507824  0.79243430  1
  Li  Li120  1  0.87046593  0.06759798  0.84220803  1
  Li  Li121  1  0.18290369  0.92238979  0.84143268  1
  Li  Li122  1  0.65979072  0.57924177  0.83954729  1
  Li  Li123  1  0.33349932  0.42777032  0.83973704  1
  Li  Li124  1  0.17412160  0.32538496  0.87140820  1
  Li  Li125  1  0.82190891  0.67389838  0.84425094  1
  Li  Li126  1  0.70229568  0.16653840  0.84199476  1
  Li  Li127  1  0.35382007  0.81982538  0.88419625  1
  Li  Li128  1  0.07835154  0.12492517  0.87164576  1
  Li  Li129  1  0.98453797  0.94723156  0.87271968  1
  Li  Li130  1  0.51682941  0.48200536  0.86048478  1
  Li  Li131  1  0.43037835  0.63698590  0.87832722  1
  Li  Li132  1  0.89391322  0.70507829  0.91257333  1
  Li  Li133  1  0.18404930  0.21758988  0.92773353  1
  Li  Li134  1  0.33195750  0.76515789  0.95525435  1
  Li  Li135  1  0.62924292  0.24879737  0.90221642  1
  Li  Li136  1  0.47337228  0.95902130  0.94283008  1
  Li  Li137  1  0.52812157  0.12619396  0.94783693  1
  Li  Li138  1  0.02668969  0.62191695  0.96681810  1
  Li  Li139  1  0.01691070  0.45655602  0.94113293  1
  Li  Li140  1  0.70088885  0.28498809  0.96028123  1
  Li  Li141  1  0.87785381  0.84322870  0.94690932  1
  Li  Li142  1  0.87793437  0.65679911  0.50079222  1
  Li  Li143  1  0.69918695  0.21507072  0.48778233  1
  La  La144  1  0.28723754  0.96932332  0.99930631  1
  La  La145  1  0.77759091  0.52605745  0.99327453  1
  La  La146  1  0.92468653  0.74973030  0.05122020  1
  La  La147  1  0.40899175  0.75994191  0.05098807  1
  La  La148  1  0.68018814  0.24926232  0.04760860  1
  La  La149  1  0.15333935  0.24972230  0.04504314  1
  La  La150  1  0.79158411  0.00658751  0.08849597  1
  La  La151  1  0.28241729  0.51191955  0.08713174  1
  La  La152  1  0.54390248  0.12906689  0.13206312  1
  La  La153  1  0.04182872  0.38156705  0.13547104  1
  La  La154  1  0.53621672  0.62859613  0.13585093  1
  La  La155  1  0.03921978  0.87696138  0.13560876  1
  La  La156  1  0.78897263  0.49939223  0.17658978  1
  La  La157  1  0.28979083  0.00540878  0.17658762  1
  La  La158  1  0.41617305  0.24968666  0.22397218  1
  La  La159  1  0.91729341  0.24978354  0.22395036  1
  La  La160  1  0.16430107  0.74977625  0.22403770  1
  La  La161  1  0.66470633  0.74973671  0.22397497  1
  La  La162  1  0.28966447  0.49407261  0.27144578  1
  La  La163  1  0.78887638  0.00022454  0.27135315  1
  La  La164  1  0.03898815  0.62282394  0.31238688  1
  La  La165  1  0.53607204  0.87082816  0.31205288  1
  La  La166  1  0.04188260  0.11818847  0.31247216  1
  La  La167  1  0.54397565  0.37031888  0.31554066  1
  La  La168  1  0.28241331  0.98786966  0.36087907  1
  La  La169  1  0.79139059  0.49291356  0.35949045  1
  La  La170  1  0.92447874  0.75023708  0.39665996  1
  La  La171  1  0.40915829  0.73983580  0.39703324  1
  La  La172  1  0.67983888  0.25034065  0.40038262  1
  La  La173  1  0.15304844  0.25031247  0.40293961  1
  La  La174  1  0.77756842  0.97410038  0.45464568  1
  La  La175  1  0.28726306  0.53085563  0.44887191  1
  La  La176  1  0.51281057  0.03107661  0.49916393  1
  La  La177  1  0.02261683  0.47431818  0.49349330  1
  La  La178  1  0.87527253  0.25029075  0.55126891  1
  La  La179  1  0.39132178  0.24049203  0.55086106  1
  La  La180  1  0.12092275  0.75033519  0.54767074  1
  La  La181  1  0.64763065  0.75020479  0.54513771  1
  La  La182  1  0.00876760  0.99319739  0.58850043  1
  La  La183  1  0.51795318  0.48784127  0.58735922  1
  La  La184  1  0.25625377  0.87077683  0.63204332  1
  La  La185  1  0.75798719  0.61830576  0.63557637  1
  La  La186  1  0.26408838  0.37157098  0.63595370  1
  La  La187  1  0.76105399  0.12260474  0.63571311  1
  La  La188  1  0.01076601  0.50024840  0.67659079  1
  La  La189  1  0.51005755  0.99449403  0.67653405  1
  La  La190  1  0.38352714  0.75018225  0.72394786  1
  La  La191  1  0.88288412  0.74996511  0.72405526  1
  La  La192  1  0.63490673  0.24996847  0.72400913  1
  La  La193  1  0.13466023  0.24999012  0.72393468  1
  La  La194  1  0.50969536  0.50560177  0.77138369  1
  La  La195  1  0.01100549  0.99961686  0.77143613  1
  La  La196  1  0.76059789  0.37720128  0.81229612  1
  La  La197  1  0.26359647  0.12848601  0.81204400  1
  La  La198  1  0.75795119  0.88182910  0.81253466  1
  La  La199  1  0.25597953  0.62932802  0.81563921  1
  La  La200  1  0.51722978  0.01210348  0.86087778  1
  La  La201  1  0.00875964  0.50653320  0.85949661  1
  La  La202  1  0.87483997  0.24981971  0.89656393  1
  La  La203  1  0.39041993  0.26022020  0.89702633  1
  La  La204  1  0.12056677  0.74959629  0.90030887  1
  La  La205  1  0.64709906  0.74991550  0.90279920  1
  La  La206  1  0.02261840  0.02563674  0.95460993  1
  La  La207  1  0.51267509  0.46935299  0.94876586  1
  Zr  Zr208  1  0.04231910  0.98773459  0.04575408  1
  Zr  Zr209  1  0.54632470  0.00510081  0.03531500  1
  Zr  Zr210  1  0.52948554  0.51803119  0.04280176  1
  Zr  Zr211  1  0.04279401  0.49971650  0.03642136  1
  Zr  Zr212  1  0.79435716  0.25347842  0.13480017  1
  Zr  Zr213  1  0.78656151  0.74735274  0.13543418  1
  Zr  Zr214  1  0.29372730  0.25109766  0.13189239  1
  Zr  Zr215  1  0.28669696  0.75606895  0.13641319  1
  Zr  Zr216  1  0.54134991  0.49553254  0.22464902  1
  Zr  Zr217  1  0.04083542  0.49835681  0.22390733  1
  Zr  Zr218  1  0.04083072  0.00127101  0.22407059  1
  Zr  Zr219  1  0.54151154  0.00391600  0.22321467  1
  Zr  Zr220  1  0.28668889  0.74322597  0.31168236  1
  Zr  Zr221  1  0.29363717  0.24861788  0.31611813  1
  Zr  Zr222  1  0.78636804  0.75214530  0.31248456  1
  Zr  Zr223  1  0.79442405  0.24633077  0.31313647  1
  Zr  Zr224  1  0.04274326  0.00006175  0.41154165  1
  Zr  Zr225  1  0.52945378  0.98190129  0.40516929  1
  Zr  Zr226  1  0.54632088  0.49500501  0.41288807  1
  Zr  Zr227  1  0.04216038  0.51213715  0.40231811  1
  Zr  Zr228  1  0.75784810  0.01216755  0.54579182  1
  Zr  Zr229  1  0.25402762  0.99536884  0.53546734  1
  Zr  Zr230  1  0.27041047  0.48270510  0.54309144  1
  Zr  Zr231  1  0.75736610  0.49989224  0.53649309  1
  Zr  Zr232  1  0.00567664  0.74631258  0.63486071  1
  Zr  Zr233  1  0.01355449  0.25254937  0.63542284  1
  Zr  Zr234  1  0.50682628  0.74925701  0.63192366  1
  Zr  Zr235  1  0.51320286  0.24341116  0.63635351  1
  Zr  Zr236  1  0.25840928  0.50426522  0.72459240  1
  Zr  Zr237  1  0.75880422  0.50157830  0.72400881  1
  Zr  Zr238  1  0.75899843  0.99850230  0.72412055  1
  Zr  Zr239  1  0.25838973  0.99602080  0.72320654  1
  Zr  Zr240  1  0.51263835  0.25669492  0.81161977  1
  Zr  Zr241  1  0.50641181  0.75109717  0.81596657  1
  Zr  Zr242  1  0.01309874  0.24777807  0.81235701  1
  Zr  Zr243  1  0.00586475  0.75390927  0.81316266  1
  Zr  Zr244  1  0.75693438  0.00031718  0.91149757  1
  Zr  Zr245  1  0.27025087  0.01819482  0.90522366  1
  Zr  Zr246  1  0.25389570  0.50509646  0.91269528  1
  Zr  Zr247  1  0.75757289  0.48792864  0.90216338  1
  O  O248  1  0.89057045  0.92579619  0.03921630  1
  O  O249  1  0.69788411  0.06292403  0.02647439  1
  O  O250  1  0.19129037  0.43825088  0.03122721  1
  O  O251  1  0.37811353  0.58014250  0.03581765  1
  O  O252  1  0.39566123  0.95041823  0.05599830  1
  O  O253  1  0.19324259  0.05873039  0.05463574  1
  O  O254  1  0.67712887  0.44435823  0.05274976  1
  O  O255  1  0.87842213  0.56515370  0.05296738  1
  O  O256  1  0.51596306  0.16416761  0.05786648  1
  O  O257  1  0.07071305  0.84190400  0.06938747  1
  O  O258  1  0.99925551  0.34155312  0.04650814  1
  O  O259  1  0.56828019  0.65807130  0.06772673  1
  O  O260  1  0.83218142  0.19226713  0.08151948  1
  O  O261  1  0.75982256  0.77079611  0.07911788  1
  O  O262  1  0.31408484  0.27655812  0.07527132  1
  O  O263  1  0.24687179  0.69539006  0.08516847  1
  O  O264  1  0.99424963  0.03271697  0.09843840  1
  O  O265  1  0.60357077  0.97436354  0.09336088  1
  O  O266  1  0.07852772  0.52457291  0.09314413  1
  O  O267  1  0.47540748  0.46711691  0.09425747  1
  O  O268  1  0.12957231  0.22247512  0.11135986  1
  O  O269  1  0.43756079  0.78774903  0.11702934  1
  O  O270  1  0.64466781  0.28445049  0.11475892  1
  O  O271  1  0.94394215  0.71072083  0.11638239  1
  O  O272  1  0.34477770  0.09959991  0.12065497  1
  O  O273  1  0.22856028  0.90309629  0.12675741  1
  O  O274  1  0.85379162  0.40035492  0.12254423  1
  O  O275  1  0.72788033  0.59791602  0.12611316  1
  O  O276  1  0.23965709  0.40094756  0.14050682  1
  O  O277  1  0.33929484  0.60383669  0.14599419  1
  O  O278  1  0.73678598  0.10455377  0.14304513  1
  O  O279  1  0.83928823  0.89791468  0.14146644  1
  O  O280  1  0.44135140  0.27856145  0.15458528  1
  O  O281  1  0.13564287  0.71364865  0.15667840  1
  O  O282  1  0.94658844  0.21822204  0.15470472  1
  O  O283  1  0.63619853  0.78058954  0.15715481  1
  O  O284  1  0.98473426  0.52503106  0.17033081  1
  O  O285  1  0.58467951  0.46911894  0.16906054  1
  O  O286  1  0.08944900  0.03326344  0.16983923  1
  O  O287  1  0.49333712  0.97574391  0.16736888  1
  O  O288  1  0.75757147  0.30745768  0.18697037  1
  O  O289  1  0.82609063  0.69202353  0.18732021  1
  O  O290  1  0.25107555  0.19685960  0.18422437  1
  O  O291  1  0.32468063  0.81108796  0.18877145  1
  O  O292  1  0.07641062  0.35169364  0.20307570  1
  O  O293  1  0.50426756  0.64373826  0.20654360  1
  O  O294  1  0.57569887  0.15006345  0.20358312  1
  O  O295  1  0.00617311  0.85453003  0.20488211  1
  O  O296  1  0.38781658  0.44042563  0.21243525  1
  O  O297  1  0.19527696  0.54992292  0.21246476  1
  O  O298  1  0.69371856  0.94854511  0.21141871  1
  O  O299  1  0.88840779  0.05714993  0.21064081  1
  O  O300  1  0.88833643  0.44254405  0.23720106  1
  O  O301  1  0.69354926  0.55083314  0.23648414  1
  O  O302  1  0.19524984  0.94966558  0.23550836  1
  O  O303  1  0.38790037  0.05901610  0.23548321  1
  O  O304  1  0.00632166  0.64510315  0.24313491  1
  O  O305  1  0.57593565  0.34909933  0.24430763  1
  O  O306  1  0.50452184  0.85582289  0.24152260  1
  O  O307  1  0.07662898  0.14795153  0.24490191  1
  O  O308  1  0.32447325  0.68807506  0.25936918  1
  O  O309  1  0.25091268  0.30290547  0.26380316  1
  O  O310  1  0.82593731  0.80735403  0.26062775  1
  O  O311  1  0.75752290  0.19199581  0.26095926  1
  O  O312  1  0.49325749  0.52324848  0.28055397  1
  O  O313  1  0.08927039  0.46625007  0.27820910  1
  O  O314  1  0.58462789  0.03058845  0.27887823  1
  O  O315  1  0.98438475  0.97486889  0.27766444  1
  O  O316  1  0.63597156  0.71853529  0.29082109  1
  O  O317  1  0.94657452  0.28145497  0.29319245  1
  O  O318  1  0.13570897  0.78601932  0.29134451  1
  O  O319  1  0.44121835  0.22109971  0.29330667  1
  O  O320  1  0.83913055  0.60158672  0.30646779  1
  O  O321  1  0.73679648  0.39514645  0.30475267  1
  O  O322  1  0.33949843  0.89541340  0.30197501  1
  O  O323  1  0.23953653  0.09876156  0.30744759  1
  O  O324  1  0.72753342  0.90149211  0.32164677  1
  O  O325  1  0.85375557  0.09944085  0.32538948  1
  O  O326  1  0.22842069  0.59612196  0.32135682  1
  O  O327  1  0.34560525  0.39975128  0.32749192  1
  O  O328  1  0.94375193  0.78912233  0.33157098  1
  O  O329  1  0.64450418  0.21556835  0.33308251  1
  O  O330  1  0.43756368  0.71138017  0.33104698  1
  O  O331  1  0.12938650  0.27746975  0.33663012  1
  O  O332  1  0.47509877  0.03307654  0.35376352  1
  O  O333  1  0.07848939  0.97528809  0.35480710  1
  O  O334  1  0.60317219  0.52441577  0.35475686  1
  O  O335  1  0.99386237  0.46722528  0.34961562  1
  O  O336  1  0.24696099  0.80428872  0.36288621  1
  O  O337  1  0.31346392  0.22294902  0.37274509  1
  O  O338  1  0.75956525  0.72918352  0.36880187  1
  O  O339  1  0.83218417  0.30741052  0.36639860  1
  O  O340  1  0.56813949  0.84203333  0.38017758  1
  O  O341  1  0.99889779  0.15817109  0.40160775  1
  O  O342  1  0.07066047  0.65792063  0.37859541  1
  O  O343  1  0.51520807  0.33444275  0.39144436  1
  O  O344  1  0.87837706  0.93499107  0.39496682  1
  O  O345  1  0.67716945  0.05560150  0.39515843  1
  O  O346  1  0.19280342  0.44090169  0.39346357  1
  O  O347  1  0.39560271  0.54915173  0.39211988  1
  O  O348  1  0.37813771  0.91968357  0.41220827  1
  O  O349  1  0.19121853  0.06138030  0.41679687  1
  O  O350  1  0.69791142  0.43705571  0.42158074  1
  O  O351  1  0.89045139  0.57435567  0.40864302  1
  O  O352  1  0.46765784  0.04038484  0.98832319  1
  O  O353  1  0.10245898  0.92437337  0.99697612  1
  O  O354  1  0.59841373  0.58869459  0.99518498  1
  O  O355  1  0.96170235  0.47755947  0.98724197  1
  O  O356  1  0.28081779  0.77780397  0.00328177  1
  O  O357  1  0.79990406  0.26169988  0.99968268  1
  O  O358  1  0.57217194  0.85149181  0.02637228  1
  O  O359  1  0.00978233  0.11778184  0.01354608  1
  O  O360  1  0.07679362  0.65030714  0.01867850  1
  O  O361  1  0.47050876  0.39168477  0.01391503  1
  O  O362  1  0.47026641  0.10796921  0.43423644  1
  O  O363  1  0.07675366  0.84939625  0.42924342  1
  O  O364  1  0.00923579  0.38214594  0.43451967  1
  O  O365  1  0.57238248  0.64869624  0.42144010  1
  O  O366  1  0.79932392  0.23756308  0.44834721  1
  O  O367  1  0.28103567  0.72205008  0.44480347  1
  O  O368  1  0.96190007  0.02188535  0.46081188  1
  O  O369  1  0.59862593  0.91138409  0.45274450  1
  O  O370  1  0.10229950  0.57553379  0.45105888  1
  O  O371  1  0.46765331  0.46207288  0.46008527  1
  O  O372  1  0.90973051  0.07432382  0.53935325  1
  O  O373  1  0.10277124  0.93697471  0.52651789  1
  O  O374  1  0.60903510  0.56194557  0.53128321  1
  O  O375  1  0.42163322  0.42058847  0.53600286  1
  O  O376  1  0.40494516  0.05014379  0.55590585  1
  O  O377  1  0.60731546  0.94074979  0.55456786  1
  O  O378  1  0.12206104  0.55571118  0.55283522  1
  O  O379  1  0.92091463  0.43511313  0.55307922  1
  O  O380  1  0.28445984  0.83644342  0.55830636  1
  O  O381  1  0.72925996  0.15791940  0.56945353  1
  O  O382  1  0.80193021  0.65793660  0.54678873  1
  O  O383  1  0.23179801  0.34232765  0.56780553  1
  O  O384  1  0.96847659  0.80724902  0.58153498  1
  O  O385  1  0.04023674  0.22983014  0.57912934  1
  O  O386  1  0.48684029  0.72341860  0.57523762  1
  O  O387  1  0.55317405  0.30429761  0.58513023  1
  O  O388  1  0.80637286  0.96701755  0.59840912  1
  O  O389  1  0.19657816  0.02596813  0.59334343  1
  O  O390  1  0.72110928  0.47496920  0.59325517  1
  O  O391  1  0.32431112  0.53312336  0.59452063  1
  O  O392  1  0.67097914  0.77732738  0.61143143  1
  O  O393  1  0.36250652  0.21192565  0.61687204  1
  O  O394  1  0.15536081  0.71558547  0.61501035  1
  O  O395  1  0.85620600  0.28893003  0.61650958  1
  O  O396  1  0.45576040  0.90041532  0.62053748  1
  O  O397  1  0.57176094  0.09650984  0.62672298  1
  O  O398  1  0.94600256  0.59933225  0.62271389  1
  O  O399  1  0.07264038  0.40178958  0.62640389  1
  O  O400  1  0.56022514  0.59927992  0.64052237  1
  O  O401  1  0.46111554  0.39559394  0.64597292  1
  O  O402  1  0.06236723  0.89536856  0.64331313  1
  O  O403  1  0.96135407  0.10188551  0.64155863  1
  O  O404  1  0.35888887  0.72230202  0.65463761  1
  O  O405  1  0.66454091  0.28553809  0.65677597  1
  O  O406  1  0.85354232  0.78140352  0.65485322  1
  O  O407  1  0.16404949  0.21917268  0.65714645  1
  O  O408  1  0.81441700  0.47458247  0.67036095  1
  O  O409  1  0.21517868  0.53136426  0.66900991  1
  O  O410  1  0.71066020  0.96655564  0.66986737  1
  O  O411  1  0.30673383  0.02374340  0.66738205  1
  O  O412  1  0.04249495  0.69200737  0.68709163  1
  O  O413  1  0.97345081  0.30781744  0.68731282  1
  O  O414  1  0.54928610  0.80325593  0.68422063  1
  O  O415  1  0.47500389  0.18867329  0.68869678  1
  O  O416  1  0.72351165  0.64825929  0.70329051  1
  O  O417  1  0.29523159  0.35630058  0.70623356  1
  O  O418  1  0.22391099  0.84956766  0.70382285  1
  O  O419  1  0.79364357  0.14511490  0.70497572  1
  O  O420  1  0.41195269  0.55953949  0.71234417  1
  O  O421  1  0.60440938  0.44978543  0.71254899  1
  O  O422  1  0.10608193  0.05117494  0.71148714  1
  O  O423  1  0.91152719  0.94257513  0.71085470  1
  O  O424  1  0.91138717  0.55733189  0.73720235  1
  O  O425  1  0.10604555  0.44895034  0.73635245  1
  O  O426  1  0.60457032  0.05027555  0.73545670  1
  O  O427  1  0.41215260  0.94088898  0.73556828  1
  O  O428  1  0.79345869  0.35477085  0.74314435  1
  O  O429  1  0.22391344  0.65057484  0.74411243  1
  O  O430  1  0.29511514  0.14415037  0.74144840  1
  O  O431  1  0.72302354  0.85189766  0.74495744  1
  O  O432  1  0.47459023  0.31132108  0.75925935  1
  O  O433  1  0.54888043  0.69697740  0.76366707  1
  O  O434  1  0.97353538  0.19237031  0.76049403  1
  O  O435  1  0.04249339  0.80826738  0.76102389  1
  O  O436  1  0.30647360  0.47638163  0.78043947  1
  O  O437  1  0.71017387  0.53344102  0.77829387  1
  O  O438  1  0.21534604  0.96978372  0.77889443  1
  O  O439  1  0.81537890  0.02518042  0.77775944  1
  O  O440  1  0.16360252  0.28106060  0.79072139  1
  O  O441  1  0.85374462  0.71852261  0.79319657  1
  O  O442  1  0.66373438  0.21416983  0.79120248  1
  O  O443  1  0.35880617  0.77877327  0.79319236  1
  O  O444  1  0.96082305  0.39849618  0.80632491  1
  O  O445  1  0.06274751  0.60471744  0.80466110  1
  O  O446  1  0.46006488  0.10430472  0.80191094  1
  O  O447  1  0.55953763  0.90123956  0.80733727  1
  O  O448  1  0.07202716  0.09859912  0.82173223  1
  O  O449  1  0.94622565  0.90058899  0.82550875  1
  O  O450  1  0.57110685  0.40350212  0.82121934  1
  O  O451  1  0.45470598  0.60000468  0.82732564  1
  O  O452  1  0.85569531  0.21124874  0.83131186  1
  O  O453  1  0.15563059  0.78469792  0.83314404  1
  O  O454  1  0.36188412  0.28831571  0.83106508  1
  O  O455  1  0.67066426  0.72289323  0.83649351  1
  O  O456  1  0.32422465  0.96791926  0.85384174  1
  O  O457  1  0.72095914  0.02499458  0.85476637  1
  O  O458  1  0.19691740  0.47501095  0.85470840  1
  O  O459  1  0.80631532  0.53300210  0.84956999  1
  O  O460  1  0.55266245  0.19557954  0.86280605  1
  O  O461  1  0.48647733  0.77701752  0.87262293  1
  O  O462  1  0.03964573  0.27149097  0.86862206  1
  O  O463  1  0.96842310  0.69232457  0.86642785  1
  O  O464  1  0.23098140  0.15840772  0.88044089  1
  O  O465  1  0.80115750  0.84219634  0.90117005  1
  O  O466  1  0.72870787  0.34221245  0.87853356  1
  O  O467  1  0.28478586  0.66463155  0.89061460  1
  O  O468  1  0.92100426  0.06558225  0.89492143  1
  O  O469  1  0.12243794  0.94433402  0.89542867  1
  O  O470  1  0.60713056  0.55938806  0.89331167  1
  O  O471  1  0.40475327  0.45041827  0.89205772  1
  O  O472  1  0.42136602  0.08064986  0.91225246  1
  O  O473  1  0.60857244  0.93860002  0.91673875  1
  O  O474  1  0.10234992  0.56286164  0.92153782  1
  O  O475  1  0.90929001  0.42568619  0.90866692  1
  O  O476  1  0.33248630  0.95966429  0.48839787  1
  O  O477  1  0.69766626  0.07542087  0.49700311  1
  O  O478  1  0.20175086  0.41208585  0.49529798  1
  O  O479  1  0.83842137  0.52252272  0.48730188  1
  O  O480  1  0.51991380  0.22325466  0.50303915  1
  O  O481  1  0.00078571  0.73798906  0.49976935  1
  O  O482  1  0.22809457  0.14899750  0.52646367  1
  O  O483  1  0.79075166  0.88194763  0.51363777  1
  O  O484  1  0.72384862  0.34950856  0.51874147  1
  O  O485  1  0.32956278  0.60935925  0.51428471  1
  O  O486  1  0.33004090  0.89200938  0.93418444  1
  O  O487  1  0.72331374  0.15076703  0.92926204  1
  O  O488  1  0.79043226  0.61805356  0.93435647  1
  O  O489  1  0.22763208  0.35146554  0.92160512  1
  O  O490  1  0.00051555  0.76190891  0.94822111  1
  O  O491  1  0.51892741  0.27794965  0.94471787  1
  O  O492  1  0.83827744  0.97769447  0.96063201  1
  O  O493  1  0.20151800  0.08848687  0.95301913  1
  O  O494  1  0.69764406  0.42453221  0.95104186  1
  O  O495  1  0.33247945  0.53938221  0.95984560  1
