# generated using pymatgen
data_Li18La8Zr5O31
_symmetry_space_group_name_H-M   'P 1'
_cell_length_a   12.70453900
_cell_length_b   13.20454200
_cell_length_c   36.91762053
_cell_angle_alpha   90.00000000
_cell_angle_beta   90.00000000
_cell_angle_gamma   90.00000000
_symmetry_Int_Tables_number   1
_chemical_formula_structural   Li18La8Zr5O31
_chemical_formula_sum   'Li144 La64 Zr40 O248'
_cell_volume   6193.21211198
_cell_formula_units_Z   8
loop_
 _symmetry_equiv_pos_site_id
 _symmetry_equiv_pos_as_xyz
  1  'x, y, z'
loop_
 _atom_site_type_symbol
 _atom_site_label
 _atom_site_symmetry_multiplicity
 _atom_site_fract_x
 _atom_site_fract_y
 _atom_site_fract_z
 _atom_site_occupancy
  Li  Li0  1  0.76974417  0.95942445  0.99572150  1
  Li  Li1  1  0.74213857  0.15339860  0.98129125  1
  Li  Li2  1  0.20096132  0.56386088  0.99940318  1
  Li  Li3  1  0.33451119  0.42779491  0.01725830  1
  Li  Li4  1  0.91273908  0.23233493  0.06326566  1
  Li  Li5  1  0.57402458  0.71999935  0.99100395  1
  Li  Li6  1  0.39788009  0.25238291  0.03139122  1
  Li  Li7  1  0.15111876  0.73375203  0.04508404  1
  Li  Li8  1  0.36395787  0.12136158  0.07277839  1
  Li  Li9  1  0.18503548  0.89668894  0.06792314  1
  Li  Li10  1  0.78522067  0.48513006  0.09054739  1
  Li  Li11  1  0.69454825  0.63794375  0.07431433  1
  Li  Li12  1  0.45502381  0.33083527  0.09607522  1
  Li  Li13  1  0.08866167  0.67643104  0.10537180  1
  Li  Li14  1  0.01096646  0.13157553  0.12487705  1
  Li  Li15  1  0.60937714  0.80101674  0.06870400  1
  Li  Li16  1  0.35558382  0.94951549  0.10025634  1
  Li  Li17  1  0.18709268  0.05956135  0.10661137  1
  Li  Li18  1  0.60966830  0.43340084  0.11368846  1
  Li  Li19  1  0.93589681  0.57473394  0.10954155  1
  Li  Li20  1  0.41797679  0.42778285  0.15728902  1
  Li  Li21  1  0.13567466  0.57795125  0.16025006  1
  Li  Li22  1  0.67700453  0.93023409  0.16285087  1
  Li  Li23  1  0.87437132  0.07393274  0.16372251  1
  Li  Li24  1  0.10246949  0.17165583  0.17370507  1
  Li  Li25  1  0.51777855  0.87467460  0.13464763  1
  Li  Li26  1  0.58652815  0.33041470  0.16785516  1
  Li  Li27  1  0.96594035  0.67165401  0.16718837  1
  Li  Li28  1  0.22813187  0.41980372  0.19169354  1
  Li  Li29  1  0.32995097  0.58627737  0.19413537  1
  Li  Li30  1  0.71262483  0.09263875  0.19807767  1
  Li  Li31  1  0.83789023  0.91055868  0.19716092  1
  Li  Li32  1  0.40019048  0.75027304  0.22354661  1
  Li  Li33  1  0.16065198  0.25124800  0.22441782  1
  Li  Li34  1  0.89821566  0.75001992  0.22378522  1
  Li  Li35  1  0.65294469  0.25122683  0.22377008  1
  Li  Li36  1  0.83789336  0.58926864  0.25039545  1
  Li  Li37  1  0.71402318  0.40777420  0.24981523  1
  Li  Li38  1  0.33007362  0.91410151  0.25363531  1
  Li  Li39  1  0.22873537  0.08024310  0.25590691  1
  Li  Li40  1  0.96634399  0.82814149  0.28046748  1
  Li  Li41  1  0.58712889  0.17082538  0.27911916  1
  Li  Li42  1  0.51749624  0.62592447  0.31267051  1
  Li  Li43  1  0.10065808  0.33086507  0.27678151  1
  Li  Li44  1  0.87750041  0.42698593  0.28435118  1
  Li  Li45  1  0.67701958  0.56976420  0.28478305  1
  Li  Li46  1  0.13543375  0.92153697  0.28709006  1
  Li  Li47  1  0.42020607  0.07502500  0.29170994  1
  Li  Li48  1  0.93519651  0.92515804  0.33813595  1
  Li  Li49  1  0.60337397  0.07200164  0.33382010  1
  Li  Li50  1  0.18597878  0.43956006  0.34106666  1
  Li  Li51  1  0.35583467  0.55032305  0.34729082  1
  Li  Li52  1  0.60929275  0.69863319  0.37884449  1
  Li  Li53  1  0.00512457  0.35936919  0.32746424  1
  Li  Li54  1  0.08732399  0.82236472  0.34212337  1
  Li  Li55  1  0.44400303  0.16054545  0.36408558  1
  Li  Li56  1  0.69531498  0.86175757  0.37308344  1
  Li  Li57  1  0.78381131  0.01607764  0.35666835  1
  Li  Li58  1  0.18483493  0.60346518  0.37957626  1
  Li  Li59  1  0.36400071  0.37997840  0.37505392  1
  Li  Li60  1  0.91016117  0.26297348  0.38585717  1
  Li  Li61  1  0.57371315  0.78113456  0.45655626  1
  Li  Li62  1  0.39836474  0.25466577  0.41889601  1
  Li  Li63  1  0.15029031  0.76661420  0.40292797  1
  Li  Li64  1  0.33334266  0.07285738  0.42903075  1
  Li  Li65  1  0.20048536  0.93765471  0.44865391  1
  Li  Li66  1  0.74249501  0.34761405  0.46675181  1
  Li  Li67  1  0.76979538  0.54055516  0.45218848  1
  Li  Li68  1  0.11355517  0.67622594  0.45545958  1
  Li  Li69  1  0.91715225  0.21277526  0.44552736  1
  Li  Li70  1  0.91694303  0.28745615  0.00310669  1
  Li  Li71  1  0.11449972  0.82372096  0.99240068  1
  Li  Li72  1  0.03088118  0.04140144  0.49577053  1
  Li  Li73  1  0.05803828  0.84684587  0.48095190  1
  Li  Li74  1  0.60082392  0.43762608  0.49887598  1
  Li  Li75  1  0.46608422  0.57288896  0.51890160  1
  Li  Li76  1  0.88881901  0.76544005  0.56214380  1
  Li  Li77  1  0.22688282  0.28083772  0.49121878  1
  Li  Li78  1  0.40185335  0.75421072  0.52969380  1
  Li  Li79  1  0.64932056  0.26707845  0.54510685  1
  Li  Li80  1  0.43688488  0.88012456  0.57287780  1
  Li  Li81  1  0.61416966  0.10347119  0.56846654  1
  Li  Li82  1  0.01714548  0.51784377  0.59127235  1
  Li  Li83  1  0.10297011  0.36134276  0.57516208  1
  Li  Li84  1  0.35480502  0.66027892  0.58477249  1
  Li  Li85  1  0.71308241  0.32323595  0.60590202  1
  Li  Li86  1  0.79169551  0.86284032  0.62205484  1
  Li  Li87  1  0.19070970  0.19892756  0.56868116  1
  Li  Li88  1  0.44176564  0.05123967  0.60116354  1
  Li  Li89  1  0.61163885  0.93949215  0.60697093  1
  Li  Li90  1  0.19632026  0.57204478  0.61423833  1
  Li  Li91  1  0.86786138  0.42523664  0.60943724  1
  Li  Li92  1  0.38090065  0.57472686  0.65681177  1
  Li  Li93  1  0.66420375  0.42200220  0.66085615  1
  Li  Li94  1  0.12182920  0.06897639  0.66298489  1
  Li  Li95  1  0.92428776  0.92759922  0.66348948  1
  Li  Li96  1  0.69913823  0.82974286  0.67253619  1
  Li  Li97  1  0.28109408  0.12604577  0.63530254  1
  Li  Li98  1  0.21292065  0.67082004  0.66867368  1
  Li  Li99  1  0.83320746  0.32804884  0.66695345  1
  Li  Li100  1  0.57231084  0.58049021  0.69203000  1
  Li  Li101  1  0.46964851  0.41420986  0.69429691  1
  Li  Li102  1  0.08678205  0.90791823  0.69824750  1
  Li  Li103  1  0.96151186  0.08906024  0.69751327  1
  Li  Li104  1  0.39833344  0.24983537  0.72390693  1
  Li  Li105  1  0.63903785  0.75100809  0.72388423  1
  Li  Li106  1  0.90006614  0.24982540  0.72413629  1
  Li  Li107  1  0.14666107  0.74990215  0.72406454  1
  Li  Li108  1  0.96159184  0.40944231  0.75077283  1
  Li  Li109  1  0.08565026  0.59049316  0.75006173  1
  Li  Li110  1  0.47099501  0.08557196  0.75413510  1
  Li  Li111  1  0.57283573  0.91908548  0.75625799  1
  Li  Li112  1  0.83345502  0.17193146  0.78085069  1
  Li  Li113  1  0.21373557  0.82976964  0.77985091  1
  Li  Li114  1  0.28192426  0.37319808  0.81295251  1
  Li  Li115  1  0.69858555  0.67003078  0.77493003  1
  Li  Li116  1  0.92423277  0.57231478  0.78493035  1
  Li  Li117  1  0.12240446  0.42901260  0.78524252  1
  Li  Li118  1  0.66622516  0.07667447  0.78786291  1
  Li  Li119  1  0.38137088  0.92704554  0.79067239  1
  Li  Li120  1  0.86707133  0.07469442  0.83829878  1
  Li  Li121  1  0.19102802  0.93163951  0.83442404  1
  Li  Li122  1  0.61248720  0.55940234  0.84093867  1
  Li  Li123  1  0.44376155  0.44774089  0.84746231  1
  Li  Li124  1  0.19105055  0.30090633  0.87909888  1
  Li  Li125  1  0.79161005  0.63673702  0.82561584  1
  Li  Li126  1  0.71328841  0.17550413  0.84272736  1
  Li  Li127  1  0.34496094  0.82951040  0.85250101  1
  Li  Li128  1  0.10470489  0.13789819  0.87344738  1
  Li  Li129  1  0.01503734  0.98385463  0.85740896  1
  Li  Li130  1  0.61484141  0.39652185  0.87985376  1
  Li  Li131  1  0.43601705  0.62012698  0.87508419  1
  Li  Li132  1  0.88882405  0.73442119  0.88559809  1
  Li  Li133  1  0.22651684  0.22040550  0.95685001  1
  Li  Li134  1  0.40298244  0.75170927  0.91654840  1
  Li  Li135  1  0.64912094  0.23281229  0.90299462  1
  Li  Li136  1  0.46587430  0.92805812  0.93033900  1
  Li  Li137  1  0.60074925  0.06283962  0.94888846  1
  Li  Li138  1  0.05725839  0.65282917  0.96685977  1
  Li  Li139  1  0.03124759  0.45834007  0.95194329  1
  Li  Li140  1  0.68477133  0.32335202  0.95571441  1
  Li  Li141  1  0.88219482  0.78751755  0.94508085  1
  Li  Li142  1  0.88228273  0.71252270  0.50259949  1
  Li  Li143  1  0.68595753  0.17725758  0.49213620  1
  La  La144  1  0.25561223  0.01321779  0.00186987  1
  La  La145  1  0.77917741  0.47731750  0.00847297  1
  La  La146  1  0.90969953  0.75290373  0.05068741  1
  La  La147  1  0.38626831  0.75883356  0.04611001  1
  La  La148  1  0.64294110  0.26323209  0.04917976  1
  La  La149  1  0.15494920  0.24685235  0.04878202  1
  La  La150  1  0.78021310  0.00154674  0.09120028  1
  La  La151  1  0.27213054  0.51626692  0.09057652  1
  La  La152  1  0.53085614  0.12304476  0.13457127  1
  La  La153  1  0.02884011  0.37276709  0.13340378  1
  La  La154  1  0.52040134  0.63501778  0.13645585  1
  La  La155  1  0.02453966  0.88258572  0.13538193  1
  La  La156  1  0.77694079  0.49980126  0.17691685  1
  La  La157  1  0.28187470  0.99890340  0.17913128  1
  La  La158  1  0.40603879  0.25047232  0.22392144  1
  La  La159  1  0.90358888  0.25037249  0.22365023  1
  La  La160  1  0.14786186  0.74979871  0.22367261  1
  La  La161  1  0.64377811  0.75026730  0.22368602  1
  La  La162  1  0.28139163  0.50045545  0.26845935  1
  La  La163  1  0.77687146  0.00043876  0.27074651  1
  La  La164  1  0.02494200  0.61668297  0.31199909  1
  La  La165  1  0.52041999  0.86543732  0.31095311  1
  La  La166  1  0.02969453  0.12622645  0.31392327  1
  La  La167  1  0.53062398  0.37561684  0.31276215  1
  La  La168  1  0.27041428  0.98093396  0.35681390  1
  La  La169  1  0.78019674  0.49929324  0.35631288  1
  La  La170  1  0.90935760  0.74693997  0.39693425  1
  La  La171  1  0.38571872  0.73983289  0.40155653  1
  La  La172  1  0.64461240  0.23831996  0.39784500  1
  La  La173  1  0.15406724  0.25298452  0.39919849  1
  La  La174  1  0.77869999  0.02347950  0.43911244  1
  La  La175  1  0.25471375  0.48702340  0.44567259  1
  La  La176  1  0.54522827  0.98711658  0.50234649  1
  La  La177  1  0.02134945  0.52348709  0.50890031  1
  La  La178  1  0.89029012  0.24658144  0.55097329  1
  La  La179  1  0.41416601  0.23990521  0.54644472  1
  La  La180  1  0.15585237  0.73848313  0.54983873  1
  La  La181  1  0.64600812  0.75301945  0.54881165  1
  La  La182  1  0.01998602  0.99935489  0.59137290  1
  La  La183  1  0.52945281  0.48108211  0.59108864  1
  La  La184  1  0.26962710  0.87540827  0.63511675  1
  La  La185  1  0.77083100  0.62653846  0.63387787  1
  La  La186  1  0.27944473  0.36537257  0.63695184  1
  La  La187  1  0.77480071  0.11651762  0.63574158  1
  La  La188  1  0.02277761  0.50031397  0.67723530  1
  La  La189  1  0.51852015  0.00025308  0.67958059  1
  La  La190  1  0.39388166  0.75001417  0.72410137  1
  La  La191  1  0.89671807  0.74988542  0.72428808  1
  La  La192  1  0.65181442  0.24955794  0.72426822  1
  La  La193  1  0.15535491  0.24965430  0.72421253  1
  La  La194  1  0.51825071  0.49819959  0.76870901  1
  La  La195  1  0.02317355  0.99929774  0.77097677  1
  La  La196  1  0.77507152  0.38259426  0.81262805  1
  La  La197  1  0.27944104  0.13429625  0.81149832  1
  La  La198  1  0.77140133  0.87298202  0.81447202  1
  La  La199  1  0.26907190  0.62227807  0.81325524  1
  La  La200  1  0.52803069  0.01580297  0.85727434  1
  La  La201  1  0.02009202  0.50104117  0.85690523  1
  La  La202  1  0.89041151  0.25298915  0.89742441  1
  La  La203  1  0.41394192  0.25795039  0.90181092  1
  La  La204  1  0.15706704  0.76212651  0.89896394  1
  La  La205  1  0.64522927  0.74661959  0.89910691  1
  La  La206  1  0.02107738  0.97703875  0.93943442  1
  La  La207  1  0.54453557  0.51293715  0.94600359  1
  Zr  Zr208  1  0.00573879  0.01558558  0.04288154  1
  Zr  Zr209  1  0.54001424  0.99529682  0.04158393  1
  Zr  Zr210  1  0.52078019  0.51678040  0.04631455  1
  Zr  Zr211  1  0.03138154  0.49095901  0.04298367  1
  Zr  Zr212  1  0.77597710  0.25261434  0.13464532  1
  Zr  Zr213  1  0.77518263  0.74605805  0.13495217  1
  Zr  Zr214  1  0.28266403  0.24804136  0.13483763  1
  Zr  Zr215  1  0.27501917  0.76051719  0.13592406  1
  Zr  Zr216  1  0.52749103  0.50301723  0.22392126  1
  Zr  Zr217  1  0.02867228  0.49726253  0.22275859  1
  Zr  Zr218  1  0.02827624  0.00278381  0.22452096  1
  Zr  Zr219  1  0.52662139  0.99786825  0.22396282  1
  Zr  Zr220  1  0.27497936  0.73860713  0.31150522  1
  Zr  Zr221  1  0.28429740  0.25209894  0.31304452  1
  Zr  Zr222  1  0.77544965  0.75402143  0.31251559  1
  Zr  Zr223  1  0.77725891  0.24818988  0.31260880  1
  Zr  Zr224  1  0.03063340  0.00886912  0.40464244  1
  Zr  Zr225  1  0.52061464  0.98148154  0.40115655  1
  Zr  Zr226  1  0.54002196  0.50513376  0.40655696  1
  Zr  Zr227  1  0.00504686  0.48468173  0.40504469  1
  Zr  Zr228  1  0.79455470  0.98514704  0.54293970  1
  Zr  Zr229  1  0.26047126  0.00488586  0.54137805  1
  Zr  Zr230  1  0.27893515  0.48128412  0.54690280  1
  Zr  Zr231  1  0.76951132  0.50874341  0.54334238  1
  Zr  Zr232  1  0.02281836  0.74852505  0.63519449  1
  Zr  Zr233  1  0.02423299  0.25361908  0.63547655  1
  Zr  Zr234  1  0.51587796  0.75165049  0.63498573  1
  Zr  Zr235  1  0.52498401  0.23873908  0.63651102  1
  Zr  Zr236  1  0.27282370  0.49737501  0.72404317  1
  Zr  Zr237  1  0.77160061  0.50239955  0.72341899  1
  Zr  Zr238  1  0.77179535  0.99705740  0.72494344  1
  Zr  Zr239  1  0.27280395  0.00279884  0.72402240  1
  Zr  Zr240  1  0.52537848  0.25961834  0.81205605  1
  Zr  Zr241  1  0.51712563  0.74768712  0.81311973  1
  Zr  Zr242  1  0.02441142  0.24574319  0.81299582  1
  Zr  Zr243  1  0.02403667  0.75198412  0.81332242  1
  Zr  Zr244  1  0.76916848  0.99088278  0.90478766  1
  Zr  Zr245  1  0.27909676  0.01609029  0.90152098  1
  Zr  Zr246  1  0.26030514  0.49484784  0.90631306  1
  Zr  Zr247  1  0.79423130  0.51515677  0.90503950  1
  O  O248  1  0.86166076  0.94139072  0.03628136  1
  O  O249  1  0.64235722  0.05876783  0.00433060  1
  O  O250  1  0.18623857  0.44205224  0.03321864  1
  O  O251  1  0.37113981  0.56951231  0.03044719  1
  O  O252  1  0.38352315  0.98185122  0.04871962  1
  O  O253  1  0.16415243  0.05310155  0.05663245  1
  O  O254  1  0.66913091  0.44565806  0.06166561  1
  O  O255  1  0.87914418  0.56172484  0.05718485  1
  O  O256  1  0.51033273  0.14817776  0.06407000  1
  O  O257  1  0.04824054  0.84436398  0.06728367  1
  O  O258  1  0.00440513  0.34785790  0.06855783  1
  O  O259  1  0.54600601  0.65941288  0.07249355  1
  O  O260  1  0.78694043  0.18783728  0.08194759  1
  O  O261  1  0.75003593  0.77636790  0.07949542  1
  O  O262  1  0.32091624  0.27473481  0.08052112  1
  O  O263  1  0.23220869  0.69561359  0.08512293  1
  O  O264  1  0.96373162  0.02677403  0.09828772  1
  O  O265  1  0.59470799  0.96146802  0.09161447  1
  O  O266  1  0.07880441  0.53177112  0.09792096  1
  O  O267  1  0.46389968  0.47542919  0.10000755  1
  O  O268  1  0.13123121  0.20777259  0.11860629  1
  O  O269  1  0.41166790  0.80602999  0.11022311  1
  O  O270  1  0.62150059  0.28780161  0.11740547  1
  O  O271  1  0.93244826  0.71729522  0.11622460  1
  O  O272  1  0.33652036  0.09305130  0.12333039  1
  O  O273  1  0.21619187  0.90892116  0.12142727  1
  O  O274  1  0.83719489  0.39650415  0.12571346  1
  O  O275  1  0.72298057  0.59650097  0.12342911  1
  O  O276  1  0.22995478  0.39768194  0.14091029  1
  O  O277  1  0.33133040  0.61329661  0.14469586  1
  O  O278  1  0.72355666  0.09815982  0.14706487  1
  O  O279  1  0.82452318  0.89991724  0.14467028  1
  O  O280  1  0.43396610  0.28022013  0.15504350  1
  O  O281  1  0.11978690  0.72203817  0.15525976  1
  O  O282  1  0.92671122  0.21218262  0.15552886  1
  O  O283  1  0.62692226  0.78616942  0.15463788  1
  O  O284  1  0.97905433  0.52854018  0.16866898  1
  O  O285  1  0.57717357  0.47417429  0.16876737  1
  O  O286  1  0.07999238  0.03154132  0.17072521  1
  O  O287  1  0.48151837  0.97756526  0.16968532  1
  O  O288  1  0.74042866  0.30507876  0.18704449  1
  O  O289  1  0.81259880  0.69254884  0.18660866  1
  O  O290  1  0.24930832  0.19229826  0.18781546  1
  O  O291  1  0.29799895  0.81311118  0.18873676  1
  O  O292  1  0.06493702  0.34952845  0.20407394  1
  O  O293  1  0.49187904  0.64794603  0.20456009  1
  O  O294  1  0.56363075  0.14699745  0.20666343  1
  O  O295  1  0.98779512  0.85666628  0.20525753  1
  O  O296  1  0.37508622  0.44783297  0.21057673  1
  O  O297  1  0.17926327  0.55308229  0.20957037  1
  O  O298  1  0.68192671  0.94485144  0.21367865  1
  O  O299  1  0.87282480  0.05602597  0.21395274  1
  O  O300  1  0.87358318  0.44354797  0.23386634  1
  O  O301  1  0.68265833  0.55561965  0.23409864  1
  O  O302  1  0.17901582  0.94717609  0.23771295  1
  O  O303  1  0.37478326  0.05201185  0.23720055  1
  O  O304  1  0.98753373  0.64337199  0.24201258  1
  O  O305  1  0.56446719  0.35421342  0.24143506  1
  O  O306  1  0.49139150  0.85280242  0.24338440  1
  O  O307  1  0.06516794  0.15025288  0.24284273  1
  O  O308  1  0.29795225  0.68671018  0.25879412  1
  O  O309  1  0.24780480  0.30916135  0.26061612  1
  O  O310  1  0.81315500  0.80787582  0.26099984  1
  O  O311  1  0.74150833  0.19628242  0.26023190  1
  O  O312  1  0.48226137  0.52266892  0.27818535  1
  O  O313  1  0.08270376  0.47136138  0.27620597  1
  O  O314  1  0.57672000  0.02709141  0.27924503  1
  O  O315  1  0.97970318  0.97144832  0.27877212  1
  O  O316  1  0.62698392  0.71420189  0.29309199  1
  O  O317  1  0.92903205  0.28808615  0.29220227  1
  O  O318  1  0.11972222  0.77757643  0.29231750  1
  O  O319  1  0.43341697  0.22265017  0.29067330  1
  O  O320  1  0.82510288  0.60020480  0.30292550  1
  O  O321  1  0.72500590  0.40257581  0.30072659  1
  O  O322  1  0.33067497  0.88586150  0.30301308  1
  O  O323  1  0.23081825  0.10246114  0.30701821  1
  O  O324  1  0.72367132  0.90316229  0.32414714  1
  O  O325  1  0.83815617  0.10388448  0.32165285  1
  O  O326  1  0.21629817  0.59082537  0.32638146  1
  O  O327  1  0.33744609  0.40698949  0.32456014  1
  O  O328  1  0.93267393  0.78252803  0.33153506  1
  O  O329  1  0.62356694  0.21489339  0.32965182  1
  O  O330  1  0.41195776  0.69423369  0.33743575  1
  O  O331  1  0.13162003  0.29239971  0.32937657  1
  O  O332  1  0.46117354  0.02413826  0.34770874  1
  O  O333  1  0.07820638  0.96727120  0.34970644  1
  O  O334  1  0.59502346  0.53820692  0.35667607  1
  O  O335  1  0.96413784  0.47404147  0.34943916  1
  O  O336  1  0.23152093  0.80289070  0.36263086  1
  O  O337  1  0.31745977  0.22877162  0.36795959  1
  O  O338  1  0.74994206  0.72328475  0.36806363  1
  O  O339  1  0.78932992  0.31243275  0.36554536  1
  O  O340  1  0.54664625  0.84096701  0.37527518  1
  O  O341  1  0.00434265  0.15159069  0.37875430  1
  O  O342  1  0.04824325  0.65545723  0.38091526  1
  O  O343  1  0.50942554  0.35204937  0.38527034  1
  O  O344  1  0.87812100  0.93870190  0.39051384  1
  O  O345  1  0.66799867  0.05539448  0.38586863  1
  O  O346  1  0.16357268  0.44706843  0.39122010  1
  O  O347  1  0.38318259  0.51999255  0.39903371  1
  O  O348  1  0.37147057  0.93043115  0.41744794  1
  O  O349  1  0.18554180  0.05774040  0.41428898  1
  O  O350  1  0.64296737  0.44260690  0.44386582  1
  O  O351  1  0.86128851  0.55884601  0.41157262  1
  O  O352  1  0.07570709  0.95958563  0.99761571  1
  O  O353  1  0.61222809  0.57598458  0.00439353  1
  O  O354  1  0.96149094  0.42924227  0.99749093  1
  O  O355  1  0.24125705  0.82796362  0.01990458  1
  O  O356  1  0.27718784  0.19579996  0.00536825  1
  O  O357  1  0.76176343  0.29069350  0.00033426  1
  O  O358  1  0.54480206  0.84582952  0.02362644  1
  O  O359  1  0.98346359  0.16032672  0.02562089  1
  O  O360  1  0.06756672  0.63654603  0.01889705  1
  O  O361  1  0.47846905  0.37429779  0.02653954  1
  O  O362  1  0.47437666  0.12885706  0.41735994  1
  O  O363  1  0.06668763  0.86376101  0.42891496  1
  O  O364  1  0.98285645  0.33925725  0.42204425  1
  O  O365  1  0.54438401  0.65518852  0.42424017  1
  O  O366  1  0.76197562  0.20997308  0.44719490  1
  O  O367  1  0.27626470  0.30560932  0.44309829  1
  O  O368  1  0.24108479  0.67279023  0.42864198  1
  O  O369  1  0.96124180  0.07142214  0.45012620  1
  O  O370  1  0.61136181  0.92631595  0.44353788  1
  O  O371  1  0.07480958  0.54008084  0.45042649  1
  O  O372  1  0.93851279  0.05928045  0.53625629  1
  O  O373  1  0.15723750  0.94247829  0.50412602  1
  O  O374  1  0.61447522  0.55714377  0.53364119  1
  O  O375  1  0.42813637  0.43024419  0.53070430  1
  O  O376  1  0.41723697  0.02066938  0.54914342  1
  O  O377  1  0.63622116  0.94702771  0.55681766  1
  O  O378  1  0.13205642  0.55580002  0.56207966  1
  O  O379  1  0.92250233  0.43850956  0.55743706  1
  O  O380  1  0.29160297  0.85198943  0.56249424  1
  O  O381  1  0.75156379  0.15459863  0.56714582  1
  O  O382  1  0.79620992  0.65184929  0.56886201  1
  O  O383  1  0.25217620  0.34086699  0.57268801  1
  O  O384  1  0.01158702  0.81263943  0.58219642  1
  O  O385  1  0.04983362  0.22257032  0.57989338  1
  O  O386  1  0.48242025  0.72794114  0.58011510  1
  O  O387  1  0.56873996  0.30303134  0.58542872  1
  O  O388  1  0.83648410  0.97354665  0.59835458  1
  O  O389  1  0.20555630  0.03772294  0.59127278  1
  O  O390  1  0.72265278  0.46760595  0.59818120  1
  O  O391  1  0.33842834  0.52343307  0.60040177  1
  O  O392  1  0.66810572  0.79181968  0.61868825  1
  O  O393  1  0.38745291  0.19479343  0.61066156  1
  O  O394  1  0.17690222  0.71495879  0.61817130  1
  O  O395  1  0.86707458  0.28238973  0.61625117  1
  O  O396  1  0.46249888  0.90657383  0.62345272  1
  O  O397  1  0.58300371  0.09076241  0.62167422  1
  O  O398  1  0.96192365  0.60415291  0.62628467  1
  O  O399  1  0.07490892  0.40317337  0.62383623  1
  O  O400  1  0.56926824  0.60208614  0.64103518  1
  O  O401  1  0.46911007  0.38595567  0.64496493  1
  O  O402  1  0.07557091  0.90278309  0.64721364  1
  O  O403  1  0.97469591  0.09977708  0.64498151  1
  O  O404  1  0.36652702  0.72215438  0.65728544  1
  O  O405  1  0.68018875  0.27777153  0.65563097  1
  O  O406  1  0.87157043  0.78836439  0.65571457  1
  O  O407  1  0.17243601  0.21382052  0.65488277  1
  O  O408  1  0.82054032  0.47137035  0.66923208  1
  O  O409  1  0.22275804  0.52689157  0.66877375  1
  O  O410  1  0.71829699  0.97022545  0.67135987  1
  O  O411  1  0.31841652  0.02234497  0.66975536  1
  O  O412  1  0.05848529  0.69590214  0.68754327  1
  O  O413  1  0.98632980  0.30732319  0.68695130  1
  O  O414  1  0.55185892  0.80877342  0.68756252  1
  O  O415  1  0.50196944  0.18630025  0.68915530  1
  O  O416  1  0.73503270  0.65016313  0.70498137  1
  O  O417  1  0.30790151  0.35243611  0.70446241  1
  O  O418  1  0.23560951  0.85368928  0.70667701  1
  O  O419  1  0.81193454  0.14313902  0.70563382  1
  O  O420  1  0.42494450  0.55173530  0.71081952  1
  O  O421  1  0.62078935  0.44687597  0.71014610  1
  O  O422  1  0.11755203  0.05537606  0.71376687  1
  O  O423  1  0.92702135  0.94365334  0.71402331  1
  O  O424  1  0.92689211  0.55567739  0.73433292  1
  O  O425  1  0.11754946  0.44412349  0.73434044  1
  O  O426  1  0.62127097  0.05248582  0.73834514  1
  O  O427  1  0.42510450  0.94758647  0.73742787  1
  O  O428  1  0.81178026  0.35625770  0.74273290  1
  O  O429  1  0.23598730  0.64621716  0.74152025  1
  O  O430  1  0.30764903  0.14764787  0.74339566  1
  O  O431  1  0.73536267  0.84940152  0.74344839  1
  O  O432  1  0.50213393  0.31228594  0.75923172  1
  O  O433  1  0.55106668  0.69213904  0.76029977  1
  O  O434  1  0.98692373  0.19257186  0.76126707  1
  O  O435  1  0.05918838  0.80438349  0.76086605  1
  O  O436  1  0.31829377  0.47660580  0.77824399  1
  O  O437  1  0.71810085  0.52977311  0.77696797  1
  O  O438  1  0.22291802  0.97341524  0.77915833  1
  O  O439  1  0.82133905  0.02837080  0.77907541  1
  O  O440  1  0.17276967  0.28544903  0.79336275  1
  O  O441  1  0.87268653  0.71191050  0.79260769  1
  O  O442  1  0.68046270  0.22115980  0.79274239  1
  O  O443  1  0.36594075  0.77961180  0.79287032  1
  O  O444  1  0.97528455  0.39955739  0.80333319  1
  O  O445  1  0.07600316  0.59757853  0.80110377  1
  O  O446  1  0.46818487  0.11266263  0.80340979  1
  O  O447  1  0.57054026  0.89731431  0.80705255  1
  O  O448  1  0.07570717  0.09597985  0.82452765  1
  O  O449  1  0.96271928  0.89607571  0.82216236  1
  O  O450  1  0.58355096  0.40808631  0.82658077  1
  O  O451  1  0.46344749  0.59267260  0.82452925  1
  O  O452  1  0.86743634  0.21711956  0.83184238  1
  O  O453  1  0.17833833  0.78683184  0.83053198  1
  O  O454  1  0.38829965  0.30503632  0.83775156  1
  O  O455  1  0.66855107  0.70782899  0.82957244  1
  O  O456  1  0.33619406  0.97445344  0.84792572  1
  O  O457  1  0.72230590  0.03131738  0.84988239  1
  O  O458  1  0.20560072  0.46073394  0.85633935  1
  O  O459  1  0.83668174  0.52636374  0.84959885  1
  O  O460  1  0.56846622  0.19480349  0.86281072  1
  O  O461  1  0.47922860  0.77431335  0.86752153  1
  O  O462  1  0.04998245  0.27621965  0.86848140  1
  O  O463  1  0.01251375  0.68760265  0.86610057  1
  O  O464  1  0.25338433  0.15861736  0.87535399  1
  O  O465  1  0.79611318  0.84764707  0.87931801  1
  O  O466  1  0.75178313  0.34440991  0.88080278  1
  O  O467  1  0.28975734  0.64757531  0.88379038  1
  O  O468  1  0.92146935  0.06151384  0.89075879  1
  O  O469  1  0.13091130  0.94448631  0.88630953  1
  O  O470  1  0.63620579  0.55282098  0.89112697  1
  O  O471  1  0.41687209  0.48143534  0.89911725  1
  O  O472  1  0.42863571  0.06907357  0.91719382  1
  O  O473  1  0.61421650  0.94202854  0.91462915  1
  O  O474  1  0.15748134  0.55869406  0.94333537  1
  O  O475  1  0.93829418  0.44073319  0.91172182  1
  O  O476  1  0.72476107  0.04082571  0.49748728  1
  O  O477  1  0.18867272  0.42628893  0.50435970  1
  O  O478  1  0.83889941  0.57083412  0.49773921  1
  O  O479  1  0.55862787  0.17335345  0.51925460  1
  O  O480  1  0.52401096  0.80552457  0.50491891  1
  O  O481  1  0.03826102  0.70972715  0.50052372  1
  O  O482  1  0.25577382  0.15496801  0.52355316  1
  O  O483  1  0.81659010  0.83988785  0.52559695  1
  O  O484  1  0.73396761  0.36320933  0.51892902  1
  O  O485  1  0.32544998  0.62868732  0.53082822  1
  O  O486  1  0.32185304  0.87350199  0.92122332  1
  O  O487  1  0.73330601  0.13628598  0.92909627  1
  O  O488  1  0.81651375  0.66006995  0.92232915  1
  O  O489  1  0.25547492  0.34541235  0.92432682  1
  O  O490  1  0.03783453  0.79028614  0.94768420  1
  O  O491  1  0.52324577  0.69524897  0.94252949  1
  O  O492  1  0.55852008  0.32723304  0.92810732  1
  O  O493  1  0.83865484  0.92903623  0.95035767  1
  O  O494  1  0.18807998  0.07551028  0.94354736  1
  O  O495  1  0.72415050  0.45933678  0.95033372  1
