# generated using pymatgen
data_Li38La16Zr10O63
_symmetry_space_group_name_H-M   'P 1'
_cell_length_a   12.70453900
_cell_length_b   13.20454200
_cell_length_c   36.81444631
_cell_angle_alpha   90.00000000
_cell_angle_beta   90.00000000
_cell_angle_gamma   90.00000000
_symmetry_Int_Tables_number   1
_chemical_formula_structural   Li38La16Zr10O63
_chemical_formula_sum   'Li152 La64 Zr40 O252'
_cell_volume   6175.90385105
_cell_formula_units_Z   4
loop_
 _symmetry_equiv_pos_site_id
 _symmetry_equiv_pos_as_xyz
  1  'x, y, z'
loop_
 _atom_site_type_symbol
 _atom_site_label
 _atom_site_symmetry_multiplicity
 _atom_site_fract_x
 _atom_site_fract_y
 _atom_site_fract_z
 _atom_site_occupancy
  Li  Li0  1  0.77861120  0.94078993  0.00437189  1
  Li  Li1  1  0.79084745  0.11233129  0.98300071  1
  Li  Li2  1  0.25326505  0.55725644  0.01336559  1
  Li  Li3  1  0.36261831  0.33601842  0.02870657  1
  Li  Li4  1  0.91641028  0.23387277  0.04493102  1
  Li  Li5  1  0.68744148  0.76721317  0.04453517  1
  Li  Li6  1  0.46818076  0.20841822  0.99093116  1
  Li  Li7  1  0.15357478  0.70457217  0.06093831  1
  Li  Li8  1  0.38962576  0.17229799  0.06695190  1
  Li  Li9  1  0.22889798  0.88054077  0.07383745  1
  Li  Li10  1  0.85870011  0.41703078  0.07467888  1
  Li  Li11  1  0.72570190  0.59333352  0.07884443  1
  Li  Li12  1  0.49066184  0.32802144  0.10129892  1
  Li  Li13  1  0.06769798  0.63426218  0.12597320  1
  Li  Li14  1  0.00662028  0.15330506  0.10994498  1
  Li  Li15  1  0.60663395  0.84238335  0.10814046  1
  Li  Li16  1  0.38892347  0.95968442  0.10157546  1
  Li  Li17  1  0.21414809  0.06094721  0.10528742  1
  Li  Li18  1  0.65965015  0.42799685  0.10873142  1
  Li  Li19  1  0.89590799  0.56812008  0.11192028  1
  Li  Li20  1  0.44471743  0.42556957  0.15990401  1
  Li  Li21  1  0.20437904  0.57751986  0.16196161  1
  Li  Li22  1  0.70301464  0.94133224  0.16264523  1
  Li  Li23  1  0.90452580  0.06681064  0.16207521  1
  Li  Li24  1  0.10713342  0.16915678  0.16608073  1
  Li  Li25  1  0.49610165  0.84589983  0.16488900  1
  Li  Li26  1  0.60754091  0.32530876  0.16571128  1
  Li  Li27  1  0.97868111  0.66935034  0.17859569  1
  Li  Li28  1  0.25074092  0.41476381  0.19392090  1
  Li  Li29  1  0.36548958  0.58762853  0.19532266  1
  Li  Li30  1  0.73939994  0.09859711  0.19728870  1
  Li  Li31  1  0.86081959  0.91611807  0.20081662  1
  Li  Li32  1  0.42570036  0.75514217  0.22437823  1
  Li  Li33  1  0.17674018  0.25448219  0.22556456  1
  Li  Li34  1  0.92481858  0.75874557  0.22692371  1
  Li  Li35  1  0.67510497  0.25493456  0.22589129  1
  Li  Li36  1  0.86438549  0.59409143  0.24902650  1
  Li  Li37  1  0.73988318  0.40740553  0.25447290  1
  Li  Li38  1  0.36139999  0.92272655  0.25483794  1
  Li  Li39  1  0.24958060  0.09040162  0.25717629  1
  Li  Li40  1  0.99987093  0.83933266  0.28351178  1
  Li  Li41  1  0.60799737  0.17907393  0.28494416  1
  Li  Li42  1  0.50072283  0.66476746  0.28543221  1
  Li  Li43  1  0.10497609  0.33959000  0.28579807  1
  Li  Li44  1  0.90731515  0.44037619  0.28839701  1
  Li  Li45  1  0.70816852  0.56656226  0.28778136  1
  Li  Li46  1  0.18753748  0.93253974  0.28931626  1
  Li  Li47  1  0.44351132  0.07820417  0.29243150  1
  Li  Li48  1  0.94846874  0.93037965  0.34104356  1
  Li  Li49  1  0.66002334  0.08417966  0.34250652  1
  Li  Li50  1  0.20804649  0.43706180  0.34456677  1
  Li  Li51  1  0.40716168  0.56990630  0.34241892  1
  Li  Li52  1  0.61084798  0.67151496  0.34355184  1
  Li  Li53  1  0.00424174  0.34583574  0.34331681  1
  Li  Li54  1  0.11573385  0.83195991  0.34497965  1
  Li  Li55  1  0.48540443  0.17753063  0.35211916  1
  Li  Li56  1  0.74030505  0.91778206  0.36951019  1
  Li  Li57  1  0.85431980  0.07933280  0.37587953  1
  Li  Li58  1  0.23557656  0.60083772  0.37400568  1
  Li  Li59  1  0.36449284  0.41954315  0.38413105  1
  Li  Li60  1  0.91769677  0.26622063  0.40601128  1
  Li  Li61  1  0.68298811  0.74672954  0.40480089  1
  Li  Li62  1  0.41370183  0.23907976  0.42000571  1
  Li  Li63  1  0.18342755  0.76931954  0.40555564  1
  Li  Li64  1  0.26388841  0.11905555  0.46599569  1
  Li  Li65  1  0.28335773  0.93486365  0.44437940  1
  Li  Li66  1  0.77776122  0.39648072  0.46899131  1
  Li  Li67  1  0.77892865  0.57027820  0.44631903  1
  Li  Li68  1  0.11231550  0.72920418  0.46037150  1
  Li  Li69  1  0.95886273  0.28803340  0.46418196  1
  Li  Li70  1  0.59528071  0.77262518  0.46376576  1
  Li  Li71  1  0.94945167  0.62585819  0.46699790  1
  Li  Li72  1  0.94982216  0.87536735  0.98109059  1
  Li  Li73  1  0.61991224  0.70231259  0.98765257  1
  Li  Li74  1  0.96220276  0.22061193  0.98751129  1
  Li  Li75  1  0.10456485  0.77819705  0.99435178  1
  Li  Li76  1  0.04787163  0.05907435  0.50425162  1
  Li  Li77  1  0.03472938  0.88737194  0.48306930  1
  Li  Li78  1  0.57253081  0.44278944  0.51338467  1
  Li  Li79  1  0.45971524  0.66492764  0.52892780  1
  Li  Li80  1  0.90843570  0.76743661  0.54488363  1
  Li  Li81  1  0.13706358  0.23423323  0.54448019  1
  Li  Li82  1  0.35613623  0.79185158  0.49090306  1
  Li  Li83  1  0.67086344  0.29274152  0.56005423  1
  Li  Li84  1  0.43499706  0.82917116  0.56784317  1
  Li  Li85  1  0.59597304  0.12022138  0.57382070  1
  Li  Li86  1  0.96555826  0.58307465  0.57477953  1
  Li  Li87  1  0.09980287  0.40631474  0.57905756  1
  Li  Li88  1  0.33365557  0.67228171  0.60188375  1
  Li  Li89  1  0.75805054  0.36632184  0.62561087  1
  Li  Li90  1  0.81873022  0.84697412  0.60973772  1
  Li  Li91  1  0.21783091  0.15794881  0.60797174  1
  Li  Li92  1  0.43462970  0.04117899  0.60144224  1
  Li  Li93  1  0.61043208  0.94003890  0.60504821  1
  Li  Li94  1  0.16612609  0.57189403  0.60915714  1
  Li  Li95  1  0.92932624  0.43360976  0.61197849  1
  Li  Li96  1  0.37863398  0.57400303  0.65987773  1
  Li  Li97  1  0.62158900  0.42286596  0.66174831  1
  Li  Li98  1  0.12265070  0.06015138  0.66268413  1
  Li  Li99  1  0.92053436  0.93232049  0.66200056  1
  Li  Li100  1  0.71724857  0.83122618  0.66607005  1
  Li  Li101  1  0.32882928  0.15416268  0.66478132  1
  Li  Li102  1  0.21580279  0.67531084  0.66655957  1
  Li  Li103  1  0.84622704  0.32965541  0.67838732  1
  Li  Li104  1  0.57402906  0.58534405  0.69399121  1
  Li  Li105  1  0.46286404  0.41266002  0.69530576  1
  Li  Li106  1  0.08438335  0.90199649  0.69741769  1
  Li  Li107  1  0.96453762  0.08260452  0.70059305  1
  Li  Li108  1  0.39904302  0.24515963  0.72429953  1
  Li  Li109  1  0.64815565  0.74507313  0.72552825  1
  Li  Li110  1  0.90067061  0.23997444  0.72664116  1
  Li  Li111  1  0.14911719  0.74510539  0.72617087  1
  Li  Li112  1  0.96011707  0.40431825  0.74905658  1
  Li  Li113  1  0.08499676  0.59062848  0.75456197  1
  Li  Li114  1  0.46227642  0.07946282  0.75473847  1
  Li  Li115  1  0.57626422  0.90905816  0.75662238  1
  Li  Li116  1  0.82389469  0.16028248  0.78409108  1
  Li  Li117  1  0.21662273  0.82165660  0.78503956  1
  Li  Li118  1  0.32511308  0.33619551  0.78540126  1
  Li  Li119  1  0.72143907  0.65984080  0.78599103  1
  Li  Li120  1  0.91644013  0.55906367  0.78824379  1
  Li  Li121  1  0.11665520  0.43250609  0.78779736  1
  Li  Li122  1  0.63441237  0.06677821  0.78933337  1
  Li  Li123  1  0.38284304  0.92216992  0.79205623  1
  Li  Li124  1  0.87818210  0.06831982  0.84113953  1
  Li  Li125  1  0.16545021  0.91542547  0.84282954  1
  Li  Li126  1  0.61954751  0.56371898  0.84401545  1
  Li  Li127  1  0.41999516  0.43068998  0.84257114  1
  Li  Li128  1  0.21495191  0.32882309  0.84342468  1
  Li  Li129  1  0.82321783  0.65550411  0.84377834  1
  Li  Li130  1  0.70960701  0.16665172  0.84495860  1
  Li  Li131  1  0.34027660  0.82322323  0.85172749  1
  Li  Li132  1  0.08319147  0.07906082  0.86944468  1
  Li  Li133  1  0.96879970  0.91695901  0.87619894  1
  Li  Li134  1  0.59065120  0.39976596  0.87401690  1
  Li  Li135  1  0.46188275  0.58024627  0.88387935  1
  Li  Li136  1  0.90763521  0.73266568  0.90642020  1
  Li  Li137  1  0.14137441  0.25314429  0.90481297  1
  Li  Li138  1  0.41115188  0.76069396  0.91961821  1
  Li  Li139  1  0.64252237  0.23071902  0.90544375  1
  Li  Li140  1  0.56067888  0.87906111  0.96620393  1
  Li  Li141  1  0.54169228  0.06303272  0.94466797  1
  Li  Li142  1  0.04718318  0.60515324  0.96914509  1
  Li  Li143  1  0.04534071  0.43167798  0.94629570  1
  Li  Li144  1  0.71291924  0.27023680  0.96027767  1
  Li  Li145  1  0.86413642  0.71286842  0.96434500  1
  Li  Li146  1  0.23111895  0.22773879  0.96385694  1
  Li  Li147  1  0.87612116  0.37290554  0.96711475  1
  Li  Li148  1  0.87705000  0.12337558  0.48158759  1
  Li  Li149  1  0.20552048  0.29810498  0.48750432  1
  Li  Li150  1  0.86177269  0.77672546  0.48777117  1
  Li  Li151  1  0.72131409  0.22201578  0.49342949  1
  La  La152  1  0.30395668  0.02447106  0.00284535  1
  La  La153  1  0.78818270  0.53260642  0.00477233  1
  La  La154  1  0.92058113  0.74716401  0.05535653  1
  La  La155  1  0.44201964  0.75506315  0.05055454  1
  La  La156  1  0.67962657  0.25033251  0.04662700  1
  La  La157  1  0.16181231  0.24242378  0.04962910  1
  La  La158  1  0.79961136  0.00163142  0.08636245  1
  La  La159  1  0.29906106  0.49472165  0.09006065  1
  La  La160  1  0.55337477  0.11882251  0.13235325  1
  La  La161  1  0.04926301  0.38169503  0.13416708  1
  La  La162  1  0.54872289  0.62671433  0.13649720  1
  La  La163  1  0.04927781  0.88177877  0.13705307  1
  La  La164  1  0.79510520  0.49487895  0.17960011  1
  La  La165  1  0.30108541  0.00480045  0.18035966  1
  La  La166  1  0.42657514  0.25179274  0.22572098  1
  La  La167  1  0.92707018  0.25313151  0.22614575  1
  La  La168  1  0.17736476  0.75457158  0.22440211  1
  La  La169  1  0.67218647  0.75606738  0.22607465  1
  La  La170  1  0.29963362  0.50131857  0.26977209  1
  La  La171  1  0.79931254  0.00858273  0.27287382  1
  La  La172  1  0.05220420  0.62243965  0.31450902  1
  La  La173  1  0.55071276  0.88233691  0.31440727  1
  La  La174  1  0.04914643  0.12589983  0.31783949  1
  La  La175  1  0.54920920  0.38453372  0.31344807  1
  La  La176  1  0.29513977  0.00482399  0.36224693  1
  La  La177  1  0.80349294  0.50448153  0.36394775  1
  La  La178  1  0.93073367  0.75469478  0.39751321  1
  La  La179  1  0.42836660  0.75909602  0.39946630  1
  La  La180  1  0.67084559  0.25747257  0.40742786  1
  La  La181  1  0.17158700  0.25362393  0.40384541  1
  La  La182  1  0.78385016  0.95744831  0.44649791  1
  La  La183  1  0.28150922  0.55941577  0.45395691  1
  La  La184  1  0.52021291  0.97515264  0.50269205  1
  La  La185  1  0.03684123  0.46762771  0.50499877  1
  La  La186  1  0.90419344  0.25309882  0.55536812  1
  La  La187  1  0.38260459  0.24509687  0.55041844  1
  La  La188  1  0.14529770  0.74936554  0.54670699  1
  La  La189  1  0.66243799  0.75748185  0.54958328  1
  La  La190  1  0.02520179  0.99859019  0.58636014  1
  La  La191  1  0.52592969  0.50574313  0.59005625  1
  La  La192  1  0.27083041  0.88122394  0.63248678  1
  La  La193  1  0.77528232  0.61864941  0.63420865  1
  La  La194  1  0.27670994  0.37313734  0.63666560  1
  La  La195  1  0.77582000  0.11821121  0.63697695  1
  La  La196  1  0.02984632  0.50476293  0.67973536  1
  La  La197  1  0.52352659  0.99562850  0.68025931  1
  La  La198  1  0.39808597  0.74835602  0.72561925  1
  La  La199  1  0.89767351  0.74680226  0.72608393  1
  La  La200  1  0.64775071  0.24512764  0.72441897  1
  La  La201  1  0.15285562  0.24429389  0.72614224  1
  La  La202  1  0.52566954  0.49900731  0.76979647  1
  La  La203  1  0.02558205  0.99131800  0.77287298  1
  La  La204  1  0.77291180  0.37717203  0.81457670  1
  La  La205  1  0.27422204  0.11765871  0.81451238  1
  La  La206  1  0.77562717  0.87422741  0.81752663  1
  La  La207  1  0.27597240  0.61558433  0.81353435  1
  La  La208  1  0.52996933  0.99474012  0.86235409  1
  La  La209  1  0.02146014  0.49535550  0.86378495  1
  La  La210  1  0.89447292  0.24482879  0.89747656  1
  La  La211  1  0.39705171  0.24097402  0.89950037  1
  La  La212  1  0.15447162  0.74314374  0.90745711  1
  La  La213  1  0.65365151  0.74608185  0.90379402  1
  La  La214  1  0.04156374  0.04183850  0.94638683  1
  La  La215  1  0.54345673  0.44064385  0.95394932  1
  Zr  Zr216  1  0.04584638  0.98795166  0.04411817  1
  Zr  Zr217  1  0.55928734  0.00240461  0.03887603  1
  Zr  Zr218  1  0.53940584  0.50650234  0.04464718  1
  Zr  Zr219  1  0.05267165  0.49292387  0.04050470  1
  Zr  Zr220  1  0.80203853  0.24981743  0.13514893  1
  Zr  Zr221  1  0.79779182  0.75524285  0.14008194  1
  Zr  Zr222  1  0.30316308  0.25101942  0.13548011  1
  Zr  Zr223  1  0.30261124  0.76017958  0.13474084  1
  Zr  Zr224  1  0.55080750  0.50104972  0.22532249  1
  Zr  Zr225  1  0.05441728  0.50027519  0.22273611  1
  Zr  Zr226  1  0.05216194  0.00760197  0.22659722  1
  Zr  Zr227  1  0.55204350  0.00810461  0.22523684  1
  Zr  Zr228  1  0.30226289  0.75283050  0.31256051  1
  Zr  Zr229  1  0.30181241  0.25452945  0.31666463  1
  Zr  Zr230  1  0.80174805  0.75242423  0.31192398  1
  Zr  Zr231  1  0.80084712  0.25893493  0.31722116  1
  Zr  Zr232  1  0.04722414  0.00189665  0.41118033  1
  Zr  Zr233  1  0.54639274  0.00142342  0.40333948  1
  Zr  Zr234  1  0.55774249  0.51549194  0.40632294  1
  Zr  Zr235  1  0.04935222  0.50837206  0.40518623  1
  Zr  Zr236  1  0.77901473  0.01205343  0.54397749  1
  Zr  Zr237  1  0.26520384  0.99757495  0.53891211  1
  Zr  Zr238  1  0.28532632  0.49376488  0.54481095  1
  Zr  Zr239  1  0.77224255  0.50733875  0.54056496  1
  Zr  Zr240  1  0.02252705  0.75000821  0.63517160  1
  Zr  Zr241  1  0.02729803  0.24530455  0.64002953  1
  Zr  Zr242  1  0.52168600  0.74928673  0.63554313  1
  Zr  Zr243  1  0.52272872  0.24009932  0.63461871  1
  Zr  Zr244  1  0.27475940  0.49885535  0.72532271  1
  Zr  Zr245  1  0.77077312  0.49917881  0.72263868  1
  Zr  Zr246  1  0.77279396  0.99273150  0.72643440  1
  Zr  Zr247  1  0.27272169  0.99206474  0.72523758  1
  Zr  Zr248  1  0.52293655  0.24717017  0.81268066  1
  Zr  Zr249  1  0.52357209  0.74568100  0.81648248  1
  Zr  Zr250  1  0.02345720  0.24730061  0.81201808  1
  Zr  Zr251  1  0.02418312  0.74108918  0.81708975  1
  Zr  Zr252  1  0.77806825  0.99749617  0.91128611  1
  Zr  Zr253  1  0.27891625  0.99868993  0.90340976  1
  Zr  Zr254  1  0.26727856  0.48487641  0.90618779  1
  Zr  Zr255  1  0.77597204  0.49147065  0.90521293  1
  O  O256  1  0.89791782  0.91845587  0.03471291  1
  O  O257  1  0.70949197  0.05766521  0.02760436  1
  O  O258  1  0.20164285  0.42799509  0.03290165  1
  O  O259  1  0.39100928  0.57095997  0.03696882  1
  O  O260  1  0.40292867  0.93422585  0.05078730  1
  O  O261  1  0.19719143  0.04406455  0.05553793  1
  O  O262  1  0.70012054  0.44996605  0.05730019  1
  O  O263  1  0.90108268  0.55777622  0.05965688  1
  O  O264  1  0.53283395  0.15297761  0.06341249  1
  O  O265  1  0.08193558  0.83936324  0.06816181  1
  O  O266  1  0.00773659  0.35139666  0.06352819  1
  O  O267  1  0.58810527  0.65345408  0.06851952  1
  O  O268  1  0.82723421  0.19619630  0.08236694  1
  O  O269  1  0.76516593  0.80221104  0.08675181  1
  O  O270  1  0.33958149  0.30534484  0.08227018  1
  O  O271  1  0.28040913  0.73477926  0.07952585  1
  O  O272  1  0.98812110  0.01847963  0.09775982  1
  O  O273  1  0.60997753  0.97769450  0.09461265  1
  O  O274  1  0.11303467  0.53397585  0.09415960  1
  O  O275  1  0.49858961  0.47227931  0.09966887  1
  O  O276  1  0.14971630  0.21056681  0.11471904  1
  O  O277  1  0.45970337  0.78910784  0.11674230  1
  O  O278  1  0.64854297  0.28527903  0.11550195  1
  O  O279  1  0.94711879  0.71363010  0.12130912  1
  O  O280  1  0.35747372  0.10508838  0.11992257  1
  O  O281  1  0.24847296  0.91204361  0.12449448  1
  O  O282  1  0.85548125  0.40113469  0.12551336  1
  O  O283  1  0.74461044  0.60247174  0.12832752  1
  O  O284  1  0.24415465  0.40002791  0.14338393  1
  O  O285  1  0.34952972  0.60704856  0.14358098  1
  O  O286  1  0.74948627  0.09881623  0.14578444  1
  O  O287  1  0.85271872  0.90337223  0.14906987  1
  O  O288  1  0.45505904  0.28293675  0.15391282  1
  O  O289  1  0.15299538  0.71983281  0.15625303  1
  O  O290  1  0.95408296  0.21406940  0.15441692  1
  O  O291  1  0.64634898  0.79381505  0.15821719  1
  O  O292  1  0.00095083  0.53187621  0.16745805  1
  O  O293  1  0.60034798  0.46915140  0.17114638  1
  O  O294  1  0.10454220  0.02885303  0.17288356  1
  O  O295  1  0.49315134  0.98528824  0.17203084  1
  O  O296  1  0.76561078  0.30423519  0.18801230  1
  O  O297  1  0.83048123  0.69555124  0.19197082  1
  O  O298  1  0.26796771  0.19773960  0.18763590  1
  O  O299  1  0.33682299  0.81550108  0.18720714  1
  O  O300  1  0.08512080  0.35397856  0.20299267  1
  O  O301  1  0.51410823  0.64676755  0.20536892  1
  O  O302  1  0.58715913  0.15438819  0.20611370  1
  O  O303  1  0.01615430  0.85929721  0.20794732  1
  O  O304  1  0.40000709  0.44375868  0.21080019  1
  O  O305  1  0.20938596  0.55301515  0.21188386  1
  O  O306  1  0.70448705  0.95473124  0.21423308  1
  O  O307  1  0.89764631  0.06177093  0.21464613  1
  O  O308  1  0.89955942  0.44660033  0.23533986  1
  O  O309  1  0.70391347  0.55020599  0.23641005  1
  O  O310  1  0.20694961  0.95304448  0.23809549  1
  O  O311  1  0.39895960  0.06398221  0.23937738  1
  O  O312  1  0.01624375  0.64978037  0.23697680  1
  O  O313  1  0.58512254  0.35515957  0.24682174  1
  O  O314  1  0.51551630  0.85991932  0.24384492  1
  O  O315  1  0.08414333  0.15472019  0.24558740  1
  O  O316  1  0.33294393  0.69807368  0.25985194  1
  O  O317  1  0.26897351  0.31025267  0.26284369  1
  O  O318  1  0.83351568  0.81333775  0.26026341  1
  O  O319  1  0.76420435  0.20805334  0.26393364  1
  O  O320  1  0.49093427  0.52602035  0.27814940  1
  O  O321  1  0.10361081  0.47943417  0.27644048  1
  O  O322  1  0.60158429  0.03751808  0.27951543  1
  O  O323  1  0.99834663  0.98081136  0.28113452  1
  O  O324  1  0.64959272  0.71128292  0.29265786  1
  O  O325  1  0.95233543  0.29427306  0.29688127  1
  O  O326  1  0.14803545  0.78709887  0.29308558  1
  O  O327  1  0.45468284  0.22370423  0.29642924  1
  O  O328  1  0.85837041  0.60284223  0.30096765  1
  O  O329  1  0.74767063  0.41119944  0.30562432  1
  O  O330  1  0.35065745  0.90369479  0.30498068  1
  O  O331  1  0.24078187  0.10701522  0.30770255  1
  O  O332  1  0.74345256  0.90069055  0.32064092  1
  O  O333  1  0.85200389  0.10977663  0.32574299  1
  O  O334  1  0.25162049  0.59874277  0.32356082  1
  O  O335  1  0.35791267  0.40511518  0.32928746  1
  O  O336  1  0.95528403  0.78693934  0.33127995  1
  O  O337  1  0.64296186  0.22899549  0.33805331  1
  O  O338  1  0.45333667  0.71407390  0.33284192  1
  O  O339  1  0.14946568  0.29714879  0.33525011  1
  O  O340  1  0.49934579  0.03551836  0.34955841  1
  O  O341  1  0.10021879  0.97410848  0.35451742  1
  O  O342  1  0.60237097  0.52811335  0.35487073  1
  O  O343  1  0.99035811  0.48211518  0.35249713  1
  O  O344  1  0.26353977  0.80252898  0.36464928  1
  O  O345  1  0.33634561  0.20201778  0.36865977  1
  O  O346  1  0.76370475  0.69712308  0.36361564  1
  O  O347  1  0.82748838  0.31390955  0.36956440  1
  O  O348  1  0.58994848  0.85340120  0.37759011  1
  O  O349  1  0.00783476  0.14786229  0.38873769  1
  O  O350  1  0.09244765  0.65455084  0.38009900  1
  O  O351  1  0.50338361  0.36882727  0.40382749  1
  O  O352  1  0.89461975  0.93959097  0.39035227  1
  O  O353  1  0.70613818  0.05148696  0.39259446  1
  O  O354  1  0.20570634  0.46085789  0.39579765  1
  O  O355  1  0.39701174  0.56688152  0.39699538  1
  O  O356  1  0.39827763  0.93773437  0.41046324  1
  O  O357  1  0.19646233  0.05111768  0.42255151  1
  O  O358  1  0.69982947  0.45831066  0.42416186  1
  O  O359  1  0.90246076  0.57845674  0.41555957  1
  O  O360  1  0.48718715  0.05473882  0.99240155  1
  O  O361  1  0.09688795  0.92824423  0.99503252  1
  O  O362  1  0.60294589  0.56158909  0.99708517  1
  O  O363  1  0.97235850  0.47313382  0.99120776  1
  O  O364  1  0.30945496  0.20545304  0.01036917  1
  O  O365  1  0.79149047  0.70740759  0.00900643  1
  O  O366  1  0.81834925  0.25770363  0.99993859  1
  O  O367  1  0.59325850  0.85557343  0.02013805  1
  O  O368  1  0.02053345  0.13700879  0.02374725  1
  O  O369  1  0.11326586  0.63421669  0.01853440  1
  O  O370  1  0.50801449  0.37153628  0.01809493  1
  O  O371  1  0.53097167  0.14510517  0.42395060  1
  O  O372  1  0.07392596  0.84814203  0.42858482  1
  O  O373  1  0.02252719  0.36470451  0.42682622  1
  O  O374  1  0.57433799  0.66189885  0.42818796  1
  O  O375  1  0.81453645  0.25057700  0.45366242  1
  O  O376  1  0.79708650  0.78079917  0.44290864  1
  O  O377  1  0.28370930  0.25160838  0.44867893  1
  O  O378  1  0.28411909  0.73329553  0.44526376  1
  O  O379  1  0.96764243  0.02263316  0.46025852  1
  O  O380  1  0.60071633  0.92047091  0.44934626  1
  O  O381  1  0.09546686  0.57898373  0.45504440  1
  O  O382  1  0.92743169  0.08155447  0.53465987  1
  O  O383  1  0.11524294  0.94180425  0.52764626  1
  O  O384  1  0.62343934  0.57201372  0.53294232  1
  O  O385  1  0.43386032  0.42961860  0.53701253  1
  O  O386  1  0.42133330  0.06587409  0.55064780  1
  O  O387  1  0.62750416  0.95620688  0.55529111  1
  O  O388  1  0.12489242  0.54984608  0.55753638  1
  O  O389  1  0.92366694  0.44233665  0.55973105  1
  O  O390  1  0.29182349  0.84717858  0.56360118  1
  O  O391  1  0.74301907  0.16053260  0.56822297  1
  O  O392  1  0.81714212  0.64907276  0.56333233  1
  O  O393  1  0.23684522  0.34660000  0.56850965  1
  O  O394  1  0.99742026  0.80382768  0.58246008  1
  O  O395  1  0.05986565  0.19873054  0.58669974  1
  O  O396  1  0.48485036  0.69508578  0.58233899  1
  O  O397  1  0.54441189  0.26516691  0.57930095  1
  O  O398  1  0.83678295  0.98161642  0.59763018  1
  O  O399  1  0.21459568  0.02248053  0.59468755  1
  O  O400  1  0.71220066  0.46758726  0.59436583  1
  O  O401  1  0.32632130  0.52796229  0.59986466  1
  O  O402  1  0.67507800  0.78965768  0.61463923  1
  O  O403  1  0.36535049  0.21104965  0.61663079  1
  O  O404  1  0.17616625  0.71464209  0.61582035  1
  O  O405  1  0.87815140  0.28677609  0.62130939  1
  O  O406  1  0.46711608  0.89516031  0.61986889  1
  O  O407  1  0.57635228  0.08818824  0.62439711  1
  O  O408  1  0.96880643  0.59857561  0.62560236  1
  O  O409  1  0.08096435  0.39791941  0.62844097  1
  O  O410  1  0.58085631  0.60053319  0.64341041  1
  O  O411  1  0.47599023  0.39322526  0.64348353  1
  O  O412  1  0.07495252  0.90090858  0.64582469  1
  O  O413  1  0.97268042  0.09699571  0.64892142  1
  O  O414  1  0.36984842  0.71729145  0.65413289  1
  O  O415  1  0.67225089  0.28031972  0.65606877  1
  O  O416  1  0.87044887  0.78599134  0.65443267  1
  O  O417  1  0.17883516  0.20661343  0.65822936  1
  O  O418  1  0.82375191  0.46781523  0.66752405  1
  O  O419  1  0.22444533  0.53111387  0.67127648  1
  O  O420  1  0.72007249  0.97140192  0.67278584  1
  O  O421  1  0.33121721  0.01492790  0.67198773  1
  O  O422  1  0.05884314  0.69578925  0.68814980  1
  O  O423  1  0.99460657  0.30495849  0.69196167  1
  O  O424  1  0.55704568  0.80267225  0.68765378  1
  O  O425  1  0.48806006  0.18480731  0.68706926  1
  O  O426  1  0.73981597  0.64571790  0.70309748  1
  O  O427  1  0.31136699  0.35347488  0.70535242  1
  O  O428  1  0.23745376  0.84559719  0.70625510  1
  O  O429  1  0.80927617  0.14049956  0.70756200  1
  O  O430  1  0.42516010  0.55640561  0.71075933  1
  O  O431  1  0.61552712  0.44692842  0.71178783  1
  O  O432  1  0.12029709  0.04547627  0.71421560  1
  O  O433  1  0.92732365  0.93806601  0.71448520  1
  O  O434  1  0.92553585  0.55260810  0.73534574  1
  O  O435  1  0.12158437  0.44912087  0.73650026  1
  O  O436  1  0.61820187  0.04763860  0.73791099  1
  O  O437  1  0.42598584  0.93662944  0.73917543  1
  O  O438  1  0.80845059  0.34941685  0.73695837  1
  O  O439  1  0.23954840  0.64469088  0.74680156  1
  O  O440  1  0.30944393  0.14025547  0.74383776  1
  O  O441  1  0.74033165  0.84560987  0.74544109  1
  O  O442  1  0.49204504  0.30141991  0.75992173  1
  O  O443  1  0.55584878  0.68967602  0.76273348  1
  O  O444  1  0.99235723  0.18748563  0.76020187  1
  O  O445  1  0.06041034  0.79317423  0.76394503  1
  O  O446  1  0.33483688  0.47452573  0.77818515  1
  O  O447  1  0.72176800  0.52019355  0.77647335  1
  O  O448  1  0.22358616  0.96296120  0.77957767  1
  O  O449  1  0.82745974  0.01904911  0.78090979  1
  O  O450  1  0.17569800  0.28877445  0.79283631  1
  O  O451  1  0.87282898  0.70558893  0.79666047  1
  O  O452  1  0.67688687  0.21235098  0.79313610  1
  O  O453  1  0.37045721  0.77652086  0.79645708  1
  O  O454  1  0.96646261  0.39705314  0.80108173  1
  O  O455  1  0.07751243  0.58878494  0.80569284  1
  O  O456  1  0.47410863  0.09636742  0.80497808  1
  O  O457  1  0.58387836  0.89351785  0.80731807  1
  O  O458  1  0.08103586  0.09899953  0.82071951  1
  O  O459  1  0.97221038  0.89014442  0.82580280  1
  O  O460  1  0.57366728  0.40119719  0.82356577  1
  O  O461  1  0.46822130  0.59504348  0.82917837  1
  O  O462  1  0.86978395  0.21237781  0.83136660  1
  O  O463  1  0.18174565  0.77111162  0.83796841  1
  O  O464  1  0.37208302  0.28622691  0.83299333  1
  O  O465  1  0.67632471  0.70378659  0.83511525  1
  O  O466  1  0.32563052  0.96453276  0.84961725  1
  O  O467  1  0.72521892  0.02489025  0.85458098  1
  O  O468  1  0.22233161  0.47188676  0.85481822  1
  O  O469  1  0.83418833  0.51838753  0.85244379  1
  O  O470  1  0.56193996  0.19712027  0.86467772  1
  O  O471  1  0.48911855  0.79865902  0.86849173  1
  O  O472  1  0.06121886  0.30318738  0.86361665  1
  O  O473  1  0.99635733  0.68649129  0.86940876  1
  O  O474  1  0.23498975  0.14597060  0.87766661  1
  O  O475  1  0.81787962  0.85148606  0.88919853  1
  O  O476  1  0.73295972  0.34536881  0.88010734  1
  O  O477  1  0.32172918  0.63156394  0.90316544  1
  O  O478  1  0.93060861  0.05918457  0.89039284  1
  O  O479  1  0.11895095  0.94701206  0.89272716  1
  O  O480  1  0.62002917  0.53940738  0.89549161  1
  O  O481  1  0.42824830  0.43357516  0.89705044  1
  O  O482  1  0.42702658  0.06196054  0.91046785  1
  O  O483  1  0.62871015  0.94796914  0.92266914  1
  O  O484  1  0.12535926  0.54269376  0.92408305  1
  O  O485  1  0.92280806  0.42125715  0.91548968  1
  O  O486  1  0.33697787  0.94524512  0.49232155  1
  O  O487  1  0.72936333  0.07216799  0.49487093  1
  O  O488  1  0.22212001  0.43854400  0.49717764  1
  O  O489  1  0.85251077  0.52723796  0.49122843  1
  O  O490  1  0.51520448  0.79456009  0.51019872  1
  O  O491  1  0.03238640  0.29306292  0.50884635  1
  O  O492  1  0.00692867  0.74165879  0.50004879  1
  O  O493  1  0.23040667  0.14413750  0.52023391  1
  O  O494  1  0.80428326  0.86312655  0.52352119  1
  O  O495  1  0.71186688  0.36582598  0.51844342  1
  O  O496  1  0.31551763  0.62902718  0.51822474  1
  O  O497  1  0.29419937  0.85480114  0.92410004  1
  O  O498  1  0.75119706  0.15139668  0.92854753  1
  O  O499  1  0.80265286  0.63467506  0.92721745  1
  O  O500  1  0.25079682  0.33834667  0.92810463  1
  O  O501  1  0.00993778  0.74997453  0.95413531  1
  O  O502  1  0.02729920  0.21811657  0.94277430  1
  O  O503  1  0.54128005  0.74731979  0.94849429  1
  O  O504  1  0.54074825  0.26699102  0.94520096  1
  O  O505  1  0.85808523  0.97738639  0.96036905  1
  O  O506  1  0.22460574  0.07968996  0.94935625  1
  O  O507  1  0.72956309  0.42071645  0.95501547  1
