# generated using pymatgen
data_Li38La16Zr10O63
_symmetry_space_group_name_H-M   'P 1'
_cell_length_a   12.70453900
_cell_length_b   13.20454200
_cell_length_c   36.80031839
_cell_angle_alpha   90.00000000
_cell_angle_beta   90.00000000
_cell_angle_gamma   90.00000000
_symmetry_Int_Tables_number   1
_chemical_formula_structural   Li38La16Zr10O63
_chemical_formula_sum   'Li152 La64 Zr40 O252'
_cell_volume   6173.53378478
_cell_formula_units_Z   4
loop_
 _symmetry_equiv_pos_site_id
 _symmetry_equiv_pos_as_xyz
  1  'x, y, z'
loop_
 _atom_site_type_symbol
 _atom_site_label
 _atom_site_symmetry_multiplicity
 _atom_site_fract_x
 _atom_site_fract_y
 _atom_site_fract_z
 _atom_site_occupancy
  Li  Li0  1  0.68575048  0.84536762  0.03097207  1
  Li  Li1  1  0.78879943  0.06135369  0.00354041  1
  Li  Li2  1  0.29297693  0.65017307  0.98655362  1
  Li  Li3  1  0.30734578  0.44120130  0.01437543  1
  Li  Li4  1  0.92036216  0.30767354  0.02155277  1
  Li  Li5  1  0.66390448  0.69094504  0.06857205  1
  Li  Li6  1  0.37832059  0.26674066  0.04057809  1
  Li  Li7  1  0.16050749  0.71153453  0.03821023  1
  Li  Li8  1  0.32627429  0.11035358  0.07651589  1
  Li  Li9  1  0.17898794  0.93143734  0.07895528  1
  Li  Li10  1  0.83602240  0.38804882  0.07395967  1
  Li  Li11  1  0.75162968  0.52819179  0.09044231  1
  Li  Li12  1  0.44228189  0.34682035  0.10218043  1
  Li  Li13  1  0.07584977  0.68750882  0.10486449  1
  Li  Li14  1  0.91360690  0.19930607  0.07441747  1
  Li  Li15  1  0.56751667  0.84406777  0.10020702  1
  Li  Li16  1  0.40846394  0.95169388  0.10924878  1
  Li  Li17  1  0.08003837  0.09878003  0.11045298  1
  Li  Li18  1  0.59886330  0.44382388  0.10771618  1
  Li  Li19  1  0.92034275  0.58407983  0.11071003  1
  Li  Li20  1  0.37479234  0.44897360  0.16038878  1
  Li  Li21  1  0.14550394  0.58783999  0.16170743  1
  Li  Li22  1  0.61809355  0.94290801  0.15948579  1
  Li  Li23  1  0.89045244  0.10240597  0.15265601  1
  Li  Li24  1  0.06718514  0.19174149  0.16687206  1
  Li  Li25  1  0.44996278  0.84996744  0.16676033  1
  Li  Li26  1  0.56201240  0.35032169  0.16659399  1
  Li  Li27  1  0.95268111  0.68480683  0.16707107  1
  Li  Li28  1  0.20149308  0.43252248  0.19645004  1
  Li  Li29  1  0.31567304  0.60531342  0.19739698  1
  Li  Li30  1  0.70774561  0.10334420  0.19034596  1
  Li  Li31  1  0.80889876  0.94144369  0.19224289  1
  Li  Li32  1  0.38335465  0.76947107  0.22335687  1
  Li  Li33  1  0.13153124  0.27140482  0.22354786  1
  Li  Li34  1  0.88068784  0.77128080  0.22352604  1
  Li  Li35  1  0.63396487  0.26989850  0.22437156  1
  Li  Li36  1  0.80988829  0.60435983  0.25344680  1
  Li  Li37  1  0.70567566  0.43741735  0.25611498  1
  Li  Li38  1  0.32256748  0.93015472  0.24864299  1
  Li  Li39  1  0.20104184  0.11184196  0.24874556  1
  Li  Li40  1  0.95365188  0.85884031  0.28155725  1
  Li  Li41  1  0.55576398  0.18671016  0.28336449  1
  Li  Li42  1  0.44486845  0.69100357  0.28021277  1
  Li  Li43  1  0.06304643  0.34932663  0.28075721  1
  Li  Li44  1  0.89349765  0.44597402  0.28883294  1
  Li  Li45  1  0.61736583  0.59503505  0.28845045  1
  Li  Li46  1  0.16197734  0.95768565  0.28443646  1
  Li  Li47  1  0.36233488  0.08403145  0.28789429  1
  Li  Li48  1  0.87850818  0.95732507  0.34113405  1
  Li  Li49  1  0.62202107  0.09151139  0.33884383  1
  Li  Li50  1  0.10223508  0.44537534  0.33699635  1
  Li  Li51  1  0.41127125  0.59370516  0.33740750  1
  Li  Li52  1  0.56998365  0.69600251  0.34404422  1
  Li  Li53  1  0.94446582  0.34639792  0.34638804  1
  Li  Li54  1  0.05891976  0.86072877  0.33977273  1
  Li  Li55  1  0.44463552  0.18448576  0.34682212  1
  Li  Li56  1  0.70777533  0.94648144  0.37324038  1
  Li  Li57  1  0.80967619  0.12983587  0.37329297  1
  Li  Li58  1  0.18177928  0.61609355  0.36909852  1
  Li  Li59  1  0.30254569  0.44918907  0.36836632  1
  Li  Li60  1  0.88632652  0.27078971  0.40958095  1
  Li  Li61  1  0.63117959  0.77510582  0.40027310  1
  Li  Li62  1  0.37975482  0.27484050  0.40473845  1
  Li  Li63  1  0.14131931  0.79568694  0.40461645  1
  Li  Li64  1  0.36471556  0.09536483  0.45064408  1
  Li  Li65  1  0.28475527  0.88308061  0.46171951  1
  Li  Li66  1  0.79946556  0.46427895  0.44280332  1
  Li  Li67  1  0.69751926  0.63075587  0.42741657  1
  Li  Li68  1  0.37510076  0.36606206  0.47322763  1
  Li  Li69  1  0.09252480  0.70860903  0.45544702  1
  Li  Li70  1  0.60529425  0.79476505  0.45994075  1
  Li  Li71  1  0.83064695  0.63123711  0.47445276  1
  Li  Li72  1  0.84093300  0.90738503  0.97465638  1
  Li  Li73  1  0.57873055  0.72021886  0.99657480  1
  Li  Li74  1  0.09666698  0.81264282  0.99268072  1
  Li  Li75  1  0.37472913  0.17461213  0.97339936  1
  Li  Li76  1  0.63776429  0.67837631  0.53091330  1
  Li  Li77  1  0.53680752  0.46421013  0.50354000  1
  Li  Li78  1  0.03270611  0.87494176  0.48592745  1
  Li  Li79  1  0.01772907  0.08351573  0.51444707  1
  Li  Li80  1  0.40653090  0.21754446  0.52226445  1
  Li  Li81  1  0.66186373  0.83311014  0.56842696  1
  Li  Li82  1  0.94679368  0.25967880  0.54051625  1
  Li  Li83  1  0.16350571  0.81589488  0.53806567  1
  Li  Li84  1  0.99998223  0.41540540  0.57655016  1
  Li  Li85  1  0.14512713  0.59315276  0.57912951  1
  Li  Li86  1  0.48949716  0.13633966  0.57415777  1
  Li  Li87  1  0.57386180  0.99599239  0.59030701  1
  Li  Li88  1  0.88337345  0.17840753  0.60153223  1
  Li  Li89  1  0.24966887  0.83631007  0.60489702  1
  Li  Li90  1  0.41057238  0.32543462  0.57520898  1
  Li  Li91  1  0.75681969  0.67970165  0.59967649  1
  Li  Li92  1  0.91723357  0.57246310  0.60922917  1
  Li  Li93  1  0.24371566  0.42612719  0.61016775  1
  Li  Li94  1  0.72673690  0.08056876  0.60747153  1
  Li  Li95  1  0.40597043  0.94069899  0.61074741  1
  Li  Li96  1  0.94966442  0.07670344  0.66069497  1
  Li  Li97  1  0.18049343  0.93522801  0.66189265  1
  Li  Li98  1  0.70725278  0.58291644  0.65936636  1
  Li  Li99  1  0.43178687  0.42235034  0.65263813  1
  Li  Li100  1  0.25695439  0.33275663  0.66713734  1
  Li  Li101  1  0.87586747  0.67394333  0.66673151  1
  Li  Li102  1  0.76348929  0.17338309  0.66645732  1
  Li  Li103  1  0.37285688  0.83943177  0.66724673  1
  Li  Li104  1  0.12299948  0.09148251  0.69610099  1
  Li  Li105  1  0.00894178  0.91979005  0.69736070  1
  Li  Li106  1  0.61793509  0.42154398  0.69020075  1
  Li  Li107  1  0.51636674  0.58356531  0.69224849  1
  Li  Li108  1  0.94202896  0.75608048  0.72368810  1
  Li  Li109  1  0.19321887  0.25319597  0.72366296  1
  Li  Li110  1  0.44450445  0.75336807  0.72366531  1
  Li  Li111  1  0.69111568  0.25572823  0.72457348  1
  Li  Li112  1  0.51479721  0.92072703  0.75356449  1
  Li  Li113  1  0.61900677  0.08786217  0.75638642  1
  Li  Li114  1  0.00348145  0.59520768  0.74853307  1
  Li  Li115  1  0.12502688  0.41268778  0.74941722  1
  Li  Li116  1  0.37288431  0.66595804  0.78117599  1
  Li  Li117  1  0.77073714  0.34037586  0.78420633  1
  Li  Li118  1  0.87948384  0.83316135  0.78038680  1
  Li  Li119  1  0.26007524  0.17620946  0.78028810  1
  Li  Li120  1  0.43090210  0.07894503  0.78917463  1
  Li  Li121  1  0.70682361  0.92857723  0.78841366  1
  Li  Li122  1  0.16342992  0.56775551  0.78463141  1
  Li  Li123  1  0.96536201  0.44270456  0.78794430  1
  Li  Li124  1  0.44817557  0.56767374  0.84119693  1
  Li  Li125  1  0.69474086  0.43442456  0.83886822  1
  Li  Li126  1  0.22310674  0.07904141  0.83694223  1
  Li  Li127  1  0.91317399  0.93096062  0.83719164  1
  Li  Li128  1  0.75412647  0.82900415  0.84445819  1
  Li  Li129  1  0.37949993  0.17891651  0.84588091  1
  Li  Li130  1  0.26699971  0.66402660  0.83967267  1
  Li  Li131  1  0.87936244  0.34188499  0.84646914  1
  Li  Li132  1  0.61793274  0.58071198  0.87371318  1
  Li  Li133  1  0.51497220  0.39632280  0.87366018  1
  Li  Li134  1  0.14418715  0.90721258  0.86930760  1
  Li  Li135  1  0.02391473  0.07332239  0.86811825  1
  Li  Li136  1  0.43736627  0.25411549  0.90927936  1
  Li  Li137  1  0.69286011  0.75014345  0.90105501  1
  Li  Li138  1  0.94534059  0.25148447  0.90469518  1
  Li  Li139  1  0.18376914  0.72942940  0.90457045  1
  Li  Li140  1  0.96169425  0.43135583  0.95045563  1
  Li  Li141  1  0.03955359  0.64377194  0.96211831  1
  Li  Li142  1  0.52460978  0.06063904  0.94281082  1
  Li  Li143  1  0.62898655  0.89523804  0.92799611  1
  Li  Li144  1  0.94985854  0.15790103  0.97285817  1
  Li  Li145  1  0.23297140  0.81564813  0.95552780  1
  Li  Li146  1  0.71946306  0.72879734  0.96024849  1
  Li  Li147  1  0.49313898  0.89423280  0.97394151  1
  Li  Li148  1  0.48314430  0.61786222  0.47468364  1
  Li  Li149  1  0.74523490  0.80493603  0.49662145  1
  Li  Li150  1  0.22917559  0.71397937  0.49232425  1
  Li  Li151  1  0.95084931  0.35244111  0.47309513  1
  La  La152  1  0.25773090  0.01760653  0.00828548  1
  La  La153  1  0.76116353  0.53980451  0.00723243  1
  La  La154  1  0.89521113  0.75738140  0.05055650  1
  La  La155  1  0.38217309  0.77604354  0.05068601  1
  La  La156  1  0.61914869  0.27172100  0.03846480  1
  La  La157  1  0.14131954  0.25864781  0.04952093  1
  La  La158  1  0.75070627  0.00926107  0.08851962  1
  La  La159  1  0.25596822  0.51913068  0.08967697  1
  La  La160  1  0.51259502  0.14441032  0.13340199  1
  La  La161  1  0.01154759  0.39116593  0.13432520  1
  La  La162  1  0.50259389  0.64038461  0.13592141  1
  La  La163  1  0.00293688  0.89361279  0.13530442  1
  La  La164  1  0.75561420  0.51770903  0.17768607  1
  La  La165  1  0.25884139  0.01988406  0.17553840  1
  La  La166  1  0.38358872  0.26860531  0.22436472  1
  La  La167  1  0.87881637  0.27114844  0.22150863  1
  La  La168  1  0.13153384  0.77145153  0.22394526  1
  La  La169  1  0.63104331  0.76929854  0.22432144  1
  La  La170  1  0.25578181  0.52029901  0.27133792  1
  La  La171  1  0.75714435  0.02161584  0.26849780  1
  La  La172  1  0.00348931  0.64732838  0.31231590  1
  La  La173  1  0.50579157  0.90041242  0.31178620  1
  La  La174  1  0.00852901  0.14059921  0.30662250  1
  La  La175  1  0.50915189  0.39370284  0.31479280  1
  La  La176  1  0.25781111  0.02589380  0.36283100  1
  La  La177  1  0.75687318  0.52646987  0.35710851  1
  La  La178  1  0.87969958  0.77074881  0.40249901  1
  La  La179  1  0.38431517  0.76913168  0.39782163  1
  La  La180  1  0.62186270  0.26359415  0.40664914  1
  La  La181  1  0.14213000  0.27657048  0.40411287  1
  La  La182  1  0.76498889  0.05532059  0.44751343  1
  La  La183  1  0.26107786  0.52764897  0.43856393  1
  La  La184  1  0.06747806  0.50836053  0.50831735  1
  La  La185  1  0.56396551  0.98456730  0.50716629  1
  La  La186  1  0.42952814  0.76751501  0.55058090  1
  La  La187  1  0.94297740  0.74921112  0.55062811  1
  La  La188  1  0.70602751  0.25311194  0.53903190  1
  La  La189  1  0.18387375  0.26629474  0.54931635  1
  La  La190  1  0.57409706  0.51502590  0.58869494  1
  La  La191  1  0.06917605  0.00561616  0.58986638  1
  La  La192  1  0.81255586  0.38022913  0.63351877  1
  La  La193  1  0.31342963  0.13338456  0.63434957  1
  La  La194  1  0.82256716  0.88415187  0.63597944  1
  La  La195  1  0.32218275  0.63097758  0.63539207  1
  La  La196  1  0.56946756  0.00697892  0.67779859  1
  La  La197  1  0.06641354  0.50456241  0.67573102  1
  La  La198  1  0.94143685  0.25670583  0.72455001  1
  La  La199  1  0.44623308  0.25380435  0.72162840  1
  La  La200  1  0.19358070  0.75345646  0.72404824  1
  La  La201  1  0.69415773  0.75536226  0.72431573  1
  La  La202  1  0.06903135  0.00444617  0.77142415  1
  La  La203  1  0.56784718  0.50333387  0.76826068  1
  La  La204  1  0.32157256  0.87735497  0.81234950  1
  La  La205  1  0.81904481  0.62410447  0.81199725  1
  La  La206  1  0.31671393  0.38455632  0.80688029  1
  La  La207  1  0.81545589  0.13150113  0.81487989  1
  La  La208  1  0.06733581  0.49951687  0.86308383  1
  La  La209  1  0.56798833  0.99858333  0.85727992  1
  La  La210  1  0.44537207  0.75447239  0.90256582  1
  La  La211  1  0.93998884  0.75606778  0.89790111  1
  La  La212  1  0.70325955  0.26215638  0.90682419  1
  La  La213  1  0.18256209  0.24865065  0.90427976  1
  La  La214  1  0.55972269  0.46953101  0.94789062  1
  La  La215  1  0.06397618  0.99639353  0.93850571  1
  Zr  Zr216  1  0.99423418  0.01305282  0.04315369  1
  Zr  Zr217  1  0.51607114  0.02267096  0.03946909  1
  Zr  Zr218  1  0.49752384  0.52370804  0.04407471  1
  Zr  Zr219  1  0.01736126  0.50505573  0.04082664  1
  Zr  Zr220  1  0.75406685  0.27652737  0.13161291  1
  Zr  Zr221  1  0.75559465  0.76527721  0.13601478  1
  Zr  Zr222  1  0.26127241  0.26755600  0.13634214  1
  Zr  Zr223  1  0.25650551  0.76965209  0.13682043  1
  Zr  Zr224  1  0.50788499  0.51737326  0.22521772  1
  Zr  Zr225  1  0.00679591  0.51944833  0.22358577  1
  Zr  Zr226  1  0.00513270  0.02131034  0.22058420  1
  Zr  Zr227  1  0.51042373  0.02267827  0.22275892  1
  Zr  Zr228  1  0.25543689  0.77565217  0.31139696  1
  Zr  Zr229  1  0.25629655  0.26811812  0.31316828  1
  Zr  Zr230  1  0.75769027  0.77541461  0.31243331  1
  Zr  Zr231  1  0.75871789  0.26470833  0.31396609  1
  Zr  Zr232  1  0.00852925  0.01301901  0.40533260  1
  Zr  Zr233  1  0.50958232  0.01175389  0.40342590  1
  Zr  Zr234  1  0.51505737  0.51568085  0.40543846  1
  Zr  Zr235  1  0.00184391  0.52241721  0.40298480  1
  Zr  Zr236  1  0.33052142  0.51202093  0.54327936  1
  Zr  Zr237  1  0.80888086  0.50229541  0.53961003  1
  Zr  Zr238  1  0.82768476  0.00129416  0.54400018  1
  Zr  Zr239  1  0.30800843  0.02001857  0.54092017  1
  Zr  Zr240  1  0.57106432  0.24799656  0.63175481  1
  Zr  Zr241  1  0.56959838  0.75946283  0.63600665  1
  Zr  Zr242  1  0.06370477  0.25743386  0.63624203  1
  Zr  Zr243  1  0.06846470  0.75483343  0.63686330  1
  Zr  Zr244  1  0.81696166  0.00750933  0.72543577  1
  Zr  Zr245  1  0.31807531  0.00564947  0.72372501  1
  Zr  Zr246  1  0.31989750  0.50340390  0.72070172  1
  Zr  Zr247  1  0.81492376  0.50270172  0.72279194  1
  Zr  Zr248  1  0.06952952  0.74920901  0.81151250  1
  Zr  Zr249  1  0.06850831  0.25706078  0.81348871  1
  Zr  Zr250  1  0.56736412  0.74928468  0.81258328  1
  Zr  Zr251  1  0.56622731  0.26028495  0.81409179  1
  Zr  Zr252  1  0.31651438  0.51241744  0.90560218  1
  Zr  Zr253  1  0.81529417  0.51363520  0.90351905  1
  Zr  Zr254  1  0.80992448  0.00981326  0.90541655  1
  Zr  Zr255  1  0.32288164  0.00274414  0.90308550  1
  O  O256  1  0.84789452  0.94012667  0.02901771  1
  O  O257  1  0.66345659  0.08338207  0.03160211  1
  O  O258  1  0.16440979  0.44374839  0.03346216  1
  O  O259  1  0.34840870  0.57790186  0.03009945  1
  O  O260  1  0.35878636  0.96759376  0.05877820  1
  O  O261  1  0.14323398  0.06868475  0.06136920  1
  O  O262  1  0.65553717  0.46019973  0.05630683  1
  O  O263  1  0.86638749  0.56943197  0.06041757  1
  O  O264  1  0.47720486  0.16918089  0.06156899  1
  O  O265  1  0.03144742  0.87220414  0.07019163  1
  O  O266  1  0.98123789  0.35931596  0.06654417  1
  O  O267  1  0.52234903  0.67008086  0.06926921  1
  O  O268  1  0.77757167  0.25542105  0.07469123  1
  O  O269  1  0.71836798  0.81853814  0.08260378  1
  O  O270  1  0.29722529  0.31244668  0.08317854  1
  O  O271  1  0.22022591  0.71258761  0.08461928  1
  O  O272  1  0.93393751  0.05863558  0.09528314  1
  O  O273  1  0.56119016  0.98888023  0.09652017  1
  O  O274  1  0.06468875  0.54539613  0.09551814  1
  O  O275  1  0.44999178  0.48914212  0.09924476  1
  O  O276  1  0.11023431  0.23616990  0.11754914  1
  O  O277  1  0.40760800  0.80694071  0.11723984  1
  O  O278  1  0.59637580  0.30493319  0.11628806  1
  O  O279  1  0.91105344  0.72920286  0.11673694  1
  O  O280  1  0.32496302  0.12118151  0.12637885  1
  O  O281  1  0.19535967  0.91425384  0.12762259  1
  O  O282  1  0.81165295  0.42765696  0.12267149  1
  O  O283  1  0.69447004  0.62190841  0.12195526  1
  O  O284  1  0.20825738  0.41975222  0.14498199  1
  O  O285  1  0.30780939  0.61789491  0.14638532  1
  O  O286  1  0.71085218  0.12449679  0.13913080  1
  O  O287  1  0.80822618  0.91455223  0.14277913  1
  O  O288  1  0.41052064  0.30597998  0.15696129  1
  O  O289  1  0.10373766  0.73117550  0.15626955  1
  O  O290  1  0.90604276  0.24661577  0.15462839  1
  O  O291  1  0.60269388  0.80001554  0.15521880  1
  O  O292  1  0.95548780  0.54415549  0.16954674  1
  O  O293  1  0.56062287  0.49269271  0.17124707  1
  O  O294  1  0.05267444  0.05133001  0.16610409  1
  O  O295  1  0.46144852  0.99055648  0.16882931  1
  O  O296  1  0.71956647  0.32799395  0.18526416  1
  O  O297  1  0.79043818  0.70874612  0.18745861  1
  O  O298  1  0.22236990  0.21050309  0.18850732  1
  O  O299  1  0.29364132  0.82644027  0.18838569  1
  O  O300  1  0.04288109  0.37280449  0.20473694  1
  O  O301  1  0.47152769  0.66438972  0.20649677  1
  O  O302  1  0.54469425  0.16836474  0.20317710  1
  O  O303  1  0.97119823  0.87353807  0.20341344  1
  O  O304  1  0.35413115  0.46343603  0.21339574  1
  O  O305  1  0.16142347  0.57227689  0.21310164  1
  O  O306  1  0.66255147  0.96664350  0.20956086  1
  O  O307  1  0.85371319  0.07856388  0.20800370  1
  O  O308  1  0.85325401  0.46452366  0.23644159  1
  O  O309  1  0.65989309  0.57313232  0.23788924  1
  O  O310  1  0.16023219  0.97046212  0.23256740  1
  O  O311  1  0.35676870  0.07459279  0.23486607  1
  O  O312  1  0.97367751  0.66787963  0.24249271  1
  O  O313  1  0.54210638  0.37065829  0.24544507  1
  O  O314  1  0.47457614  0.87364605  0.24135082  1
  O  O315  1  0.04053154  0.16798903  0.24153696  1
  O  O316  1  0.29224070  0.71704000  0.25977656  1
  O  O317  1  0.21740316  0.32244465  0.26123436  1
  O  O318  1  0.78914992  0.82535211  0.25972555  1
  O  O319  1  0.72720040  0.21416250  0.26074320  1
  O  O320  1  0.45746847  0.54898763  0.27956859  1
  O  O321  1  0.05580386  0.49054490  0.27853809  1
  O  O322  1  0.56484612  0.04683585  0.27657603  1
  O  O323  1  0.95066937  0.99646059  0.27373524  1
  O  O324  1  0.60320730  0.73880061  0.29333536  1
  O  O325  1  0.91192031  0.30235641  0.29403026  1
  O  O326  1  0.10437390  0.81517616  0.29122677  1
  O  O327  1  0.40642855  0.23007349  0.29364134  1
  O  O328  1  0.81146074  0.62444967  0.30382293  1
  O  O329  1  0.70835220  0.41557665  0.30714355  1
  O  O330  1  0.31010256  0.92387404  0.30023856  1
  O  O331  1  0.20356067  0.11490800  0.30250584  1
  O  O332  1  0.70570560  0.92375510  0.32277074  1
  O  O333  1  0.82148689  0.11532349  0.32284854  1
  O  O334  1  0.19442756  0.62799480  0.32007602  1
  O  O335  1  0.31550389  0.41589628  0.32100138  1
  O  O336  1  0.91057451  0.81031160  0.33092933  1
  O  O337  1  0.60246933  0.23310472  0.33161894  1
  O  O338  1  0.40718515  0.73768539  0.33105263  1
  O  O339  1  0.09958757  0.29722074  0.33497231  1
  O  O340  1  0.45034201  0.04274095  0.34983428  1
  O  O341  1  0.04066408  0.00022049  0.35211114  1
  O  O342  1  0.56207332  0.55213689  0.35008367  1
  O  O343  1  0.94894827  0.49077934  0.34849545  1
  O  O344  1  0.21951718  0.83488525  0.36368056  1
  O  O345  1  0.29373274  0.21771858  0.36552400  1
  O  O346  1  0.72104886  0.71631370  0.36568271  1
  O  O347  1  0.79936728  0.28877249  0.36926608  1
  O  O348  1  0.54086574  0.86794184  0.37750458  1
  O  O349  1  0.91866295  0.13492871  0.41843703  1
  O  O350  1  0.03997183  0.67393150  0.38217339  1
  O  O351  1  0.47944748  0.37357136  0.38409867  1
  O  O352  1  0.84907592  0.95012716  0.39409900  1
  O  O353  1  0.66336439  0.08355971  0.38992310  1
  O  O354  1  0.15615422  0.47373837  0.38492896  1
  O  O355  1  0.36183426  0.57907152  0.38756831  1
  O  O356  1  0.36312177  0.95729975  0.42059405  1
  O  O357  1  0.14706911  0.09165701  0.41073519  1
  O  O358  1  0.66597547  0.47128496  0.41603620  1
  O  O359  1  0.85348623  0.57882693  0.41505663  1
  O  O360  1  0.45165501  0.04889689  0.98910650  1
  O  O361  1  0.07521770  0.95597751  0.99966341  1
  O  O362  1  0.56733833  0.57516650  0.99778549  1
  O  O363  1  0.92554110  0.44126189  0.00002771  1
  O  O364  1  0.25135288  0.78346808  0.00508508  1
  O  O365  1  0.27266254  0.19466841  0.01095154  1
  O  O366  1  0.74504865  0.71969471  0.01218950  1
  O  O367  1  0.53731010  0.86850256  0.02370304  1
  O  O368  1  0.96028295  0.16325003  0.02422827  1
  O  O369  1  0.03472793  0.65519994  0.01726091  1
  O  O370  1  0.45752245  0.38215675  0.02432600  1
  O  O371  1  0.46924433  0.15976518  0.41854068  1
  O  O372  1  0.03220124  0.87843540  0.43230416  1
  O  O373  1  0.97902486  0.37216065  0.42149981  1
  O  O374  1  0.53962424  0.67439294  0.42732703  1
  O  O375  1  0.68812178  0.20852026  0.46424196  1
  O  O376  1  0.75465438  0.74927704  0.44844666  1
  O  O377  1  0.27351297  0.34323776  0.43677758  1
  O  O378  1  0.24939522  0.74078932  0.44108055  1
  O  O379  1  0.59400604  0.95211133  0.44606730  1
  O  O380  1  0.07832391  0.56861867  0.44904753  1
  O  O381  1  0.45250674  0.48531564  0.45660091  1
  O  O382  1  0.47706457  0.58462669  0.52912283  1
  O  O383  1  0.66156894  0.44141178  0.53171834  1
  O  O384  1  0.16091053  0.08121562  0.53352955  1
  O  O385  1  0.97669213  0.94712082  0.52990203  1
  O  O386  1  0.96645353  0.55764249  0.55880929  1
  O  O387  1  0.18122815  0.45654813  0.56144604  1
  O  O388  1  0.66927407  0.06466772  0.55631433  1
  O  O389  1  0.45880164  0.95489914  0.56038501  1
  O  O390  1  0.84771595  0.35596403  0.56179497  1
  O  O391  1  0.29371481  0.65256342  0.57044068  1
  O  O392  1  0.34407257  0.16517696  0.56680224  1
  O  O393  1  0.80303969  0.85518450  0.56929208  1
  O  O394  1  0.54685731  0.26929662  0.57477354  1
  O  O395  1  0.60659348  0.70604052  0.58260419  1
  O  O396  1  0.02795480  0.21313786  0.58306863  1
  O  O397  1  0.10473180  0.81227071  0.58462366  1
  O  O398  1  0.39057532  0.46622732  0.59550517  1
  O  O399  1  0.76378954  0.53553484  0.59663554  1
  O  O400  1  0.26074404  0.97907711  0.59555411  1
  O  O401  1  0.87526428  0.03570525  0.59924935  1
  O  O402  1  0.21491787  0.28856498  0.61749135  1
  O  O403  1  0.91767745  0.71748585  0.61722787  1
  O  O404  1  0.72862603  0.21961373  0.61597747  1
  O  O405  1  0.41416574  0.79547610  0.61681129  1
  O  O406  1  0.00036658  0.40399393  0.62637135  1
  O  O407  1  0.12960955  0.61018425  0.62776364  1
  O  O408  1  0.51342556  0.09671504  0.62278320  1
  O  O409  1  0.63066830  0.90276457  0.62201732  1
  O  O410  1  0.11630207  0.10522883  0.64479467  1
  O  O411  1  0.01753470  0.90659023  0.64641990  1
  O  O412  1  0.61467375  0.39982701  0.63907808  1
  O  O413  1  0.51699297  0.61015435  0.64279216  1
  O  O414  1  0.91442850  0.21926384  0.65702941  1
  O  O415  1  0.22152452  0.79303456  0.65635897  1
  O  O416  1  0.41909512  0.27795889  0.65464711  1
  O  O417  1  0.72265453  0.72513492  0.65522718  1
  O  O418  1  0.36971101  0.98042780  0.66975537  1
  O  O419  1  0.76439804  0.03167023  0.67137910  1
  O  O420  1  0.27257648  0.47315743  0.66624953  1
  O  O421  1  0.86399538  0.53403304  0.66885521  1
  O  O422  1  0.60592287  0.19671969  0.68530828  1
  O  O423  1  0.53456829  0.81556932  0.68750274  1
  O  O424  1  0.10275719  0.31410945  0.68848371  1
  O  O425  1  0.03149188  0.69850604  0.68853093  1
  O  O426  1  0.28167584  0.15198191  0.70478389  1
  O  O427  1  0.85356785  0.86074086  0.70665380  1
  O  O428  1  0.78029274  0.35704609  0.70331290  1
  O  O429  1  0.35393436  0.65111482  0.70354431  1
  O  O430  1  0.97085772  0.06150801  0.71353079  1
  O  O431  1  0.16353577  0.95241921  0.71317739  1
  O  O432  1  0.66280852  0.55886738  0.70947332  1
  O  O433  1  0.47138471  0.44633091  0.70801538  1
  O  O434  1  0.47151142  0.06056137  0.73668062  1
  O  O435  1  0.66487158  0.95195547  0.73800362  1
  O  O436  1  0.16501734  0.55429564  0.73274710  1
  O  O437  1  0.96854193  0.45062104  0.73494307  1
  O  O438  1  0.35134569  0.85711591  0.74263943  1
  O  O439  1  0.78302703  0.15438316  0.74567988  1
  O  O440  1  0.85062398  0.65166937  0.74135979  1
  O  O441  1  0.28434304  0.35669502  0.74173433  1
  O  O442  1  0.03293130  0.80816043  0.75995718  1
  O  O443  1  0.10741112  0.20333510  0.76141899  1
  O  O444  1  0.53553718  0.69921799  0.75985746  1
  O  O445  1  0.59693893  0.31087468  0.76074357  1
  O  O446  1  0.86759678  0.97550235  0.77969152  1
  O  O447  1  0.26873171  0.03474876  0.77862864  1
  O  O448  1  0.75965514  0.47900868  0.77649200  1
  O  O449  1  0.37453633  0.52819368  0.77384631  1
  O  O450  1  0.72177599  0.78553854  0.79342672  1
  O  O451  1  0.41289757  0.22294132  0.79419343  1
  O  O452  1  0.22079982  0.70986961  0.79126757  1
  O  O453  1  0.91875958  0.29602026  0.79388675  1
  O  O454  1  0.51392458  0.90042047  0.80392884  1
  O  O455  1  0.61670432  0.10975851  0.80733145  1
  O  O456  1  0.01508294  0.60105363  0.80017035  1
  O  O457  1  0.12207309  0.41035174  0.80278038  1
  O  O458  1  0.61894059  0.60060091  0.82296599  1
  O  O459  1  0.50493505  0.41015408  0.82309899  1
  O  O460  1  0.13057949  0.89692788  0.82024927  1
  O  O461  1  0.00914198  0.10939771  0.82108295  1
  O  O462  1  0.41459741  0.71445306  0.83091422  1
  O  O463  1  0.72216796  0.29291525  0.83174824  1
  O  O464  1  0.91770350  0.78690755  0.83114512  1
  O  O465  1  0.22527026  0.22770482  0.83515773  1
  O  O466  1  0.87620233  0.48352397  0.85015621  1
  O  O467  1  0.28470326  0.52480189  0.85235689  1
  O  O468  1  0.76253570  0.97314484  0.85009719  1
  O  O469  1  0.37601943  0.03423534  0.84849926  1
  O  O470  1  0.10527087  0.69019946  0.86378351  1
  O  O471  1  0.03128916  0.30803270  0.86568596  1
  O  O472  1  0.60382174  0.80827939  0.86573699  1
  O  O473  1  0.52544524  0.23613645  0.86932622  1
  O  O474  1  0.78279114  0.65718979  0.87768733  1
  O  O475  1  0.40619639  0.39011267  0.91859958  1
  O  O476  1  0.28524312  0.85058514  0.88223285  1
  O  O477  1  0.84418025  0.15244478  0.88430710  1
  O  O478  1  0.47589621  0.57501651  0.89434306  1
  O  O479  1  0.66120227  0.44179958  0.89024157  1
  O  O480  1  0.16884079  0.05018409  0.88490346  1
  O  O481  1  0.96251332  0.94606611  0.88743799  1
  O  O482  1  0.96143135  0.56885114  0.92082921  1
  O  O483  1  0.17786612  0.43376527  0.91104783  1
  O  O484  1  0.65867906  0.05292170  0.91621218  1
  O  O485  1  0.47106477  0.94614629  0.91526348  1
  O  O486  1  0.87319767  0.47718832  0.48915619  1
  O  O487  1  0.25015653  0.56980868  0.49974260  1
  O  O488  1  0.75715710  0.95015192  0.49778239  1
  O  O489  1  0.40034510  0.08429349  0.50023863  1
  O  O490  1  0.07335990  0.74194216  0.50487619  1
  O  O491  1  0.05249968  0.33123650  0.51083977  1
  O  O492  1  0.57972360  0.80453898  0.51199869  1
  O  O493  1  0.78703753  0.65647000  0.52420433  1
  O  O494  1  0.36370219  0.36137900  0.52457377  1
  O  O495  1  0.29019420  0.87013407  0.51708681  1
  O  O496  1  0.86747818  0.14337334  0.52479765  1
  O  O497  1  0.85589399  0.36598083  0.91867010  1
  O  O498  1  0.29276641  0.64705687  0.93260292  1
  O  O499  1  0.34521169  0.15290530  0.92171375  1
  O  O500  1  0.78545222  0.85073238  0.92734107  1
  O  O501  1  0.63822901  0.31691782  0.96506013  1
  O  O502  1  0.57104605  0.77571014  0.94828043  1
  O  O503  1  0.05134339  0.18155549  0.93662521  1
  O  O504  1  0.07529571  0.78562152  0.94114968  1
  O  O505  1  0.73073313  0.57319733  0.94622760  1
  O  O506  1  0.24712451  0.95596165  0.94916004  1
  O  O507  1  0.87250791  0.03947213  0.95654257  1
