# generated using pymatgen
data_Li7La3Zr2O12
_symmetry_space_group_name_H-M   'P 1'
_cell_length_a   11.29297700
_cell_length_b   11.29297344
_cell_length_c   56.36624325
_cell_angle_alpha   90.00000000
_cell_angle_beta   90.00000000
_cell_angle_gamma   108.44555555
_symmetry_Int_Tables_number   1
_chemical_formula_structural   Li7La3Zr2O12
_chemical_formula_sum   'Li168 La72 Zr48 O288'
_cell_volume   6819.15069545
_cell_formula_units_Z   24
loop_
 _symmetry_equiv_pos_site_id
 _symmetry_equiv_pos_as_xyz
  1  'x, y, z'
loop_
 _atom_site_type_symbol
 _atom_site_label
 _atom_site_symmetry_multiplicity
 _atom_site_fract_x
 _atom_site_fract_y
 _atom_site_fract_z
 _atom_site_occupancy
  Li  Li0  1  0.99910612  0.42050673  0.99088165  1
  Li  Li1  1  0.10255252  0.00212306  0.99726017  1
  Li  Li2  1  0.89271469  0.08089104  0.99225077  1
  Li  Li3  1  0.87119498  0.55055917  0.99983620  1
  Li  Li4  1  0.99143110  0.78644251  0.01650297  1
  Li  Li5  1  0.68864725  0.99271915  0.01809103  1
  Li  Li6  1  0.27673510  0.52983096  0.02023256  1
  Li  Li7  1  0.13343506  0.97007212  0.04401108  1
  Li  Li8  1  0.81120401  0.53954208  0.04113244  1
  Li  Li9  1  0.43561784  0.69711043  0.05109848  1
  Li  Li10  1  0.53673763  0.95836625  0.05219337  1
  Li  Li11  1  0.59158152  0.55438303  0.06541611  1
  Li  Li12  1  0.33713900  0.96422449  0.06637936  1
  Li  Li13  1  0.32967361  0.47623470  0.06322444  1
  Li  Li14  1  0.69504302  0.12978849  0.07590347  1
  Li  Li15  1  0.19103766  0.13719932  0.07492686  1
  Li  Li16  1  0.74550471  0.38005806  0.07535229  1
  Li  Li17  1  0.15187637  0.32979786  0.09036855  1
  Li  Li18  1  0.90836615  0.24301861  0.09350127  1
  Li  Li19  1  0.74260985  0.57604035  0.09671030  1
  Li  Li20  1  0.18303319  0.94233096  0.10034567  1
  Li  Li21  1  0.74362438  0.09543637  0.12261828  1
  Li  Li22  1  0.17711792  0.45909224  0.12931773  1
  Li  Li23  1  0.01159977  0.80066482  0.13000139  1
  Li  Li24  1  0.77162489  0.70778313  0.13209659  1
  Li  Li25  1  0.15316808  0.67586921  0.14232608  1
  Li  Li26  1  0.23678522  0.91470584  0.14720745  1
  Li  Li27  1  0.73711357  0.90350355  0.14720764  1
  Li  Li28  1  0.58541849  0.04789349  0.15672885  1
  Li  Li29  1  0.59616092  0.54936953  0.15471973  1
  Li  Li30  1  0.35707397  0.47582964  0.16001722  1
  Li  Li31  1  0.38875664  0.08515394  0.17214953  1
  Li  Li32  1  0.47644243  0.32095996  0.17374531  1
  Li  Li33  1  0.14527535  0.49789892  0.17496383  1
  Li  Li34  1  0.77552988  0.05609088  0.18207901  1
  Li  Li35  1  0.61007523  0.50554116  0.19839417  1
  Li  Li36  1  0.25906880  0.06035911  0.20959869  1
  Li  Li37  1  0.91979826  0.22250119  0.21088587  1
  Li  Li38  1  0.00810796  0.46669362  0.21287914  1
  Li  Li39  1  0.04970645  0.07177431  0.22576622  1
  Li  Li40  1  0.80341620  0.50277446  0.22824534  1
  Li  Li41  1  0.80510601  0.00236380  0.22848499  1
  Li  Li42  1  0.16497992  0.64197141  0.23777758  1
  Li  Li43  1  0.66414256  0.64012965  0.23763954  1
  Li  Li44  1  0.23896454  0.88731738  0.24060777  1
  Li  Li45  1  0.62845623  0.84706163  0.25311843  1
  Li  Li46  1  0.38419448  0.75629736  0.25498612  1
  Li  Li47  1  0.22351213  0.09763598  0.25641083  1
  Li  Li48  1  0.66776542  0.44583093  0.26767925  1
  Li  Li49  1  0.21842207  0.60688682  0.28508181  1
  Li  Li50  1  0.66375197  0.98654341  0.29101488  1
  Li  Li51  1  0.48999509  0.31716770  0.29246360  1
  Li  Li52  1  0.25056935  0.22808982  0.29420311  1
  Li  Li53  1  0.64392541  0.19534438  0.30726852  1
  Li  Li54  1  0.71270876  0.43650528  0.31155856  1
  Li  Li55  1  0.20987141  0.41951033  0.31017015  1
  Li  Li56  1  0.06396773  0.57486129  0.31931943  1
  Li  Li57  1  0.07922879  0.07832652  0.31807445  1
  Li  Li58  1  0.83948033  0.99069523  0.32398228  1
  Li  Li59  1  0.87077618  0.60984619  0.33334509  1
  Li  Li60  1  0.96162972  0.85006061  0.33533428  1
  Li  Li61  1  0.61924929  0.01336281  0.33704056  1
  Li  Li62  1  0.25838678  0.58707876  0.34240111  1
  Li  Li63  1  0.09733648  0.02584468  0.36363360  1
  Li  Li64  1  0.74591560  0.58032782  0.36877877  1
  Li  Li65  1  0.41488976  0.78139273  0.36634082  1
  Li  Li66  1  0.47933359  0.00005710  0.37627666  1
  Li  Li67  1  0.57639432  0.56743463  0.39403341  1
  Li  Li68  1  0.26120580  0.02395115  0.39613689  1
  Li  Li69  1  0.32305977  0.55846591  0.38824578  1
  Li  Li70  1  0.64929964  0.17929195  0.40477117  1
  Li  Li71  1  0.10999543  0.17038886  0.40228243  1
  Li  Li72  1  0.73671800  0.42896757  0.40405064  1
  Li  Li73  1  0.11755921  0.37173627  0.41460831  1
  Li  Li74  1  0.87389624  0.27948176  0.42025231  1
  Li  Li75  1  0.69171124  0.66918589  0.43796644  1
  Li  Li76  1  0.13386600  0.92407587  0.44039001  1
  Li  Li77  1  0.68366125  0.11195903  0.44588158  1
  Li  Li78  1  0.12961146  0.49140768  0.45237951  1
  Li  Li79  1  0.91009694  0.80522635  0.45069644  1
  Li  Li80  1  0.69539912  0.66580041  0.48034598  1
  Li  Li81  1  0.17439350  0.68967369  0.47318885  1
  Li  Li82  1  0.25380018  0.91828205  0.48312756  1
  Li  Li83  1  0.69854131  0.91569759  0.46474552  1
  Li  Li84  1  0.90122277  0.63042798  0.49087016  1
  Li  Li85  1  0.79813780  0.04969854  0.49739473  1
  Li  Li86  1  0.00509871  0.96783812  0.49235950  1
  Li  Li87  1  0.02813086  0.50169343  0.49998116  1
  Li  Li88  1  0.90859652  0.26563915  0.51664569  1
  Li  Li89  1  0.20996089  0.05941113  0.51823579  1
  Li  Li90  1  0.62182163  0.52040228  0.52017824  1
  Li  Li91  1  0.76614188  0.08219054  0.54386933  1
  Li  Li92  1  0.08789414  0.51100634  0.54151938  1
  Li  Li93  1  0.46360026  0.35380338  0.55111250  1
  Li  Li94  1  0.36287840  0.09235553  0.55231011  1
  Li  Li95  1  0.30905311  0.49482775  0.56562860  1
  Li  Li96  1  0.56335234  0.08541294  0.56645326  1
  Li  Li97  1  0.57071713  0.57443827  0.56336421  1
  Li  Li98  1  0.20398187  0.92078486  0.57632640  1
  Li  Li99  1  0.70980036  0.91249666  0.57443760  1
  Li  Li100  1  0.15489542  0.67156756  0.57570718  1
  Li  Li101  1  0.74728641  0.72137770  0.59057730  1
  Li  Li102  1  0.98981081  0.80833087  0.59383438  1
  Li  Li103  1  0.15779561  0.47485265  0.59674365  1
  Li  Li104  1  0.71874050  0.10597400  0.60050756  1
  Li  Li105  1  0.15558592  0.95480460  0.62327363  1
  Li  Li106  1  0.72247797  0.59065694  0.62963977  1
  Li  Li107  1  0.88978514  0.24969659  0.63022553  1
  Li  Li108  1  0.12824899  0.34193796  0.63206172  1
  Li  Li109  1  0.74810796  0.37355029  0.64215893  1
  Li  Li110  1  0.66364104  0.13698958  0.64726272  1
  Li  Li111  1  0.16390636  0.14632636  0.64759290  1
  Li  Li112  1  0.31671071  0.00233813  0.65677902  1
  Li  Li113  1  0.30106993  0.49733708  0.65462858  1
  Li  Li114  1  0.54144736  0.57360768  0.66041609  1
  Li  Li115  1  0.51136815  0.96467943  0.67219233  1
  Li  Li116  1  0.42158132  0.72734631  0.67384616  1
  Li  Li117  1  0.75362588  0.55064563  0.67499992  1
  Li  Li118  1  0.12658225  0.99275009  0.68162538  1
  Li  Li119  1  0.28889495  0.54222397  0.69817168  1
  Li  Li120  1  0.64076753  0.99025336  0.70970768  1
  Li  Li121  1  0.97943778  0.82697320  0.71086248  1
  Li  Li122  1  0.88942885  0.58268617  0.71279792  1
  Li  Li123  1  0.84968993  0.97748254  0.72604951  1
  Li  Li124  1  0.09461744  0.54684522  0.72813891  1
  Li  Li125  1  0.09381567  0.04646625  0.72820246  1
  Li  Li126  1  0.73443599  0.40788209  0.73823809  1
  Li  Li127  1  0.23534008  0.40755853  0.73755251  1
  Li  Li128  1  0.65911330  0.16383638  0.74102157  1
  Li  Li129  1  0.27023012  0.20106377  0.75317162  1
  Li  Li130  1  0.51549142  0.29435667  0.75525190  1
  Li  Li131  1  0.67577177  0.95085440  0.75628174  1
  Li  Li132  1  0.23275184  0.60087295  0.76716864  1
  Li  Li133  1  0.68152548  0.44382305  0.78541188  1
  Li  Li134  1  0.23718319  0.06290359  0.79125697  1
  Li  Li135  1  0.41135601  0.73389968  0.79217669  1
  Li  Li136  1  0.65043213  0.82113571  0.79445095  1
  Li  Li137  1  0.25659198  0.85389895  0.80747048  1
  Li  Li138  1  0.18734371  0.61274769  0.81136376  1
  Li  Li139  1  0.69183991  0.63075045  0.81027918  1
  Li  Li140  1  0.83705170  0.47533127  0.81958717  1
  Li  Li141  1  0.82161497  0.97143249  0.81824576  1
  Li  Li142  1  0.06132618  0.06071718  0.82392429  1
  Li  Li143  1  0.03017685  0.44044587  0.83345932  1
  Li  Li144  1  0.93876568  0.20178369  0.83533375  1
  Li  Li145  1  0.28061261  0.03591684  0.83719257  1
  Li  Li146  1  0.64172496  0.46198243  0.84228858  1
  Li  Li147  1  0.80805578  0.02077093  0.86264515  1
  Li  Li148  1  0.15423090  0.46980266  0.86885197  1
  Li  Li149  1  0.48326483  0.26584453  0.86642567  1
  Li  Li150  1  0.42143429  0.04868863  0.87641114  1
  Li  Li151  1  0.32207492  0.48197965  0.89421572  1
  Li  Li152  1  0.64360461  0.02624584  0.89643888  1
  Li  Li153  1  0.57260791  0.48756354  0.88753401  1
  Li  Li154  1  0.25163123  0.86994136  0.90481693  1
  Li  Li155  1  0.79103598  0.87905798  0.90223499  1
  Li  Li156  1  0.16451989  0.62011132  0.90410179  1
  Li  Li157  1  0.78217041  0.67715318  0.91439135  1
  Li  Li158  1  0.02715911  0.76972993  0.92012757  1
  Li  Li159  1  0.20836443  0.37913303  0.93829181  1
  Li  Li160  1  0.76616647  0.12607218  0.94063090  1
  Li  Li161  1  0.21687620  0.93756352  0.94599964  1
  Li  Li162  1  0.77273474  0.56079937  0.95231592  1
  Li  Li163  1  0.99008311  0.24373803  0.95086448  1
  Li  Li164  1  0.20442857  0.38343466  0.98059255  1
  Li  Li165  1  0.72486738  0.36272528  0.97273207  1
  Li  Li166  1  0.64614701  0.13355758  0.98320255  1
  Li  Li167  1  0.20063178  0.13411647  0.96464704  1
  La  La168  1  0.48208143  0.79103143  0.99897664  1
  La  La169  1  0.38602191  0.05993702  0.01420391  1
  La  La170  1  0.56254779  0.47931010  0.01274369  1
  La  La171  1  0.91562180  0.07644360  0.05045605  1
  La  La172  1  0.02699205  0.44568870  0.04961088  1
  La  La173  1  0.46388125  0.26249527  0.06938604  1
  La  La174  1  0.96388570  0.76251110  0.07339692  1
  La  La175  1  0.65232805  0.83076718  0.09179330  1
  La  La176  1  0.26838542  0.69571085  0.09222534  1
  La  La177  1  0.64619462  0.32630109  0.13047763  1
  La  La178  1  0.27056655  0.20602837  0.13145975  1
  La  La179  1  0.45120730  0.76677348  0.15171031  1
  La  La180  1  0.95331282  0.27127028  0.15283770  1
  La  La181  1  0.88865630  0.58607964  0.17232236  1
  La  La182  1  0.01416993  0.96511417  0.17313131  1
  La  La183  1  0.38475087  0.59033552  0.21214269  1
  La  La184  1  0.51076885  0.96709193  0.21258820  1
  La  La185  1  0.94718432  0.78353303  0.23276570  1
  La  La186  1  0.45020069  0.28757103  0.23267732  1
  La  La187  1  0.12964287  0.34696964  0.25322019  1
  La  La188  1  0.75390617  0.22383646  0.25378092  1
  La  La189  1  0.12748572  0.85154059  0.29233889  1
  La  La190  1  0.74869684  0.72594772  0.29279086  1
  La  La191  1  0.93040982  0.28881283  0.31459978  1
  La  La192  1  0.43521105  0.79146762  0.31148100  1
  La  La193  1  0.37017683  0.10807173  0.33378231  1
  La  La194  1  0.48686468  0.48367528  0.33599204  1
  La  La195  1  0.85942811  0.11174584  0.37470993  1
  La  La196  1  0.98825787  0.48722951  0.37507496  1
  La  La197  1  0.42167794  0.29585222  0.39669812  1
  La  La198  1  0.92635980  0.80238222  0.39312336  1
  La  La199  1  0.60571871  0.86750699  0.41056202  1
  La  La200  1  0.23058037  0.74641083  0.41362065  1
  La  La201  1  0.64140872  0.39829424  0.45627703  1
  La  La202  1  0.19108482  0.20547729  0.45549750  1
  La  La203  1  0.44301593  0.77191050  0.46798449  1
  La  La204  1  0.41740378  0.26012302  0.49906951  1
  La  La205  1  0.51334179  0.99117393  0.51426523  1
  La  La206  1  0.33624550  0.57209840  0.51294784  1
  La  La207  1  0.98384909  0.97445282  0.55053455  1
  La  La208  1  0.87249053  0.60542003  0.54968482  1
  La  La209  1  0.43613035  0.78792100  0.56945170  1
  La  La210  1  0.93586627  0.28799305  0.57357556  1
  La  La211  1  0.24743352  0.21918298  0.59195094  1
  La  La212  1  0.63134103  0.35419244  0.59226932  1
  La  La213  1  0.25375778  0.72359577  0.63056504  1
  La  La214  1  0.62910429  0.84407104  0.63155404  1
  La  La215  1  0.44900118  0.28335900  0.65178495  1
  La  La216  1  0.94604418  0.77826866  0.65298869  1
  La  La217  1  0.01091890  0.46364321  0.67239169  1
  La  La218  1  0.88532903  0.08426740  0.67328446  1
  La  La219  1  0.51476071  0.45928205  0.71230178  1
  La  La220  1  0.38893781  0.08269185  0.71269101  1
  La  La221  1  0.95225698  0.26585996  0.73286029  1
  La  La222  1  0.44915440  0.76207979  0.73260629  1
  La  La223  1  0.77035900  0.70264456  0.75331429  1
  La  La224  1  0.14622792  0.82578214  0.75386751  1
  La  La225  1  0.77264445  0.19788351  0.79244686  1
  La  La226  1  0.15147173  0.32367118  0.79280492  1
  La  La227  1  0.97016099  0.76127467  0.81464776  1
  La  La228  1  0.46511268  0.25804478  0.81156245  1
  La  La229  1  0.53047587  0.94145611  0.83383640  1
  La  La230  1  0.41349058  0.56620321  0.83598113  1
  La  La231  1  0.04186024  0.93783074  0.87476785  1
  La  La232  1  0.91226669  0.56234415  0.87517269  1
  La  La233  1  0.47897061  0.75439645  0.89672632  1
  La  La234  1  0.97345642  0.24703030  0.89319245  1
  La  La235  1  0.29440467  0.18182522  0.91058069  1
  La  La236  1  0.66955424  0.30448746  0.91370647  1
  La  La237  1  0.25910398  0.65070128  0.95633120  1
  La  La238  1  0.70916985  0.84440988  0.95550706  1
  La  La239  1  0.45632699  0.27860678  0.96794312  1
  Zr  Zr240  1  0.72149267  0.26562236  0.02828562  1
  Zr  Zr241  1  0.19913942  0.25258630  0.02592139  1
  Zr  Zr242  1  0.73507700  0.77423228  0.03153514  1
  Zr  Zr243  1  0.20800271  0.74984775  0.03091644  1
  Zr  Zr244  1  0.96433778  0.02257908  0.11173326  1
  Zr  Zr245  1  0.95758440  0.51280771  0.11186646  1
  Zr  Zr246  1  0.46074077  0.01614034  0.11117462  1
  Zr  Zr247  1  0.45951201  0.51388832  0.11029306  1
  Zr  Zr248  1  0.20030452  0.77747500  0.19237321  1
  Zr  Zr249  1  0.69973946  0.77677304  0.19249947  1
  Zr  Zr250  1  0.20079498  0.27786732  0.19251405  1
  Zr  Zr251  1  0.69872749  0.27622728  0.19239565  1
  Zr  Zr252  1  0.43732327  0.53384347  0.27343692  1
  Zr  Zr253  1  0.44299632  0.04226437  0.27320291  1
  Zr  Zr254  1  0.93898220  0.53671997  0.27364058  1
  Zr  Zr255  1  0.94060876  0.03831533  0.27370186  1
  Zr  Zr256  1  0.67715848  0.30088314  0.35640507  1
  Zr  Zr257  1  0.17745128  0.29890826  0.35650515  1
  Zr  Zr258  1  0.67614165  0.79257229  0.35266071  1
  Zr  Zr259  1  0.18247111  0.80345835  0.35338696  1
  Zr  Zr260  1  0.89944413  0.04520519  0.43691897  1
  Zr  Zr261  1  0.93678640  0.57041560  0.43696182  1
  Zr  Zr262  1  0.41733797  0.03414208  0.44088504  1
  Zr  Zr263  1  0.40607573  0.51046394  0.44065341  1
  Zr  Zr264  1  0.17814050  0.78605508  0.52848625  1
  Zr  Zr265  1  0.70009966  0.79817805  0.52582703  1
  Zr  Zr266  1  0.16444088  0.27716906  0.53168592  1
  Zr  Zr267  1  0.69166964  0.30143411  0.53092932  1
  Zr  Zr268  1  0.93601779  0.02773696  0.61192508  1
  Zr  Zr269  1  0.94234841  0.53772199  0.61188958  1
  Zr  Zr270  1  0.43941613  0.03391583  0.61122172  1
  Zr  Zr271  1  0.44067175  0.53634517  0.61048319  1
  Zr  Zr272  1  0.69948117  0.27243096  0.69251686  1
  Zr  Zr273  1  0.19965001  0.27262517  0.69256854  1
  Zr  Zr274  1  0.69841853  0.77177051  0.69257313  1
  Zr  Zr275  1  0.20070113  0.77333341  0.69248742  1
  Zr  Zr276  1  0.46273536  0.51617157  0.77356210  1
  Zr  Zr277  1  0.45718764  0.00727041  0.77323592  1
  Zr  Zr278  1  0.96110343  0.51289036  0.77371406  1
  Zr  Zr279  1  0.95968273  0.01138335  0.77376630  1
  Zr  Zr280  1  0.22325964  0.74831406  0.85640823  1
  Zr  Zr281  1  0.72278903  0.75027665  0.85665523  1
  Zr  Zr282  1  0.22406315  0.25728740  0.85271864  1
  Zr  Zr283  1  0.71753630  0.24595320  0.85354302  1
  Zr  Zr284  1  0.00086654  0.00371606  0.93694842  1
  Zr  Zr285  1  0.96399748  0.47918365  0.93700919  1
  Zr  Zr286  1  0.48297035  0.01643978  0.94092081  1
  Zr  Zr287  1  0.49477477  0.54003321  0.94053078  1
  O  O288  1  0.70882922  0.86246916  0.99938132  1
  O  O289  1  0.26672938  0.67223143  0.00001227  1
  O  O290  1  0.59684858  0.27681586  0.99972931  1
  O  O291  1  0.28444926  0.19959954  0.99536662  1
  O  O292  1  0.17216123  0.89754416  0.01477142  1
  O  O293  1  0.76524654  0.62646003  0.01427381  1
  O  O294  1  0.77501820  0.14415015  0.00831962  1
  O  O295  1  0.13927520  0.39133538  0.01181347  1
  O  O296  1  0.87145561  0.41586573  0.01929384  1
  O  O297  1  0.03896430  0.11018670  0.01609104  1
  O  O298  1  0.53997786  0.66461433  0.02793638  1
  O  O299  1  0.40023804  0.87087351  0.03217542  1
  O  O300  1  0.02195763  0.65454803  0.03443133  1
  O  O301  1  0.92011254  0.86832639  0.03790066  1
  O  O302  1  0.37491511  0.39318571  0.03604987  1
  O  O303  1  0.55462779  0.13080447  0.04370838  1
  O  O304  1  0.64548894  0.40541452  0.04585811  1
  O  O305  1  0.28010069  0.12400175  0.04553934  1
  O  O306  1  0.69328360  0.92669680  0.04887878  1
  O  O307  1  0.25027052  0.60287080  0.05016723  1
  O  O308  1  0.10436702  0.26345084  0.05792060  1
  O  O309  1  0.82576368  0.25807756  0.05947804  1
  O  O310  1  0.19011846  0.82949321  0.06538394  1
  O  O311  1  0.73405598  0.69659675  0.06625615  1
  O  O312  1  0.87999875  0.53061068  0.07839407  1
  O  O313  1  0.04582188  0.99804661  0.07891559  1
  O  O314  1  0.45932228  0.62081515  0.08020337  1
  O  O315  1  0.46838111  0.89936283  0.08233467  1
  O  O316  1  0.81826674  0.06016527  0.09304461  1
  O  O317  1  0.10307571  0.47449410  0.09389621  1
  O  O318  1  0.32609656  0.08249076  0.09443498  1
  O  O319  1  0.59459448  0.44162728  0.09459660  1
  O  O320  1  0.32759715  0.35455376  0.09443300  1
  O  O321  1  0.59410107  0.17861116  0.09754398  1
  O  O322  1  0.07008545  0.70196294  0.10925550  1
  O  O323  1  0.86331932  0.82974944  0.10949258  1
  O  O324  1  0.06822662  0.21257550  0.11474562  1
  O  O325  1  0.85062013  0.32391738  0.11728903  1
  O  O326  1  0.32434389  0.85202380  0.12468146  1
  O  O327  1  0.59648088  0.67242892  0.12492599  1
  O  O328  1  0.59898508  0.94963146  0.12742094  1
  O  O329  1  0.33002183  0.58752602  0.12686928  1
  O  O330  1  0.80892668  0.55324497  0.12978924  1
  O  O331  1  0.11165617  0.98398392  0.13049777  1
  O  O332  1  0.45389306  0.12821555  0.14073595  1
  O  O333  1  0.45913639  0.40165099  0.14088116  1
  O  O334  1  0.88163421  0.04405469  0.14469156  1
  O  O335  1  0.03833394  0.50689850  0.14599336  1
  O  O336  1  0.19035819  0.35744851  0.15873322  1
  O  O337  1  0.72414801  0.19248259  0.15984143  1
  O  O338  1  0.08977985  0.78074844  0.16213727  1
  O  O339  1  0.81484062  0.77252920  0.16315758  1
  O  O340  1  0.66132172  0.42062486  0.17273458  1
  O  O341  1  0.23981484  0.13071662  0.17423849  1
  O  O342  1  0.27773263  0.64702882  0.17695737  1
  O  O343  1  0.63211296  0.91197925  0.17626442  1
  O  O344  1  0.36027038  0.91183904  0.17817119  1
  O  O345  1  0.54041926  0.63508709  0.17912243  1
  O  O346  1  0.01143436  0.16757670  0.18822797  1
  O  O347  1  0.89011187  0.37887036  0.18930089  1
  O  O348  1  0.50728365  0.17415908  0.19548040  1
  O  O349  1  0.39096357  0.38798633  0.19613317  1
  O  O350  1  0.86294287  0.91228180  0.20585487  1
  O  O351  1  0.04032212  0.64241443  0.20661109  1
  O  O352  1  0.12639966  0.90929658  0.20856560  1
  O  O353  1  0.76450611  0.63722887  0.20833153  1
  O  O354  1  0.16164138  0.42497975  0.21067810  1
  O  O355  1  0.73623384  0.12834114  0.21149652  1
  O  O356  1  0.58480988  0.78362808  0.22161924  1
  O  O357  1  0.30962738  0.77649809  0.22311927  1
  O  O358  1  0.67488334  0.35242938  0.22564150  1
  O  O359  1  0.21171098  0.19895841  0.22629702  1
  O  O360  1  0.36262515  0.05086841  0.23954548  1
  O  O361  1  0.51328968  0.51161934  0.24004208  1
  O  O362  1  0.94039717  0.14754176  0.24296908  1
  O  O363  1  0.94540146  0.42198324  0.24451215  1
  O  O364  1  0.28859354  0.57177755  0.25473087  1
  O  O365  1  0.58993204  0.00181144  0.25548105  1
  O  O366  1  0.79887073  0.60132111  0.25773472  1
  O  O367  1  0.07219427  0.96437894  0.25739448  1
  O  O368  1  0.80435813  0.87892556  0.25949472  1
  O  O369  1  0.07390591  0.69984439  0.26010979  1
  O  O370  1  0.55151010  0.23190497  0.26927746  1
  O  O371  1  0.33624071  0.34345306  0.27040141  1
  O  O372  1  0.53863152  0.72660860  0.27620901  1
  O  O373  1  0.33077021  0.85256203  0.27698364  1
  O  O374  1  0.79757618  0.37836599  0.28727590  1
  O  O375  1  0.07587375  0.19700451  0.28832818  1
  O  O376  1  0.07191820  0.46757829  0.29042993  1
  O  O377  1  0.81206315  0.11810393  0.28925813  1
  O  O378  1  0.29560210  0.07960190  0.29193199  1
  O  O379  1  0.58275911  0.49925768  0.29315143  1
  O  O380  1  0.93438179  0.65362419  0.30256837  1
  O  O381  1  0.94392672  0.92773592  0.30371314  1
  O  O382  1  0.35288430  0.55883152  0.30590587  1
  O  O383  1  0.52161869  0.03092034  0.30702597  1
  O  O384  1  0.66978199  0.87584744  0.31892213  1
  O  O385  1  0.20710780  0.71786870  0.32060365  1
  O  O386  1  0.56544092  0.29976712  0.32545114  1
  O  O387  1  0.28923374  0.28961821  0.32662950  1
  O  O388  1  0.14633379  0.95134881  0.33506793  1
  O  O389  1  0.71446588  0.64390106  0.33570610  1
  O  O390  1  0.74791568  0.16947709  0.33935903  1
  O  O391  1  0.11458297  0.43718001  0.33970148  1
  O  O392  1  0.83562540  0.43657947  0.34149021  1
  O  O393  1  0.01790327  0.16124239  0.34208373  1
  O  O394  1  0.48355545  0.68872841  0.34719056  1
  O  O395  1  0.37451003  0.91079902  0.34963585  1
  O  O396  1  0.99354414  0.69904828  0.35535835  1
  O  O397  1  0.86093982  0.90888990  0.35591852  1
  O  O398  1  0.34325679  0.42845672  0.37001606  1
  O  O399  1  0.51795773  0.17197909  0.37203332  1
  O  O400  1  0.60522383  0.43570749  0.37250827  1
  O  O401  1  0.23672275  0.16190544  0.37524632  1
  O  O402  1  0.61891382  0.93265773  0.37051685  1
  O  O403  1  0.23888963  0.66706863  0.37294348  1
  O  O404  1  0.05452433  0.30304773  0.38431390  1
  O  O405  1  0.78788389  0.30085472  0.38597708  1
  O  O406  1  0.15209292  0.87446458  0.38593107  1
  O  O407  1  0.69088010  0.72108587  0.38634230  1
  O  O408  1  0.86626915  0.57856071  0.39911668  1
  O  O409  1  0.97343156  0.02113532  0.40101149  1
  O  O410  1  0.41581695  0.66223120  0.41626648  1
  O  O411  1  0.41369190  0.94272446  0.40761518  1
  O  O412  1  0.75921945  0.08826838  0.41500331  1
  O  O413  1  0.08653409  0.52878936  0.41936855  1
  O  O414  1  0.27137300  0.09266811  0.42824454  1
  O  O415  1  0.55599995  0.47194851  0.42204699  1
  O  O416  1  0.27954871  0.36830643  0.42257839  1
  O  O417  1  0.55510307  0.19780446  0.43317177  1
  O  O418  1  0.02507238  0.76140481  0.42957568  1
  O  O419  1  0.77942869  0.85243767  0.43507701  1
  O  O420  1  0.02561096  0.22815501  0.43440561  1
  O  O421  1  0.80869777  0.39379613  0.43494392  1
  O  O422  1  0.27502262  0.85306500  0.45139706  1
  O  O423  1  0.55435797  0.63111033  0.46078753  1
  O  O424  1  0.55634317  0.94782781  0.44804099  1
  O  O425  1  0.28987130  0.57101177  0.46382867  1
  O  O426  1  0.80470205  0.62148749  0.45814363  1
  O  O427  1  0.02968913  0.99324665  0.45768805  1
  O  O428  1  0.40286730  0.06415234  0.47908157  1
  O  O429  1  0.40946143  0.36304675  0.46415184  1
  O  O430  1  0.80689015  0.07669140  0.46492166  1
  O  O431  1  0.02252174  0.56025835  0.46869963  1
  O  O432  1  0.19101841  0.18975904  0.49945620  1
  O  O433  1  0.63280025  0.37861362  0.49999985  1
  O  O434  1  0.30224321  0.77424556  0.49980003  1
  O  O435  1  0.61447321  0.85167842  0.49549070  1
  O  O436  1  0.72772345  0.15412995  0.51470538  1
  O  O437  1  0.13353787  0.42492070  0.51462062  1
  O  O438  1  0.12480990  0.90766112  0.50850236  1
  O  O439  1  0.75964860  0.65941366  0.51173653  1
  O  O440  1  0.02787796  0.63628648  0.51930630  1
  O  O441  1  0.86071272  0.94044802  0.51611930  1
  O  O442  1  0.35938587  0.38681787  0.52808724  1
  O  O443  1  0.49935263  0.18037373  0.53223990  1
  O  O444  1  0.87767541  0.39709746  0.53448771  1
  O  O445  1  0.97919289  0.18259967  0.53800468  1
  O  O446  1  0.52444991  0.65794543  0.53623153  1
  O  O447  1  0.34546331  0.92018632  0.54378123  1
  O  O448  1  0.25394848  0.64616170  0.54605090  1
  O  O449  1  0.61987237  0.92778789  0.54553845  1
  O  O450  1  0.20627118  0.12458232  0.54900447  1
  O  O451  1  0.64932570  0.44817845  0.55016938  1
  O  O452  1  0.79451817  0.78764454  0.55798593  1
  O  O453  1  0.07353636  0.79321836  0.55962981  1
  O  O454  1  0.70990035  0.22132812  0.56533680  1
  O  O455  1  0.16562104  0.35394199  0.56645911  1
  O  O456  1  0.02003744  0.52020423  0.57845581  1
  O  O457  1  0.85406765  0.05230532  0.57913210  1
  O  O458  1  0.44080102  0.42942076  0.58033644  1
  O  O459  1  0.43141751  0.15053805  0.58244243  1
  O  O460  1  0.08209774  0.99048940  0.59328579  1
  O  O461  1  0.79675764  0.57602925  0.59392603  1
  O  O462  1  0.57426385  0.96770079  0.59456185  1
  O  O463  1  0.30567748  0.60854043  0.59474494  1
  O  O464  1  0.57227929  0.69587092  0.59470061  1
  O  O465  1  0.30633302  0.87102894  0.59755925  1
  O  O466  1  0.83018726  0.34819446  0.60939597  1
  O  O467  1  0.03653196  0.22045327  0.60956275  1
  O  O468  1  0.83235838  0.83767386  0.61489597  1
  O  O469  1  0.04917887  0.72645621  0.61737431  1
  O  O470  1  0.57550992  0.19845491  0.62476693  1
  O  O471  1  0.30356270  0.37738732  0.62507409  1
  O  O472  1  0.30130833  0.10019540  0.62758677  1
  O  O473  1  0.56990096  0.46232986  0.62698126  1
  O  O474  1  0.09121357  0.49698280  0.62980886  1
  O  O475  1  0.78874140  0.06626397  0.63068618  1
  O  O476  1  0.44614660  0.92195492  0.64082881  1
  O  O477  1  0.44013649  0.64798695  0.64104673  1
  O  O478  1  0.01898574  0.00593681  0.64486601  1
  O  O479  1  0.86126266  0.54287887  0.64606565  1
  O  O480  1  0.70893527  0.69217715  0.65881994  1
  O  O481  1  0.17611742  0.85819712  0.65994034  1
  O  O482  1  0.81030665  0.26949412  0.66224356  1
  O  O483  1  0.08559152  0.27749419  0.66312812  1
  O  O484  1  0.23743958  0.62864012  0.67277462  1
  O  O485  1  0.66032016  0.91931173  0.67433191  1
  O  O486  1  0.62123371  0.40254417  0.67718942  1
  O  O487  1  0.26843411  0.13806483  0.67641575  1
  O  O488  1  0.53983824  0.13778041  0.67827216  1
  O  O489  1  0.35892496  0.41471564  0.67925588  1
  O  O490  1  0.88764417  0.88176262  0.68831441  1
  O  O491  1  0.00904079  0.67127842  0.68935736  1
  O  O492  1  0.39223419  0.87483249  0.69552302  1
  O  O493  1  0.50827753  0.66141366  0.69613343  1
  O  O494  1  0.03640990  0.13767021  0.70589195  1
  O  O495  1  0.85942711  0.40760139  0.70662715  1
  O  O496  1  0.77354433  0.14075811  0.70859686  1
  O  O497  1  0.13476502  0.41221405  0.70832029  1
  O  O498  1  0.73691753  0.62432621  0.71080759  1
  O  O499  1  0.16354378  0.92158717  0.71146175  1
  O  O500  1  0.31422555  0.26606256  0.72175803  1
  O  O501  1  0.58995646  0.27368318  0.72325726  1
  O  O502  1  0.22411078  0.69710886  0.72573199  1
  O  O503  1  0.68765327  0.85056401  0.72640079  1
  O  O504  1  0.53714441  0.99909341  0.73950469  1
  O  O505  1  0.38566826  0.53806926  0.74024714  1
  O  O506  1  0.95936673  0.90181278  0.74302591  1
  O  O507  1  0.95353363  0.62676350  0.74450256  1
  O  O508  1  0.61145103  0.47816711  0.75490375  1
  O  O509  1  0.30999316  0.04747146  0.75553482  1
  O  O510  1  0.10058601  0.44754047  0.75769507  1
  O  O511  1  0.82750419  0.08425837  0.75750045  1
  O  O512  1  0.09524263  0.17066870  0.75949187  1
  O  O513  1  0.82605810  0.34938307  0.76027207  1
  O  O514  1  0.34887283  0.81801602  0.76915559  1
  O  O515  1  0.56387370  0.70645626  0.77055101  1
  O  O516  1  0.36167798  0.32294328  0.77627455  1
  O  O517  1  0.56961292  0.19689220  0.77693345  1
  O  O518  1  0.10238136  0.67150840  0.78721302  1
  O  O519  1  0.82503709  0.85232925  0.78856906  1
  O  O520  1  0.82851757  0.58214996  0.79057679  1
  O  O521  1  0.08835773  0.93187858  0.78938911  1
  O  O522  1  0.60423012  0.96946540  0.79199198  1
  O  O523  1  0.31723046  0.55050004  0.79316173  1
  O  O524  1  0.96645964  0.39641481  0.80266943  1
  O  O525  1  0.95655379  0.12252020  0.80370177  1
  O  O526  1  0.54777781  0.49114099  0.80600290  1
  O  O527  1  0.37865718  0.01871547  0.80704745  1
  O  O528  1  0.23077837  0.17393422  0.81898446  1
  O  O529  1  0.69313289  0.33180496  0.82068777  1
  O  O530  1  0.33517190  0.74987199  0.82546050  1
  O  O531  1  0.61157271  0.76010318  0.82674708  1
  O  O532  1  0.75443490  0.09845053  0.83509459  1
  O  O533  1  0.18619001  0.40600481  0.83574287  1
  O  O534  1  0.15243938  0.87990533  0.83940733  1
  O  O535  1  0.78605972  0.61242931  0.83980954  1
  O  O536  1  0.06478552  0.61312083  0.84147623  1
  O  O537  1  0.88197702  0.88958465  0.84233784  1
  O  O538  1  0.41686437  0.36090207  0.84732875  1
  O  O539  1  0.52584279  0.13822223  0.84965924  1
  O  O540  1  0.90657723  0.35074753  0.85531537  1
  O  O541  1  0.03899440  0.14110768  0.85587204  1
  O  O542  1  0.55685528  0.62143274  0.87001847  1
  O  O543  1  0.38250859  0.87739264  0.87200414  1
  O  O544  1  0.29504686  0.61375161  0.87253024  1
  O  O545  1  0.66517690  0.88817714  0.87535416  1
  O  O546  1  0.28154144  0.11690728  0.87046288  1
  O  O547  1  0.66048582  0.38213673  0.87291277  1
  O  O548  1  0.84676327  0.74669741  0.88433373  1
  O  O549  1  0.11284115  0.74849032  0.88601137  1
  O  O550  1  0.74813187  0.17743497  0.88624066  1
  O  O551  1  0.20914334  0.32805999  0.88638935  1
  O  O552  1  0.03468094  0.47074697  0.89912298  1
  O  O553  1  0.92771393  0.02845013  0.90103970  1
  O  O554  1  0.48313717  0.38779894  0.91615827  1
  O  O555  1  0.48568912  0.10789101  0.90773408  1
  O  O556  1  0.14158029  0.96109771  0.91500990  1
  O  O557  1  0.81479918  0.52134860  0.91927142  1
  O  O558  1  0.62942908  0.95820063  0.92839718  1
  O  O559  1  0.34487196  0.57890030  0.92197823  1
  O  O560  1  0.62100276  0.68264124  0.92256061  1
  O  O561  1  0.34588232  0.85224560  0.93323476  1
  O  O562  1  0.87534500  0.28845587  0.92972884  1
  O  O563  1  0.12108988  0.19688712  0.93524576  1
  O  O564  1  0.87476081  0.82095958  0.93446574  1
  O  O565  1  0.09241172  0.65567067  0.93490797  1
  O  O566  1  0.62501151  0.19768015  0.95141776  1
  O  O567  1  0.34634153  0.42105231  0.96099055  1
  O  O568  1  0.34357935  0.10208571  0.94819302  1
  O  O569  1  0.61142688  0.47876576  0.96343292  1
  O  O570  1  0.09570660  0.42807094  0.95823021  1
  O  O571  1  0.87098781  0.05636356  0.95765271  1
  O  O572  1  0.49716317  0.98715325  0.97919650  1
  O  O573  1  0.49166068  0.68702194  0.96421357  1
  O  O574  1  0.09351132  0.97241874  0.96493010  1
  O  O575  1  0.87841092  0.49072733  0.96866277  1
