# generated using pymatgen
data_Li17La7Zr4O27
_symmetry_space_group_name_H-M   'P 1'
_cell_length_a   11.27162600
_cell_length_b   11.27162572
_cell_length_c   44.38670343
_cell_angle_alpha   90.00000000
_cell_angle_beta   90.00000000
_cell_angle_gamma   108.34782046
_symmetry_Int_Tables_number   1
_chemical_formula_structural   Li17La7Zr4O27
_chemical_formula_sum   'Li136 La56 Zr32 O216'
_cell_volume   5352.62549737
_cell_formula_units_Z   8
loop_
 _symmetry_equiv_pos_site_id
 _symmetry_equiv_pos_as_xyz
  1  'x, y, z'
loop_
 _atom_site_type_symbol
 _atom_site_label
 _atom_site_symmetry_multiplicity
 _atom_site_fract_x
 _atom_site_fract_y
 _atom_site_fract_z
 _atom_site_occupancy
  Li  Li0  1  0.19914303  0.28566604  0.19253425  1
  Li  Li1  1  0.96267989  0.86021741  0.10346018  1
  Li  Li2  1  0.73197410  0.06576466  0.00211037  1
  Li  Li3  1  0.11114860  0.71797063  0.09334551  1
  Li  Li4  1  0.51824439  0.28693451  0.12921926  1
  Li  Li5  1  0.64266477  0.84590323  0.16608199  1
  Li  Li6  1  0.56806093  0.26709667  0.03100196  1
  Li  Li7  1  0.14384030  0.38606662  0.03225899  1
  Li  Li8  1  0.53180569  0.42032576  0.08595349  1
  Li  Li9  1  0.42104086  0.87443220  0.18534889  1
  Li  Li10  1  0.67897147  0.28387759  0.09215979  1
  Li  Li11  1  0.16873502  0.83519618  0.13969737  1
  Li  Li12  1  0.00709828  0.28162823  0.16536527  1
  Li  Li13  1  0.11731986  0.90022056  0.06101474  1
  Li  Li14  1  0.58532294  0.77885174  0.02511310  1
  Li  Li15  1  0.11529895  0.94290542  0.00596254  1
  Li  Li16  1  0.54083342  0.66950724  0.07212677  1
  Li  Li17  1  0.18077738  0.78741192  0.19448874  1
  Li  Li18  1  0.88502728  0.26320204  0.11931592  1
  Li  Li19  1  0.29401298  0.01843927  0.17370759  1
  Li  Li20  1  0.81007155  0.02847066  0.12638621  1
  Li  Li21  1  0.32443106  0.83277628  0.05627799  1
  Li  Li22  1  0.27822948  0.53420101  0.07618458  1
  Li  Li23  1  0.39245341  0.25548494  0.17403577  1
  Li  Li24  1  0.71980400  0.82291643  0.10904910  1
  Li  Li25  1  0.72478786  0.13217105  0.94306014  1
  Li  Li26  1  0.04994229  0.44480211  0.08759494  1
  Li  Li27  1  0.64862562  0.80014214  0.40345985  1
  Li  Li28  1  0.44043787  0.36167822  0.30805375  1
  Li  Li29  1  0.04557724  0.44364705  0.20476662  1
  Li  Li30  1  0.58709044  0.20190121  0.29674628  1
  Li  Li31  1  0.99988769  0.80406935  0.33113570  1
  Li  Li32  1  0.12605214  0.37428321  0.37018435  1
  Li  Li33  1  0.03844425  0.77064821  0.27299497  1
  Li  Li34  1  0.59655828  0.87724288  0.22640384  1
  Li  Li35  1  0.60927951  0.67158407  0.20515586  1
  Li  Li36  1  0.01108131  0.98263043  0.28983537  1
  Li  Li37  1  0.92701923  0.38049420  0.39704589  1
  Li  Li38  1  0.21730527  0.79030113  0.31072008  1
  Li  Li39  1  0.62724108  0.36081684  0.33803876  1
  Li  Li40  1  0.46108512  0.81338116  0.35685137  1
  Li  Li41  1  0.59972907  0.39639086  0.26518551  1
  Li  Li42  1  0.04190525  0.24899992  0.23677823  1
  Li  Li43  1  0.54326300  0.42691670  0.20327205  1
  Li  Li44  1  0.09014792  0.22141470  0.29561890  1
  Li  Li45  1  0.68621370  0.32652899  0.39595222  1
  Li  Li46  1  0.46143666  0.86893199  0.30482882  1
  Li  Li47  1  0.78693355  0.53663576  0.37478846  1
  Li  Li48  1  0.33795906  0.62747530  0.32841326  1
  Li  Li49  1  0.75499316  0.54147809  0.22594004  1
  Li  Li50  1  0.86847559  0.10566930  0.27297841  1
  Li  Li51  1  0.86543934  0.77878597  0.37960479  1
  Li  Li52  1  0.25097241  0.39272812  0.32585019  1
  Li  Li53  1  0.00589147  0.63415631  0.22525462  1
  Li  Li54  1  0.63054923  0.01210847  0.27595807  1
  Li  Li55  1  0.50511841  0.91659099  0.41565238  1
  Li  Li56  1  0.70686459  0.57462720  0.49765490  1
  Li  Li57  1  0.52917915  0.28716477  0.47516944  1
  Li  Li58  1  0.08760751  0.41566596  0.43808939  1
  Li  Li59  1  0.08549783  0.22939784  0.40758821  1
  Li  Li60  1  0.08838815  0.92667722  0.46412724  1
  Li  Li61  1  0.51497104  0.77605236  0.46162784  1
  Li  Li62  1  0.02338482  0.95914312  0.41088745  1
  Li  Li63  1  0.65068479  0.79495326  0.51072149  1
  Li  Li64  1  0.26503385  0.05622482  0.42448894  1
  Li  Li65  1  0.25914058  0.80707544  0.45088743  1
  Li  Li66  1  0.51313828  0.17695124  0.42767229  1
  Li  Li67  1  0.09717526  0.46501032  0.49409144  1
  Li  Li68  1  0.82725330  0.18718310  0.69249386  1
  Li  Li69  1  0.06141534  0.61666983  0.60352991  1
  Li  Li70  1  0.29285137  0.40942090  0.50217317  1
  Li  Li71  1  0.91461697  0.75715374  0.59328071  1
  Li  Li72  1  0.50791396  0.18955300  0.62899920  1
  Li  Li73  1  0.38144223  0.62998182  0.66550841  1
  Li  Li74  1  0.45802518  0.20838495  0.53084779  1
  Li  Li75  1  0.88001149  0.09150776  0.53225339  1
  Li  Li76  1  0.49441897  0.05500448  0.58582739  1
  Li  Li77  1  0.60272449  0.60088512  0.68538686  1
  Li  Li78  1  0.34732287  0.19102159  0.59199992  1
  Li  Li79  1  0.85845972  0.64018069  0.63960917  1
  Li  Li80  1  0.01982284  0.19433084  0.66513121  1
  Li  Li81  1  0.91008813  0.57483650  0.56029804  1
  Li  Li82  1  0.44186730  0.69502706  0.52514712  1
  Li  Li83  1  0.91503688  0.53834510  0.50535903  1
  Li  Li84  1  0.48610353  0.80662357  0.57184132  1
  Li  Li85  1  0.84444848  0.68771764  0.69448394  1
  Li  Li86  1  0.14142936  0.21249646  0.61927189  1
  Li  Li87  1  0.73045027  0.45781906  0.67338556  1
  Li  Li88  1  0.21638707  0.45001048  0.62622975  1
  Li  Li89  1  0.70279908  0.64184118  0.55616009  1
  Li  Li90  1  0.74646378  0.94170193  0.57621970  1
  Li  Li91  1  0.63364795  0.22001578  0.67391995  1
  Li  Li92  1  0.30684433  0.65377251  0.60848159  1
  Li  Li93  1  0.29886614  0.34233761  0.44355902  1
  Li  Li94  1  0.97505965  0.03060250  0.58746372  1
  Li  Li95  1  0.37730049  0.67469479  0.90306564  1
  Li  Li96  1  0.58435666  0.11225831  0.80794210  1
  Li  Li97  1  0.97924534  0.03331550  0.70483198  1
  Li  Li98  1  0.43601159  0.27389934  0.79659663  1
  Li  Li99  1  0.02431865  0.67081669  0.83074745  1
  Li  Li100  1  0.89798705  0.10086419  0.86998101  1
  Li  Li101  1  0.98543477  0.70423198  0.77213034  1
  Li  Li102  1  0.42779475  0.59725490  0.72669270  1
  Li  Li103  1  0.41786315  0.80353758  0.70466862  1
  Li  Li104  1  0.01358680  0.49429361  0.78988433  1
  Li  Li105  1  0.09654314  0.09395342  0.89693181  1
  Li  Li106  1  0.80626446  0.68342584  0.81077526  1
  Li  Li107  1  0.39682705  0.11387533  0.83715762  1
  Li  Li108  1  0.56461722  0.66174602  0.85656877  1
  Li  Li109  1  0.42335870  0.07829048  0.76553615  1
  Li  Li110  1  0.98014924  0.22733733  0.73729595  1
  Li  Li111  1  0.48459176  0.04857670  0.70249859  1
  Li  Li112  1  0.93410931  0.25419019  0.79565720  1
  Li  Li113  1  0.33755686  0.14783464  0.89485641  1
  Li  Li114  1  0.56395478  0.60471810  0.80425160  1
  Li  Li115  1  0.23633317  0.93716046  0.87452436  1
  Li  Li116  1  0.68467805  0.84704963  0.82825752  1
  Li  Li117  1  0.27381311  0.93443486  0.72545681  1
  Li  Li118  1  0.15525714  0.36834615  0.77286244  1
  Li  Li119  1  0.15863858  0.69589610  0.87952215  1
  Li  Li120  1  0.77314463  0.08115083  0.82544888  1
  Li  Li121  1  0.02029116  0.84113421  0.72490953  1
  Li  Li122  1  0.39372735  0.46310189  0.77579337  1
  Li  Li123  1  0.51884178  0.55852513  0.91552153  1
  Li  Li124  1  0.31845711  0.89977223  0.99744108  1
  Li  Li125  1  0.49591470  0.18825251  0.97495554  1
  Li  Li126  1  0.93618960  0.05778034  0.93791438  1
  Li  Li127  1  0.93862803  0.24559159  0.90762373  1
  Li  Li128  1  0.93739366  0.54698794  0.96402814  1
  Li  Li129  1  0.50959565  0.69850508  0.96117944  1
  Li  Li130  1  0.00098886  0.51457871  0.91073080  1
  Li  Li131  1  0.37481196  0.68129373  0.01043014  1
  Li  Li132  1  0.75773399  0.41804874  0.92463190  1
  Li  Li133  1  0.76497914  0.66819111  0.95083889  1
  Li  Li134  1  0.50962943  0.29796985  0.92727732  1
  Li  Li135  1  0.92766894  0.00878685  0.99388438  1
  La  La136  1  0.82610729  0.57254328  0.09469443  1
  La  La137  1  0.32989658  0.07064274  0.10484835  1
  La  La138  1  0.88732705  0.75219656  0.17304358  1
  La  La139  1  0.26116339  0.36363020  0.12194041  1
  La  La140  1  0.04090804  0.65351805  0.02325911  1
  La  La141  1  0.65291548  0.01161170  0.06764264  1
  La  La142  1  0.68049516  0.53888453  0.01617217  1
  La  La143  1  0.01383545  0.14824400  0.07053946  1
  La  La144  1  0.76785078  0.38062983  0.17081032  1
  La  La145  1  0.39190394  0.76138024  0.12018531  1
  La  La146  1  0.32707247  0.57358538  0.19753373  1
  La  La147  1  0.30822335  0.07825030  0.30218147  1
  La  La148  1  0.81471080  0.57634165  0.30126947  1
  La  La149  1  0.82443354  0.06982301  0.20023325  1
  La  La150  1  0.36950084  0.28192955  0.37964597  1
  La  La151  1  0.74607520  0.89008233  0.32759867  1
  La  La152  1  0.51085482  0.13518090  0.22530694  1
  La  La153  1  0.13123845  0.51523365  0.27556824  1
  La  La154  1  0.12915726  0.00847617  0.22607577  1
  La  La155  1  0.50738242  0.63613643  0.27432384  1
  La  La156  1  0.23100288  0.89190779  0.37731168  1
  La  La157  1  0.86453412  0.26635117  0.32858861  1
  La  La158  1  0.80183454  0.08619157  0.40601668  1
  La  La159  1  0.31642393  0.59088737  0.40071940  1
  La  La160  1  0.98113928  0.65692972  0.42984420  1
  La  La161  1  0.65344866  0.05261185  0.48337137  1
  La  La162  1  0.62473230  0.52386364  0.43211950  1
  La  La163  1  0.02280610  0.17640715  0.47621028  1
  La  La164  1  0.19980776  0.90293822  0.59467405  1
  La  La165  1  0.69591910  0.40505771  0.60466392  1
  La  La166  1  0.13844857  0.72304694  0.67299782  1
  La  La167  1  0.76460484  0.11218644  0.62187774  1
  La  La168  1  0.98495203  0.82322146  0.52336716  1
  La  La169  1  0.37291367  0.46322585  0.56763250  1
  La  La170  1  0.34519822  0.93606008  0.51625728  1
  La  La171  1  0.01219653  0.32749528  0.57058181  1
  La  La172  1  0.25789264  0.09462364  0.67073018  1
  La  La173  1  0.63431424  0.71383947  0.62001705  1
  La  La174  1  0.69884570  0.90071588  0.69734416  1
  La  La175  1  0.71626082  0.39563298  0.80195262  1
  La  La176  1  0.20905476  0.89790416  0.80102843  1
  La  La177  1  0.20065235  0.40505888  0.70019206  1
  La  La178  1  0.65452706  0.19297154  0.87933876  1
  La  La179  1  0.27880798  0.58482009  0.82747154  1
  La  La180  1  0.51358328  0.33886558  0.72515713  1
  La  La181  1  0.89316367  0.95876869  0.77545467  1
  La  La182  1  0.89526821  0.46565598  0.72582264  1
  La  La183  1  0.51698199  0.83811128  0.77404542  1
  La  La184  1  0.79356698  0.58252504  0.87730179  1
  La  La185  1  0.15904547  0.20785108  0.82842934  1
  La  La186  1  0.22257169  0.38854618  0.90589348  1
  La  La187  1  0.70771764  0.88396178  0.90045141  1
  La  La188  1  0.04311628  0.81741986  0.92991120  1
  La  La189  1  0.37131813  0.42212227  0.98343103  1
  La  La190  1  0.39928281  0.95124186  0.93183090  1
  La  La191  1  0.00149201  0.29732441  0.97613262  1
  Zr  Zr192  1  0.57288518  0.56324875  0.14439230  1
  Zr  Zr193  1  0.83050988  0.32537923  0.03937911  1
  Zr  Zr194  1  0.06920472  0.06306469  0.14827991  1
  Zr  Zr195  1  0.84811287  0.83572543  0.04383429  1
  Zr  Zr196  1  0.07724075  0.56840906  0.14684341  1
  Zr  Zr197  1  0.58579026  0.06987938  0.14766044  1
  Zr  Zr198  1  0.05670787  0.08879657  0.35324221  1
  Zr  Zr199  1  0.32048718  0.82385439  0.24995941  1
  Zr  Zr200  1  0.56586539  0.58278913  0.35281237  1
  Zr  Zr201  1  0.82027349  0.32550297  0.25017664  1
  Zr  Zr202  1  0.32051289  0.32535715  0.24994631  1
  Zr  Zr203  1  0.55109930  0.07623558  0.35607890  1
  Zr  Zr204  1  0.06070665  0.58543192  0.35285151  1
  Zr  Zr205  1  0.81665177  0.82114301  0.25044681  1
  Zr  Zr206  1  0.81753421  0.34682113  0.45741539  1
  Zr  Zr207  1  0.80071668  0.83700839  0.45887015  1
  Zr  Zr208  1  0.45326545  0.91220345  0.64411704  1
  Zr  Zr209  1  0.19501495  0.15002285  0.53932801  1
  Zr  Zr210  1  0.95610943  0.41206012  0.64821739  1
  Zr  Zr211  1  0.17811217  0.63973755  0.54382243  1
  Zr  Zr212  1  0.94882441  0.90722154  0.64676844  1
  Zr  Zr213  1  0.43924434  0.40538722  0.64756743  1
  Zr  Zr214  1  0.96778316  0.38603455  0.85309597  1
  Zr  Zr215  1  0.70424126  0.65019267  0.74972054  1
  Zr  Zr216  1  0.45814973  0.89216974  0.85254761  1
  Zr  Zr217  1  0.20387759  0.14911628  0.74999165  1
  Zr  Zr218  1  0.70335095  0.14819150  0.74972641  1
  Zr  Zr219  1  0.47355567  0.39906791  0.85581001  1
  Zr  Zr220  1  0.96316243  0.88898946  0.85271201  1
  Zr  Zr221  1  0.20818872  0.65400886  0.75020594  1
  Zr  Zr222  1  0.20704717  0.12817123  0.95705225  1
  Zr  Zr223  1  0.22427716  0.63769866  0.95867733  1
  O  O224  1  0.88425986  0.95349048  0.15486809  1
  O  O225  1  0.26156533  0.16083554  0.14871388  1
  O  O226  1  0.94761412  0.49135706  0.05976725  1
  O  O227  1  0.67298184  0.16696696  0.02854811  1
  O  O228  1  0.74093138  0.69415844  0.13050440  1
  O  O229  1  0.42081807  0.42873188  0.16478996  1
  O  O230  1  0.05192746  0.14765747  0.19087802  1
  O  O231  1  0.10224030  0.00908421  0.10392254  1
  O  O232  1  0.26213719  0.85201278  0.09426782  1
  O  O233  1  0.64945649  0.43105082  0.12320410  1
  O  O234  1  0.50656625  0.69528091  0.16612948  1
  O  O235  1  0.67979338  0.39709538  0.05722929  1
  O  O236  1  0.97710012  0.26463752  0.02788510  1
  O  O237  1  0.39595637  0.28357750  0.09688363  1
  O  O238  1  0.59281515  0.98955133  0.19122301  1
  O  O239  1  0.55974000  0.13439586  0.10486829  1
  O  O240  1  0.00906542  0.70983887  0.12933160  1
  O  O241  1  0.14656855  0.43403668  0.16787184  1
  O  O242  1  0.97260791  0.75627089  0.06819299  1
  O  O243  1  0.72961447  0.92065006  0.02430240  1
  O  O244  1  0.68386162  0.55705922  0.18442462  1
  O  O245  1  0.45879424  0.56831739  0.10521646  1
  O  O246  1  0.86562341  0.43248619  0.99852977  1
  O  O247  1  0.82643218  0.21671371  0.07956232  1
  O  O248  1  0.11395900  0.91764458  0.17278625  1
  O  O249  1  0.03159538  0.21039387  0.12607788  1
  O  O250  1  0.20324571  0.84250763  0.02834696  1
  O  O251  1  0.48045003  0.80313590  0.06017007  1
  O  O252  1  0.00861129  0.98354536  0.03427547  1
  O  O253  1  0.70115560  0.67503619  0.05963194  1
  O  O254  1  0.24204327  0.70842760  0.16322603  1
  O  O255  1  0.92081475  0.43565381  0.12830264  1
  O  O256  1  0.39582874  0.96226361  0.14678098  1
  O  O257  1  0.77760252  0.17127511  0.15236844  1
  O  O258  1  0.85750883  0.71624884  0.00769472  1
  O  O259  1  0.83121752  0.94358897  0.08390154  1
  O  O260  1  0.96343906  0.56749818  0.18496577  1
  O  O261  1  0.18529142  0.57996657  0.10702045  1
  O  O262  1  0.54939292  0.22159027  0.17006507  1
  O  O263  1  0.62477814  0.92133234  0.12508484  1
  O  O264  1  0.53090923  0.34920200  0.99641451  1
  O  O265  1  0.17247204  0.36427192  0.07279022  1
  O  O266  1  0.72063560  0.13290004  0.24725679  1
  O  O267  1  0.92340882  0.51570756  0.25560321  1
  O  O268  1  0.37550940  0.48336459  0.35357152  1
  O  O269  1  0.75636700  0.68616605  0.34859534  1
  O  O270  1  0.45662315  0.98372222  0.26848491  1
  O  O271  1  0.18312804  0.66655259  0.23164456  1
  O  O272  1  0.21539277  0.22021760  0.33431584  1
  O  O273  1  0.89744064  0.95440239  0.37224613  1
  O  O274  1  0.53639060  0.64146742  0.39640250  1
  O  O275  1  0.58831437  0.49782833  0.31122001  1
  O  O276  1  0.90049977  0.30147929  0.20834622  1
  O  O277  1  0.73479850  0.34351552  0.29246945  1
  O  O278  1  0.13279629  0.95511050  0.33469922  1
  O  O279  1  0.98504484  0.22579918  0.37128356  1
  O  O280  1  0.19039817  0.89913168  0.27139636  1
  O  O281  1  0.44962855  0.74576705  0.23021889  1
  O  O282  1  0.73634923  0.83130023  0.20809045  1
  O  O283  1  0.89761867  0.81456584  0.29384441  1
  O  O284  1  0.08022973  0.51866166  0.39669269  1
  O  O285  1  0.05256524  0.66790537  0.31051457  1
  O  O286  1  0.48581792  0.21305574  0.33478332  1
  O  O287  1  0.60678037  0.93327372  0.37674704  1
  O  O288  1  0.45436836  0.25511917  0.27165440  1
  O  O289  1  0.18410934  0.39297200  0.22980345  1
  O  O290  1  0.16167959  0.09364061  0.39332220  1
  O  O291  1  0.94375828  0.08583976  0.31455888  1
  O  O292  1  0.31760525  0.93625221  0.21234999  1
  O  O293  1  0.32221513  0.71378276  0.28871750  1
  O  O294  1  0.60441315  0.43463452  0.37617758  1
  O  O295  1  0.52740274  0.72965111  0.32820838  1
  O  O296  1  0.67180159  0.35979534  0.22652494  1
  O  O297  1  0.96720041  0.28865273  0.27465918  1
  O  O298  1  0.45613660  0.48609301  0.23265575  1
  O  O299  1  0.18094110  0.16265771  0.26696414  1
  O  O300  1  0.71584574  0.20953197  0.37079877  1
  O  O301  1  0.39351817  0.94047586  0.33694019  1
  O  O302  1  0.87609307  0.47299207  0.34726220  1
  O  O303  1  0.25966820  0.69855736  0.35945498  1
  O  O304  1  0.71142021  0.63168816  0.25679731  1
  O  O305  1  0.92788693  0.01147186  0.24605910  1
  O  O306  1  0.32911981  0.21026221  0.21325767  1
  O  O307  1  0.31749348  0.44028528  0.28713543  1
  O  O308  1  0.42566140  0.07175336  0.39571555  1
  O  O309  1  0.66105681  0.06801573  0.31795215  1
  O  O310  1  0.01801642  0.73354360  0.37500094  1
  O  O311  1  0.10913484  0.44617108  0.32977367  1
  O  O312  1  0.96773894  0.78650696  0.22847480  1
  O  O313  1  0.67001453  0.86037752  0.27394582  1
  O  O314  1  0.97893942  0.49788664  0.46608446  1
  O  O315  1  0.67714484  0.19150915  0.43842090  1
  O  O316  1  0.37900396  0.76779339  0.43084126  1
  O  O317  1  0.69065907  0.42545336  0.47543756  1
  O  O318  1  0.94426196  0.27088378  0.43135907  1
  O  O319  1  0.23486864  0.36680888  0.40555878  1
  O  O320  1  0.94889331  0.77938717  0.47130396  1
  O  O321  1  0.66321652  0.91565361  0.44024177  1
  O  O322  1  0.80703441  0.46009070  0.41683329  1
  O  O323  1  0.83505702  0.22384042  0.49072823  1
  O  O324  1  0.16113035  0.88262340  0.42941990  1
  O  O325  1  0.50935856  0.85603505  0.50333294  1
  O  O326  1  0.93445834  0.00448273  0.44169121  1
  O  O327  1  0.64574614  0.68663841  0.47347185  1
  O  O328  1  0.80073664  0.72815996  0.41989494  1
  O  O329  1  0.80790417  0.92956797  0.50262459  1
  O  O330  1  0.45630354  0.31937179  0.43431989  1
  O  O331  1  0.17926593  0.36389433  0.47038188  1
  O  O332  1  0.14095011  0.52182736  0.65497619  1
  O  O333  1  0.76354731  0.31503044  0.64850103  1
  O  O334  1  0.07856984  0.98439545  0.55990278  1
  O  O335  1  0.35269020  0.30819252  0.52843519  1
  O  O336  1  0.28531453  0.78084417  0.63045154  1
  O  O337  1  0.60528439  0.04642050  0.66464442  1
  O  O338  1  0.97304530  0.32681586  0.69072341  1
  O  O339  1  0.92353950  0.46658298  0.60390367  1
  O  O340  1  0.76405386  0.62339558  0.59420135  1
  O  O341  1  0.37696847  0.04436511  0.62298668  1
  O  O342  1  0.51938182  0.77963418  0.66584677  1
  O  O343  1  0.34591274  0.07816049  0.55710085  1
  O  O344  1  0.04802124  0.21020702  0.52794702  1
  O  O345  1  0.62986939  0.19218550  0.59669936  1
  O  O346  1  0.43183847  0.48476602  0.69118530  1
  O  O347  1  0.46575985  0.34071007  0.60478376  1
  O  O348  1  0.01713811  0.76540180  0.62919465  1
  O  O349  1  0.87957559  0.04159462  0.66777116  1
  O  O350  1  0.05333950  0.71946309  0.56807072  1
  O  O351  1  0.29660500  0.55470185  0.52432115  1
  O  O352  1  0.34276294  0.91861880  0.68417740  1
  O  O353  1  0.56787124  0.90787398  0.60492662  1
  O  O354  1  0.15888260  0.04193426  0.49852397  1
  O  O355  1  0.19940450  0.25873635  0.57943795  1
  O  O356  1  0.91136723  0.55736778  0.67271855  1
  O  O357  1  0.99384235  0.26494133  0.62593856  1
  O  O358  1  0.82363416  0.63347467  0.52820740  1
  O  O359  1  0.54650590  0.67224550  0.56006163  1
  O  O360  1  0.01747111  0.49239159  0.53413004  1
  O  O361  1  0.32480712  0.79992406  0.55983388  1
  O  O362  1  0.78430418  0.76711345  0.66312003  1
  O  O363  1  0.10546314  0.03986955  0.62828837  1
  O  O364  1  0.62899098  0.51355944  0.64655617  1
  O  O365  1  0.24765296  0.30403495  0.65227617  1
  O  O366  1  0.16801706  0.75919546  0.50768370  1
  O  O367  1  0.19454861  0.53160901  0.58381983  1
  O  O368  1  0.06270215  0.90792059  0.68482767  1
  O  O369  1  0.84081046  0.89554513  0.60692044  1
  O  O370  1  0.47606809  0.25350478  0.66991169  1
  O  O371  1  0.40031099  0.55390737  0.62487976  1
  O  O372  1  0.49394930  0.12553560  0.49633888  1
  O  O373  1  0.85294572  0.11155747  0.57281976  1
  O  O374  1  0.30369517  0.34166311  0.74727648  1
  O  O375  1  0.10044780  0.95907796  0.75555194  1
  O  O376  1  0.64856829  0.99137859  0.85323199  1
  O  O377  1  0.26781746  0.78803972  0.84845181  1
  O  O378  1  0.56786069  0.49024462  0.76833219  1
  O  O379  1  0.84213996  0.80731213  0.73155893  1
  O  O380  1  0.80921921  0.25417245  0.83398825  1
  O  O381  1  0.12681796  0.52012822  0.87215983  1
  O  O382  1  0.48787126  0.83406721  0.89621319  1
  O  O383  1  0.43580915  0.97661494  0.81087236  1
  O  O384  1  0.12523564  0.17354998  0.70809866  1
  O  O385  1  0.28970098  0.13112674  0.79242656  1
  O  O386  1  0.89165280  0.51952392  0.83451725  1
  O  O387  1  0.03900750  0.24887325  0.87117178  1
  O  O388  1  0.83439410  0.57422754  0.77110526  1
  O  O389  1  0.57566769  0.72813081  0.72980008  1
  O  O390  1  0.28901610  0.64426006  0.70794503  1
  O  O391  1  0.12719263  0.66090817  0.79361996  1
  O  O392  1  0.94362897  0.95569857  0.89660319  1
  O  O393  1  0.97114957  0.80651625  0.81033960  1
  O  O394  1  0.53839805  0.26188565  0.83457124  1
  O  O395  1  0.41819680  0.54231181  0.87649293  1
  O  O396  1  0.57031030  0.21866493  0.77154997  1
  O  O397  1  0.84095300  0.08120143  0.72969425  1
  O  O398  1  0.86220588  0.38127108  0.89312380  1
  O  O399  1  0.08058423  0.38931747  0.81439200  1
  O  O400  1  0.70704572  0.53799927  0.71210820  1
  O  O401  1  0.70187438  0.75982031  0.78848323  1
  O  O402  1  0.41948183  0.04038648  0.87565925  1
  O  O403  1  0.49697982  0.74534449  0.82801779  1
  O  O404  1  0.35318849  0.11538597  0.72649354  1
  O  O405  1  0.05727779  0.18617059  0.77459074  1
  O  O406  1  0.56897092  0.98736454  0.73217553  1
  O  O407  1  0.84399304  0.31044135  0.76652768  1
  O  O408  1  0.30822136  0.26634794  0.87047099  1
  O  O409  1  0.63147872  0.53418359  0.83665278  1
  O  O410  1  0.14782089  0.00143006  0.84706674  1
  O  O411  1  0.76422161  0.77590666  0.85924344  1
  O  O412  1  0.31305417  0.84339703  0.75664137  1
  O  O413  1  0.09692685  0.46364207  0.74588565  1
  O  O414  1  0.69515608  0.26350900  0.71315315  1
  O  O415  1  0.70613524  0.03283065  0.78691297  1
  O  O416  1  0.59848423  0.40296405  0.89546767  1
  O  O417  1  0.36376536  0.40742090  0.81769040  1
  O  O418  1  0.00610804  0.74116923  0.87492982  1
  O  O419  1  0.91553986  0.02875364  0.82964737  1
  O  O420  1  0.05701501  0.68830416  0.72827065  1
  O  O421  1  0.35546458  0.61510934  0.77356914  1
  O  O422  1  0.04626434  0.97687338  0.96605913  1
  O  O423  1  0.34701511  0.28434528  0.93831849  1
  O  O424  1  0.64536353  0.70693054  0.93048509  1
  O  O425  1  0.33351071  0.04923816  0.97526893  1
  O  O426  1  0.07965592  0.20350530  0.93119487  1
  O  O427  1  0.78907745  0.10809592  0.90522753  1
  O  O428  1  0.07601625  0.69484097  0.97120041  1
  O  O429  1  0.36155318  0.55923023  0.94004551  1
  O  O430  1  0.21742539  0.01518288  0.91647645  1
  O  O431  1  0.18949459  0.25044697  0.99049272  1
  O  O432  1  0.86304098  0.59182585  0.92951840  1
  O  O433  1  0.51636386  0.61896031  0.00299676  1
  O  O434  1  0.08999758  0.46983472  0.94164949  1
  O  O435  1  0.37912576  0.78827715  0.97317886  1
  O  O436  1  0.22332192  0.74661344  0.91978389  1
  O  O437  1  0.21749284  0.54594641  0.00260927  1
  O  O438  1  0.56758913  0.15580034  0.93399349  1
  O  O439  1  0.84455885  0.11021203  0.97006490  1
