# generated using pymatgen
data_Li40La18Zr10O67
_symmetry_space_group_name_H-M   'P 1'
_cell_length_a   11.27162600
_cell_length_b   11.27162572
_cell_length_c   52.68947075
_cell_angle_alpha   90.00000000
_cell_angle_beta   90.00000000
_cell_angle_gamma   108.34782046
_symmetry_Int_Tables_number   1
_chemical_formula_structural   Li40La18Zr10O67
_chemical_formula_sum   'Li160 La72 Zr40 O268'
_cell_volume   6353.86236887
_cell_formula_units_Z   4
loop_
 _symmetry_equiv_pos_site_id
 _symmetry_equiv_pos_as_xyz
  1  'x, y, z'
loop_
 _atom_site_type_symbol
 _atom_site_label
 _atom_site_symmetry_multiplicity
 _atom_site_fract_x
 _atom_site_fract_y
 _atom_site_fract_z
 _atom_site_occupancy
  Li  Li0  1  0.64498145  0.76113489  0.02474307  1
  Li  Li1  1  0.88010830  0.84068170  0.12401387  1
  Li  Li2  1  0.46441359  0.94724005  0.04470462  1
  Li  Li3  1  0.03273354  0.69236751  0.11381923  1
  Li  Li4  1  0.44435319  0.28943227  0.14700014  1
  Li  Li5  1  0.48566591  0.26441049  0.09987882  1
  Li  Li6  1  0.04140109  0.35728769  0.05425759  1
  Li  Li7  1  0.06704202  0.12207261  0.04793150  1
  Li  Li8  1  0.46709863  0.46333815  0.11388791  1
  Li  Li9  1  0.87150864  0.35341440  0.02657758  1
  Li  Li10  1  0.67097360  0.26657452  0.13148874  1
  Li  Li11  1  0.07410271  0.84753228  0.14968174  1
  Li  Li12  1  0.90657432  0.29807429  0.16863228  1
  Li  Li13  1  0.03040894  0.89189362  0.08709742  1
  Li  Li14  1  0.47771687  0.74155811  0.06333395  1
  Li  Li15  1  0.98853149  0.90304060  0.04001845  1
  Li  Li16  1  0.54024277  0.70995804  0.11436432  1
  Li  Li17  1  0.57777581  0.27057240  0.02852412  1
  Li  Li18  1  0.90030017  0.35062218  0.12127389  1
  Li  Li19  1  0.76040835  0.51797355  0.00937463  1
  Li  Li20  1  0.77925070  0.10813521  0.14472849  1
  Li  Li21  1  0.22563559  0.01975103  0.05883201  1
  Li  Li22  1  0.31909960  0.59002459  0.09590223  1
  Li  Li23  1  0.82342039  0.75562667  0.01021037  1
  Li  Li24  1  0.68739738  0.87552295  0.14159780  1
  Li  Li25  1  0.44395343  0.13204021  0.06055745  1
  Li  Li26  1  0.06917095  0.49314938  0.09647243  1
  Li  Li27  1  0.10276559  0.29454302  0.20081025  1
  Li  Li28  1  0.36983747  0.36286358  0.29899738  1
  Li  Li29  1  0.96572924  0.43285965  0.21120093  1
  Li  Li30  1  0.51402770  0.21988781  0.28900744  1
  Li  Li31  1  0.92172471  0.81037707  0.31838821  1
  Li  Li32  1  0.56108032  0.85444306  0.18198712  1
  Li  Li33  1  0.95707574  0.77226960  0.26797982  1
  Li  Li34  1  0.52428226  0.89020056  0.23247675  1
  Li  Li35  1  0.53377281  0.68028994  0.21439503  1
  Li  Li36  1  0.93993608  0.98620689  0.28378625  1
  Li  Li37  1  0.35392457  0.86572296  0.19949391  1
  Li  Li38  1  0.12955154  0.79637796  0.30039677  1
  Li  Li39  1  0.56718342  0.36209496  0.32943245  1
  Li  Li40  1  0.40657647  0.81151622  0.34898091  1
  Li  Li41  1  0.52104769  0.40885383  0.26108618  1
  Li  Li42  1  0.97172762  0.24066563  0.24303336  1
  Li  Li43  1  0.46717366  0.43573653  0.21179965  1
  Li  Li44  1  0.01876454  0.22874679  0.28939487  1
  Li  Li45  1  0.10823943  0.79608760  0.20046333  1
  Li  Li46  1  0.37798461  0.86543264  0.29842914  1
  Li  Li47  1  0.22071176  0.01516934  0.18251092  1
  Li  Li48  1  0.26206913  0.64654663  0.31672960  1
  Li  Li49  1  0.68932954  0.55268457  0.23053416  1
  Li  Li50  1  0.78759863  0.10768584  0.26928350  1
  Li  Li51  1  0.31018084  0.26045963  0.18537853  1
  Li  Li52  1  0.17053961  0.40282032  0.31493793  1
  Li  Li53  1  0.93110421  0.63845676  0.22766669  1
  Li  Li54  1  0.54991775  0.02175708  0.27205903  1
  Li  Li55  1  0.58914666  0.81624662  0.37682687  1
  Li  Li56  1  0.88310689  0.89288460  0.46690271  1
  Li  Li57  1  0.45074293  0.96139105  0.38763605  1
  Li  Li58  1  0.99731246  0.74059868  0.45644865  1
  Li  Li59  1  0.03443218  0.36589898  0.35628935  1
  Li  Li60  1  0.43730389  0.30127119  0.44658097  1
  Li  Li61  1  0.00329880  0.39984328  0.40336758  1
  Li  Li62  1  0.02286741  0.17878074  0.39304805  1
  Li  Li63  1  0.40907216  0.52732841  0.45870052  1
  Li  Li64  1  0.81846605  0.39509148  0.36828589  1
  Li  Li65  1  0.61175290  0.32583122  0.47218933  1
  Li  Li66  1  0.00107508  0.95179513  0.42569072  1
  Li  Li67  1  0.45573469  0.76067125  0.41918912  1
  Li  Li68  1  0.94351298  0.95125423  0.38155253  1
  Li  Li69  1  0.50039668  0.78171091  0.46637757  1
  Li  Li70  1  0.58193504  0.31486792  0.37621978  1
  Li  Li71  1  0.86634164  0.39938665  0.46818429  1
  Li  Li72  1  0.70274532  0.54651529  0.35589519  1
  Li  Li73  1  0.76188387  0.25240709  0.49516281  1
  Li  Li74  1  0.18905174  0.07507491  0.40292433  1
  Li  Li75  1  0.24330374  0.62037921  0.43777682  1
  Li  Li76  1  0.78536291  0.77859646  0.35846335  1
  Li  Li77  1  0.70793055  0.00333209  0.48943866  1
  Li  Li78  1  0.41765531  0.16339337  0.40260300  1
  Li  Li79  1  0.02940203  0.53221833  0.44382784  1
  Li  Li80  1  0.58229520  0.99040952  0.52472983  1
  Li  Li81  1  0.34359043  0.90829224  0.62389196  1
  Li  Li82  1  0.76189231  0.80363047  0.54435906  1
  Li  Li83  1  0.19237177  0.05825785  0.61352889  1
  Li  Li84  1  0.77901882  0.46065396  0.64635277  1
  Li  Li85  1  0.73913068  0.48715842  0.59949584  1
  Li  Li86  1  0.18252313  0.39179755  0.55433165  1
  Li  Li87  1  0.15692616  0.62580107  0.54791119  1
  Li  Li88  1  0.75788977  0.28718822  0.61358902  1
  Li  Li89  1  0.35309810  0.39785862  0.52641025  1
  Li  Li90  1  0.55383991  0.48252692  0.63171604  1
  Li  Li91  1  0.15130830  0.90346781  0.65002513  1
  Li  Li92  1  0.31721645  0.45096997  0.66922384  1
  Li  Li93  1  0.19456840  0.85751435  0.58666515  1
  Li  Li94  1  0.74715682  0.00787475  0.56357491  1
  Li  Li95  1  0.23662124  0.84585578  0.53964143  1
  Li  Li96  1  0.68269409  0.03894527  0.61447287  1
  Li  Li97  1  0.64706206  0.47899594  0.52840844  1
  Li  Li98  1  0.32443048  0.39949535  0.62159317  1
  Li  Li99  1  0.46644383  0.23374854  0.50885602  1
  Li  Li100  1  0.44546608  0.64054283  0.64498780  1
  Li  Li101  1  0.99932772  0.73055070  0.55877466  1
  Li  Li102  1  0.90536239  0.16006621  0.59623673  1
  Li  Li103  1  0.40280755  0.99288117  0.51005415  1
  Li  Li104  1  0.53697987  0.87326264  0.64180910  1
  Li  Li105  1  0.78051533  0.61839392  0.56063699  1
  Li  Li106  1  0.15639921  0.25702023  0.59644111  1
  Li  Li107  1  0.11930496  0.45536098  0.70123194  1
  Li  Li108  1  0.85473221  0.38645532  0.79896225  1
  Li  Li109  1  0.25830879  0.31648967  0.71138937  1
  Li  Li110  1  0.71075581  0.52921179  0.78908467  1
  Li  Li111  1  0.30220265  0.93962562  0.81821984  1
  Li  Li112  1  0.66377557  0.89605397  0.68200456  1
  Li  Li113  1  0.26736303  0.97831729  0.76811646  1
  Li  Li114  1  0.69950508  0.86004049  0.73246729  1
  Li  Li115  1  0.68992705  0.07100844  0.71468310  1
  Li  Li116  1  0.28211488  0.76419412  0.78404518  1
  Li  Li117  1  0.86967341  0.88546130  0.69979600  1
  Li  Li118  1  0.09410836  0.95359334  0.80060664  1
  Li  Li119  1  0.65868341  0.38801562  0.82960976  1
  Li  Li120  1  0.81813546  0.93805093  0.84893931  1
  Li  Li121  1  0.70413411  0.34239331  0.76072231  1
  Li  Li122  1  0.25324565  0.50905771  0.74306628  1
  Li  Li123  1  0.75945050  0.31535948  0.71145779  1
  Li  Li124  1  0.20657256  0.52176748  0.78971139  1
  Li  Li125  1  0.11836033  0.95607077  0.70083388  1
  Li  Li126  1  0.84800837  0.88607412  0.79879240  1
  Li  Li127  1  0.00440125  0.73860051  0.68287981  1
  Li  Li128  1  0.96387562  0.10497334  0.81705470  1
  Li  Li129  1  0.53473637  0.19770216  0.73085156  1
  Li  Li130  1  0.43649544  0.64281995  0.76954014  1
  Li  Li131  1  0.91543773  0.49089869  0.68512844  1
  Li  Li132  1  0.05480143  0.34871393  0.81508477  1
  Li  Li133  1  0.29289531  0.11211473  0.72769102  1
  Li  Li134  1  0.67513911  0.72911672  0.77207342  1
  Li  Li135  1  0.63627272  0.93346398  0.87693773  1
  Li  Li136  1  0.34407136  0.85757236  0.96738934  1
  Li  Li137  1  0.77558968  0.78764256  0.88761790  1
  Li  Li138  1  0.22859579  0.00862871  0.95690165  1
  Li  Li139  1  0.19131625  0.38370295  0.85648995  1
  Li  Li140  1  0.78808514  0.44788985  0.94687268  1
  Li  Li141  1  0.22240418  0.34985733  0.90382208  1
  Li  Li142  1  0.20448313  0.57090323  0.89310003  1
  Li  Li143  1  0.81619314  0.22158502  0.95847131  1
  Li  Li144  1  0.40718780  0.35568083  0.86836880  1
  Li  Li145  1  0.61421171  0.42483676  0.97233549  1
  Li  Li146  1  0.22499641  0.80102191  0.92618377  1
  Li  Li147  1  0.77015947  0.98952091  0.91948358  1
  Li  Li148  1  0.28155732  0.79796117  0.88206654  1
  Li  Li149  1  0.72637716  0.97015086  0.96677165  1
  Li  Li150  1  0.64318217  0.43469511  0.87646322  1
  Li  Li151  1  0.36112651  0.35136949  0.96861282  1
  Li  Li152  1  0.52285062  0.20368610  0.85635102  1
  Li  Li153  1  0.46325403  0.49855755  0.99538519  1
  Li  Li154  1  0.03871931  0.67603178  0.90305095  1
  Li  Li155  1  0.98170311  0.12918286  0.93823691  1
  Li  Li156  1  0.43851148  0.97057963  0.85856719  1
  Li  Li157  1  0.51866713  0.74553385  0.98978064  1
  Li  Li158  1  0.80719170  0.58615062  0.90270233  1
  Li  Li159  1  0.19575449  0.21707476  0.94416980  1
  La  La160  1  0.76537846  0.05941049  0.03220090  1
  La  La161  1  0.75304294  0.56108923  0.11848726  1
  La  La162  1  0.25590416  0.06336656  0.12014377  1
  La  La163  1  0.27112882  0.55758316  0.03069972  1
  La  La164  1  0.29797307  0.19310317  0.01434197  1
  La  La165  1  0.19000905  0.38002088  0.14139000  1
  La  La166  1  0.96165926  0.62424087  0.05254797  1
  La  La167  1  0.57142909  0.99976068  0.09945443  1
  La  La168  1  0.56859526  0.50526274  0.05525272  1
  La  La169  1  0.95082205  0.12707879  0.09819275  1
  La  La170  1  0.21790144  0.86440180  0.01407726  1
  La  La171  1  0.31708214  0.75885268  0.14300757  1
  La  La172  1  0.24578534  0.57534856  0.20651002  1
  La  La173  1  0.23324755  0.08272996  0.29326076  1
  La  La174  1  0.73207611  0.58254197  0.29346419  1
  La  La175  1  0.75151063  0.08029661  0.20697500  1
  La  La176  1  0.81126198  0.75894107  0.18454399  1
  La  La177  1  0.67076780  0.90057515  0.31515876  1
  La  La178  1  0.43160685  0.14145850  0.22858415  1
  La  La179  1  0.04984598  0.51918017  0.27130050  1
  La  La180  1  0.05467010  0.01386962  0.22868624  1
  La  La181  1  0.42760596  0.64325803  0.27085932  1
  La  La182  1  0.68668299  0.38555176  0.18451318  1
  La  La183  1  0.79321338  0.27503590  0.31519885  1
  La  La184  1  0.73230198  0.10165006  0.38064662  1
  La  La185  1  0.72627010  0.60520247  0.46349116  1
  La  La186  1  0.22223366  0.09535572  0.46870719  1
  La  La187  1  0.22949008  0.59723935  0.37912815  1
  La  La188  1  0.28959475  0.27921065  0.35810325  1
  La  La189  1  0.15899252  0.41207579  0.48723559  1
  La  La190  1  0.91350795  0.66239702  0.40017351  1
  La  La191  1  0.53567102  0.05059277  0.44928700  1
  La  La192  1  0.53364346  0.53576238  0.40236027  1
  La  La193  1  0.91743394  0.16651216  0.44892796  1
  La  La194  1  0.16963792  0.90316250  0.35711768  1
  La  La195  1  0.24518280  0.76098448  0.48667590  1
  La  La196  1  0.45881498  0.69034585  0.53241937  1
  La  La197  1  0.47151123  0.18857368  0.61850492  1
  La  La198  1  0.96953460  0.68722155  0.62020025  1
  La  La199  1  0.95341800  0.19307717  0.53084813  1
  La  La200  1  0.92661973  0.55633271  0.51430846  1
  La  La201  1  0.03479280  0.36993230  0.64153121  1
  La  La202  1  0.26384411  0.12575160  0.55223275  1
  La  La203  1  0.65350492  0.74994012  0.59949088  1
  La  La204  1  0.65596733  0.24481861  0.55529466  1
  La  La205  1  0.27412112  0.62264040  0.59828004  1
  La  La206  1  0.00748701  0.88541103  0.51389033  1
  La  La207  1  0.90764222  0.99097721  0.64302535  1
  La  La208  1  0.97864088  0.17442136  0.70657602  1
  La  La209  1  0.99124589  0.66700940  0.79341622  1
  La  La210  1  0.49305759  0.16780519  0.79363465  1
  La  La211  1  0.47309204  0.66986786  0.70701609  1
  La  La212  1  0.41370576  0.99113662  0.68464641  1
  La  La213  1  0.55389281  0.84956969  0.81527625  1
  La  La214  1  0.79299682  0.60860117  0.72859199  1
  La  La215  1  0.17475288  0.23085828  0.77147528  1
  La  La216  1  0.17007066  0.73605524  0.72879973  1
  La  La217  1  0.79697129  0.10675504  0.77099410  1
  La  La218  1  0.53811169  0.36423609  0.68462853  1
  La  La219  1  0.43202984  0.47512870  0.81535038  1
  La  La220  1  0.49346412  0.64867591  0.88085932  1
  La  La221  1  0.49942035  0.14515066  0.96366497  1
  La  La222  1  0.00338694  0.65396487  0.96889799  1
  La  La223  1  0.99581027  0.15262459  0.87937562  1
  La  La224  1  0.93573238  0.47082817  0.85831756  1
  La  La225  1  0.06593255  0.33668205  0.98733678  1
  La  La226  1  0.31183293  0.08775303  0.90036552  1
  La  La227  1  0.69053330  0.70005487  0.94940323  1
  La  La228  1  0.69175695  0.21410313  0.90255610  1
  La  La229  1  0.30810674  0.58379662  0.94913663  1
  La  La230  1  0.05589280  0.84716799  0.85728028  1
  La  La231  1  0.97912476  0.98694175  0.98694156  1
  Zr  Zr232  1  0.50091724  0.57149950  0.16330225  1
  Zr  Zr233  1  0.75095928  0.30705949  0.07416587  1
  Zr  Zr234  1  0.00100529  0.06786671  0.16320753  1
  Zr  Zr235  1  0.25823033  0.80279959  0.07892804  1
  Zr  Zr236  1  0.76149214  0.80965754  0.07460881  1
  Zr  Zr237  1  0.99912788  0.56737671  0.16246201  1
  Zr  Zr238  1  0.50232599  0.07210126  0.16383675  1
  Zr  Zr239  1  0.26285469  0.31149708  0.07582793  1
  Zr  Zr240  1  0.98116025  0.09125275  0.33626502  1
  Zr  Zr241  1  0.24122755  0.82937055  0.24972324  1
  Zr  Zr242  1  0.48081383  0.58997038  0.33646129  1
  Zr  Zr243  1  0.74138919  0.33083993  0.24981194  1
  Zr  Zr244  1  0.24137591  0.33033269  0.24978832  1
  Zr  Zr245  1  0.48058514  0.08998598  0.33754541  1
  Zr  Zr246  1  0.98134723  0.58875695  0.33610261  1
  Zr  Zr247  1  0.74022907  0.82973493  0.24987402  1
  Zr  Zr248  1  0.72361751  0.34705729  0.42267262  1
  Zr  Zr249  1  0.22640094  0.85187041  0.42252810  1
  Zr  Zr250  1  0.72750525  0.85709329  0.42352368  1
  Zr  Zr251  1  0.22204584  0.34486897  0.42291497  1
  Zr  Zr252  1  0.72389649  0.17858630  0.66330801  1
  Zr  Zr253  1  0.47328323  0.44229301  0.57425876  1
  Zr  Zr254  1  0.22354878  0.68163387  0.66334721  1
  Zr  Zr255  1  0.96714640  0.94758576  0.57887574  1
  Zr  Zr256  1  0.46359940  0.94029494  0.57460525  1
  Zr  Zr257  1  0.22543070  0.18229579  0.66249051  1
  Zr  Zr258  1  0.72256137  0.67787078  0.66387257  1
  Zr  Zr259  1  0.96165946  0.43864145  0.57596426  1
  Zr  Zr260  1  0.24416699  0.65906813  0.83649985  1
  Zr  Zr261  1  0.98331377  0.92036612  0.74988655  1
  Zr  Zr262  1  0.74434724  0.16008060  0.83663171  1
  Zr  Zr263  1  0.48314707  0.41960922  0.74988833  1
  Zr  Zr264  1  0.98325362  0.41958589  0.74994586  1
  Zr  Zr265  1  0.74440864  0.65997480  0.83763618  1
  Zr  Zr266  1  0.24390604  0.16141569  0.83626417  1
  Zr  Zr267  1  0.48384921  0.92032988  0.75000613  1
  Zr  Zr268  1  0.50160146  0.40317682  0.92290669  1
  Zr  Zr269  1  0.99919320  0.89810939  0.92269419  1
  Zr  Zr270  1  0.49821421  0.89303654  0.92377611  1
  Zr  Zr271  1  0.00345150  0.40515318  0.92310067  1
  O  O272  1  0.15589941  0.61786696  0.07409140  1
  O  O273  1  0.36710452  0.99787011  0.08468665  1
  O  O274  1  0.80838074  0.96691951  0.16602269  1
  O  O275  1  0.19167668  0.17174724  0.15983051  1
  O  O276  1  0.89252359  0.46254073  0.08832730  1
  O  O277  1  0.61645018  0.14384584  0.05930508  1
  O  O278  1  0.66059327  0.70438575  0.14788627  1
  O  O279  1  0.85342116  0.92428781  0.02087938  1
  O  O280  1  0.49339957  0.61606161  0.02173040  1
  O  O281  1  0.02336386  0.98646909  0.12753367  1
  O  O282  1  0.34359397  0.78123320  0.04347030  1
  O  O283  1  0.17963698  0.82956339  0.11424315  1
  O  O284  1  0.57397138  0.44096940  0.14566267  1
  O  O285  1  0.63118367  0.38839433  0.09189044  1
  O  O286  1  0.88458645  0.23493237  0.05513219  1
  O  O287  1  0.17250546  0.30134507  0.04077336  1
  O  O288  1  0.34141796  0.30301004  0.11291724  1
  O  O289  1  0.03128638  0.47372769  0.02482174  1
  O  O290  1  0.49622497  0.15549552  0.12813360  1
  O  O291  1  0.93032167  0.70269032  0.14522590  1
  O  O292  1  0.89320258  0.73712732  0.09271459  1
  O  O293  1  0.62606297  0.87651688  0.05535442  1
  O  O294  1  0.11795473  0.02671908  0.02330588  1
  O  O295  1  0.38995408  0.57161390  0.13069820  1
  O  O296  1  0.73496973  0.40210186  0.03835417  1
  O  O297  1  0.76114015  0.19823975  0.10672757  1
  O  O298  1  0.50322590  0.30677218  0.99547633  1
  O  O299  1  0.96092175  0.21195887  0.14212024  1
  O  O300  1  0.11555220  0.84103833  0.05883080  1
  O  O301  1  0.41222547  0.77197247  0.09752629  1
  O  O302  1  0.91423627  0.97055164  0.06810005  1
  O  O303  1  0.62292132  0.64659895  0.08971684  1
  O  O304  1  0.16210048  0.70104721  0.17669424  1
  O  O305  1  0.83672861  0.42557497  0.14798466  1
  O  O306  1  0.31497054  0.96249550  0.15878891  1
  O  O307  1  0.69452735  0.18200495  0.16712426  1
  O  O308  1  0.16201914  0.11954392  0.08091792  1
  O  O309  1  0.36180548  0.50296559  0.06951319  1
  O  O310  1  0.76096799  0.68104801  0.04346682  1
  O  O311  1  0.74053278  0.91052784  0.10720770  1
  O  O312  1  0.36371009  0.04219740  0.03382618  1
  O  O313  1  0.10639471  0.55440305  0.13082830  1
  O  O314  1  0.98936751  0.74009549  0.00958516  1
  O  O315  1  0.54112907  0.92428095  0.14452041  1
  O  O316  1  0.41845606  0.28717143  0.05641839  1
  O  O317  1  0.10961623  0.34099651  0.09568644  1
  O  O318  1  0.64063803  0.13839713  0.24688494  1
  O  O319  1  0.84335607  0.52212674  0.25313002  1
  O  O320  1  0.28957411  0.48801937  0.33992321  1
  O  O321  1  0.67304796  0.69070133  0.33277537  1
  O  O322  1  0.37595129  0.98997388  0.26487300  1
  O  O323  1  0.10684966  0.66954822  0.23428682  1
  O  O324  1  0.13923099  0.22633762  0.32058160  1
  O  O325  1  0.34081108  0.43545183  0.17837030  1
  O  O326  1  0.97620273  0.14209414  0.19893440  1
  O  O327  1  0.50402644  0.51188870  0.30094293  1
  O  O328  1  0.81520833  0.30498957  0.21402723  1
  O  O329  1  0.65948815  0.35607003  0.28489291  1
  O  O330  1  0.05665886  0.95921954  0.31921682  1
  O  O331  1  0.42726627  0.70349310  0.18070820  1
  O  O332  1  0.10953972  0.90384514  0.26680273  1
  O  O333  1  0.37343687  0.75625876  0.23253053  1
  O  O334  1  0.66204486  0.84195333  0.21370938  1
  O  O335  1  0.81954576  0.81996169  0.28607226  1
  O  O336  1  0.51419081  0.99409410  0.19999237  1
  O  O337  1  0.96891288  0.66943854  0.30022233  1
  O  O338  1  0.41401851  0.22853182  0.32020774  1
  O  O339  1  0.06287462  0.42775017  0.17970342  1
  O  O340  1  0.37744461  0.26318452  0.26743695  1
  O  O341  1  0.10165878  0.39400635  0.23246294  1
  O  O342  1  0.61033086  0.56995949  0.19599691  1
  O  O343  1  0.86905146  0.09074971  0.30368628  1
  O  O344  1  0.23987652  0.93847261  0.21687376  1
  O  O345  1  0.24221457  0.72113939  0.28256272  1
  O  O346  1  0.03745466  0.91881169  0.18271266  1
  O  O347  1  0.44518276  0.73954977  0.31663663  1
  O  O348  1  0.59280573  0.36743829  0.22968276  1
  O  O349  1  0.88758609  0.29364966  0.27038657  1
  O  O350  1  0.37645208  0.49327257  0.23569100  1
  O  O351  1  0.10010109  0.16910688  0.26350033  1
  O  O352  1  0.64072960  0.23306120  0.35052155  1
  O  O353  1  0.31986531  0.95568590  0.32238622  1
  O  O354  1  0.79003012  0.47870582  0.33257816  1
  O  O355  1  0.16965677  0.69771610  0.34139996  1
  O  O356  1  0.63074451  0.64041100  0.25490271  1
  O  O357  1  0.85201469  0.01986834  0.24564519  1
  O  O358  1  0.24893945  0.21434355  0.21878747  1
  O  O359  1  0.23386275  0.44461640  0.28109349  1
  O  O360  1  0.88355517  0.57344165  0.19391627  1
  O  O361  1  0.59409787  0.08387017  0.30570316  1
  O  O362  1  0.46483992  0.22132435  0.18286169  1
  O  O363  1  0.01766285  0.44217625  0.31640143  1
  O  O364  1  0.88785608  0.79044781  0.23033114  1
  O  O365  1  0.59300928  0.86970949  0.26927044  1
  O  O366  1  0.11394264  0.65716896  0.41900195  1
  O  O367  1  0.33253085  0.03839324  0.42684760  1
  O  O368  1  0.85649364  0.51212768  0.43982700  1
  O  O369  1  0.59178788  0.19602814  0.40701217  1
  O  O370  1  0.89411204  0.73738102  0.48414393  1
  O  O371  1  0.82473324  0.95286469  0.35151289  1
  O  O372  1  0.45482740  0.66939300  0.37169848  1
  O  O373  1  0.00246700  0.04972204  0.48028196  1
  O  O374  1  0.30261394  0.82367434  0.38706314  1
  O  O375  1  0.14453883  0.87583904  0.45743238  1
  O  O376  1  0.89985574  0.22003474  0.35235891  1
  O  O377  1  0.59031400  0.42544826  0.44094305  1
  O  O378  1  0.85345090  0.27365296  0.40734735  1
  O  O379  1  0.14213602  0.35684488  0.38670275  1
  O  O380  1  0.29604067  0.34230388  0.45940247  1
  O  O381  1  0.99059183  0.50758907  0.37213381  1
  O  O382  1  0.45628626  0.18796133  0.47442527  1
  O  O383  1  0.55059577  0.95547584  0.35494080  1
  O  O384  1  0.87140080  0.78790244  0.43541237  1
  O  O385  1  0.58600462  0.91863687  0.40828310  1
  O  O386  1  0.09255507  0.09055850  0.36845017  1
  O  O387  1  0.36499683  0.59341064  0.49110184  1
  O  O388  1  0.72170567  0.46344879  0.39116298  1
  O  O389  1  0.72819523  0.24546017  0.45694655  1
  O  O390  1  0.51949950  0.44628573  0.35780287  1
  O  O391  1  0.94115505  0.30180708  0.49090392  1
  O  O392  1  0.08413333  0.89057103  0.40070109  1
  O  O393  1  0.35320542  0.79038870  0.44461269  1
  O  O394  1  0.86614399  0.01434843  0.40805273  1
  O  O395  1  0.58618183  0.70130203  0.44167984  1
  O  O396  1  0.11223460  0.15358355  0.42722328  1
  O  O397  1  0.33443206  0.53914620  0.41991458  1
  O  O398  1  0.71605898  0.73353308  0.39210795  1
  O  O399  1  0.75306560  0.96847076  0.45632075  1
  O  O400  1  0.36531697  0.09585461  0.36879653  1
  O  O401  1  0.08467124  0.57725885  0.47729776  1
  O  O402  1  0.93857518  0.73557086  0.35599491  1
  O  O403  1  0.53595722  0.94590691  0.48589895  1
  O  O404  1  0.37028576  0.31154133  0.40311986  1
  O  O405  1  0.07416358  0.38459434  0.44084736  1
  O  O406  1  0.06953089  0.13235943  0.57400327  1
  O  O407  1  0.85823514  0.75219497  0.58464757  1
  O  O408  1  0.41648909  0.78218537  0.66622994  1
  O  O409  1  0.03320731  0.57820037  0.65974798  1
  O  O410  1  0.33243418  0.28616539  0.58842489  1
  O  O411  1  0.60787728  0.60556789  0.55954295  1
  O  O412  1  0.56469876  0.04490675  0.64801184  1
  O  O413  1  0.37100388  0.82448496  0.52042714  1
  O  O414  1  0.73211943  0.13552000  0.52174118  1
  O  O415  1  0.20151963  0.76296513  0.62761938  1
  O  O416  1  0.88174612  0.96909576  0.54334130  1
  O  O417  1  0.04546799  0.92091177  0.61416579  1
  O  O418  1  0.65029374  0.30874187  0.64567165  1
  O  O419  1  0.59374566  0.36125113  0.59189588  1
  O  O420  1  0.33953180  0.51430140  0.55530609  1
  O  O421  1  0.05122804  0.44710425  0.54082034  1
  O  O422  1  0.88297793  0.44781032  0.61292043  1
  O  O423  1  0.19347129  0.27616075  0.52468997  1
  O  O424  1  0.72805970  0.59477593  0.62806173  1
  O  O425  1  0.29473994  0.04741256  0.64524771  1
  O  O426  1  0.33156419  0.01200519  0.59268555  1
  O  O427  1  0.59909185  0.87364803  0.55530172  1
  O  O428  1  0.10670773  0.72219608  0.52320434  1
  O  O429  1  0.83513103  0.17899464  0.63079412  1
  O  O430  1  0.48932729  0.34752567  0.53828335  1
  O  O431  1  0.46300987  0.55075911  0.60685495  1
  O  O432  1  0.72106956  0.44338724  0.49546794  1
  O  O433  1  0.26389785  0.53745334  0.64236528  1
  O  O434  1  0.10948330  0.90888392  0.55863698  1
  O  O435  1  0.81292687  0.97817582  0.59752934  1
  O  O436  1  0.31181617  0.77866447  0.56785871  1
  O  O437  1  0.60173450  0.10323723  0.58973948  1
  O  O438  1  0.06269441  0.04827107  0.67673217  1
  O  O439  1  0.38794368  0.32406794  0.64816127  1
  O  O440  1  0.90989242  0.78748607  0.65871491  1
  O  O441  1  0.53069637  0.56767236  0.66727640  1
  O  O442  1  0.06344084  0.63062752  0.58085022  1
  O  O443  1  0.86244039  0.24721239  0.56978715  1
  O  O444  1  0.46401556  0.06802825  0.54343014  1
  O  O445  1  0.48467192  0.83938997  0.60725319  1
  O  O446  1  0.86091563  0.70757201  0.53367079  1
  O  O447  1  0.11830781  0.19570778  0.63088292  1
  O  O448  1  0.23621684  0.00954190  0.50939071  1
  O  O449  1  0.68389717  0.82574619  0.64454715  1
  O  O450  1  0.80627435  0.46321825  0.55652814  1
  O  O451  1  0.11498307  0.40899904  0.59579074  1
  O  O452  1  0.58448690  0.61182567  0.74690100  1
  O  O453  1  0.38126957  0.22824525  0.75316168  1
  O  O454  1  0.93567319  0.26229709  0.84005527  1
  O  O455  1  0.55218850  0.05907045  0.83299377  1
  O  O456  1  0.84906470  0.75982354  0.76497798  1
  O  O457  1  0.11766290  0.08043755  0.73439090  1
  O  O458  1  0.08611015  0.52430084  0.82073249  1
  O  O459  1  0.88391616  0.31458348  0.67856421  1
  O  O460  1  0.24787462  0.60722504  0.69908101  1
  O  O461  1  0.72054653  0.23807667  0.80114359  1
  O  O462  1  0.40885257  0.44499397  0.71411639  1
  O  O463  1  0.56498034  0.39393315  0.78496713  1
  O  O464  1  0.16828851  0.79069665  0.81937632  1
  O  O465  1  0.79779006  0.04661536  0.68075404  1
  O  O466  1  0.11530888  0.84604155  0.76698959  1
  O  O467  1  0.85107993  0.99338289  0.73269384  1
  O  O468  1  0.56256842  0.90851257  0.71385338  1
  O  O469  1  0.40463775  0.93018985  0.78619045  1
  O  O470  1  0.71030805  0.75624225  0.69998684  1
  O  O471  1  0.25545620  0.08075553  0.80032894  1
  O  O472  1  0.81109012  0.52152408  0.82030145  1
  O  O473  1  0.16109745  0.32141692  0.67988239  1
  O  O474  1  0.84708848  0.48690140  0.76751481  1
  O  O475  1  0.12274207  0.35570403  0.73266595  1
  O  O476  1  0.61440673  0.18042027  0.69603105  1
  O  O477  1  0.35581062  0.65977717  0.80387484  1
  O  O478  1  0.98483894  0.81202345  0.71696871  1
  O  O479  1  0.98266822  0.02914084  0.78270081  1
  O  O480  1  0.18785363  0.83138793  0.68287557  1
  O  O481  1  0.78002234  0.01073238  0.81675613  1
  O  O482  1  0.63184429  0.38298771  0.72967016  1
  O  O483  1  0.33728578  0.45682229  0.77055833  1
  O  O484  1  0.84787071  0.25682546  0.73578555  1
  O  O485  1  0.12430101  0.58087601  0.76371021  1
  O  O486  1  0.58443280  0.51695683  0.85072447  1
  O  O487  1  0.90521697  0.79467152  0.82256957  1
  O  O488  1  0.43526102  0.27126206  0.83275850  1
  O  O489  1  0.05551098  0.05243964  0.84157472  1
  O  O490  1  0.59381014  0.10963788  0.75500954  1
  O  O491  1  0.37259951  0.73024784  0.74565409  1
  O  O492  1  0.97589915  0.53509783  0.71882585  1
  O  O493  1  0.99041443  0.30542388  0.78128620  1
  O  O494  1  0.34067402  0.17596074  0.69400428  1
  O  O495  1  0.63066073  0.66597952  0.80582697  1
  O  O496  1  0.76004028  0.52878376  0.68287344  1
  O  O497  1  0.20731656  0.30808075  0.81655283  1
  O  O498  1  0.33639087  0.95980807  0.73044968  1
  O  O499  1  0.63122902  0.88051242  0.76942413  1
  O  O500  1  0.11112241  0.09307668  0.91912869  1
  O  O501  1  0.89292685  0.71165460  0.92693452  1
  O  O502  1  0.36882109  0.23823910  0.94009392  1
  O  O503  1  0.63339852  0.55396244  0.90717898  1
  O  O504  1  0.33178064  0.01294549  0.98442921  1
  O  O505  1  0.40051472  0.79696383  0.85178058  1
  O  O506  1  0.77054071  0.08068320  0.87184570  1
  O  O507  1  0.22361260  0.69994161  0.98077823  1
  O  O508  1  0.92325948  0.92596908  0.88719700  1
  O  O509  1  0.08153388  0.87341829  0.95753622  1
  O  O510  1  0.32541050  0.53007475  0.85261416  1
  O  O511  1  0.63496911  0.32476346  0.94115780  1
  O  O512  1  0.37164821  0.47695355  0.90768922  1
  O  O513  1  0.08324222  0.39304264  0.88694774  1
  O  O514  1  0.92922563  0.40705395  0.95964136  1
  O  O515  1  0.23499799  0.24260431  0.87229803  1
  O  O516  1  0.76991060  0.56215826  0.97470569  1
  O  O517  1  0.67456313  0.79440926  0.85510321  1
  O  O518  1  0.35463004  0.96272114  0.93573882  1
  O  O519  1  0.63949188  0.83135718  0.90843961  1
  O  O520  1  0.13291992  0.65940544  0.86875432  1
  O  O521  1  0.85834676  0.15295568  0.99074585  1
  O  O522  1  0.50351417  0.28675323  0.89137604  1
  O  O523  1  0.49764237  0.50511934  0.95717828  1
  O  O524  1  0.70583652  0.30376412  0.85802567  1
  O  O525  1  0.28379985  0.44748320  0.99109475  1
  O  O526  1  0.14223497  0.86005393  0.90089855  1
  O  O527  1  0.87231130  0.95874211  0.94476471  1
  O  O528  1  0.35935934  0.73560201  0.90839432  1
  O  O529  1  0.63974064  0.04906150  0.94178697  1
  O  O530  1  0.11305878  0.59625278  0.92761282  1
  O  O531  1  0.89082136  0.21048577  0.92019293  1
  O  O532  1  0.50865164  0.01631968  0.89231115  1
  O  O533  1  0.47268688  0.78201678  0.95664572  1
  O  O534  1  0.85971032  0.65404426  0.86889788  1
  O  O535  1  0.13890434  0.17117613  0.97743396  1
  O  O536  1  0.28622044  0.01448824  0.85608183  1
  O  O537  1  0.69070265  0.80452241  0.98602380  1
  O  O538  1  0.85474164  0.43795018  0.90330914  1
  O  O539  1  0.15076290  0.36495254  0.94110826  1
