# generated using pymatgen
data_Li37La15Zr10O61
_symmetry_space_group_name_H-M   'P 1'
_cell_length_a   11.27162600
_cell_length_b   11.27162572
_cell_length_c   48.73621633
_cell_angle_alpha   90.00000000
_cell_angle_beta   90.00000000
_cell_angle_gamma   108.34782046
_symmetry_Int_Tables_number   1
_chemical_formula_structural   Li37La15Zr10O61
_chemical_formula_sum   'Li148 La60 Zr40 O244'
_cell_volume   5877.13648530
_cell_formula_units_Z   4
loop_
 _symmetry_equiv_pos_site_id
 _symmetry_equiv_pos_as_xyz
  1  'x, y, z'
loop_
 _atom_site_type_symbol
 _atom_site_label
 _atom_site_symmetry_multiplicity
 _atom_site_fract_x
 _atom_site_fract_y
 _atom_site_fract_z
 _atom_site_occupancy
  Li  Li0  1  0.67962150  0.78625824  0.00609542  1
  Li  Li1  1  0.95090811  0.86556728  0.11330389  1
  Li  Li2  1  0.57276299  0.97402490  0.03022997  1
  Li  Li3  1  0.09794049  0.75783597  0.10304727  1
  Li  Li4  1  0.49927152  0.31437218  0.13689582  1
  Li  Li5  1  0.61393247  0.87641171  0.17605300  1
  Li  Li6  1  0.53003402  0.28140457  0.08553205  1
  Li  Li7  1  0.08604693  0.37187934  0.04959570  1
  Li  Li8  1  0.83191384  0.07756912  0.03327402  1
  Li  Li9  1  0.50707984  0.49249425  0.09833550  1
  Li  Li10  1  0.70773893  0.29447378  0.11463227  1
  Li  Li11  1  0.14174850  0.86553565  0.15087318  1
  Li  Li12  1  0.97466992  0.31847697  0.16560603  1
  Li  Li13  1  0.11779162  0.97574690  0.04792864  1
  Li  Li14  1  0.55040109  0.76444939  0.05248841  1
  Li  Li15  1  0.93184829  0.85720906  0.00941126  1
  Li  Li16  1  0.59732264  0.72795169  0.10382006  1
  Li  Li17  1  0.74023242  0.29381324  0.00384203  1
  Li  Li18  1  0.95391391  0.36128609  0.11172788  1
  Li  Li19  1  0.27701480  0.04910314  0.17849421  1
  Li  Li20  1  0.83397667  0.14576411  0.13464664  1
  Li  Li21  1  0.34617547  0.11377665  0.04643504  1
  Li  Li22  1  0.37448479  0.62290577  0.08319688  1
  Li  Li23  1  0.36714997  0.28551307  0.18006943  1
  Li  Li24  1  0.75251507  0.90099661  0.13241818  1
  Li  Li25  1  0.54661700  0.17854164  0.03927239  1
  Li  Li26  1  0.13752500  0.52502694  0.08656369  1
  Li  Li27  1  0.16673092  0.32046819  0.19749667  1
  Li  Li28  1  0.42610535  0.38669471  0.30300694  1
  Li  Li29  1  0.02348483  0.46636221  0.20778577  1
  Li  Li30  1  0.56829329  0.24170363  0.29220190  1
  Li  Li31  1  0.97765997  0.82974815  0.32383259  1
  Li  Li32  1  0.09229172  0.39169611  0.36301247  1
  Li  Li33  1  0.01564932  0.79666818  0.27058777  1
  Li  Li34  1  0.57467238  0.91022014  0.22909893  1
  Li  Li35  1  0.59385891  0.70080601  0.21200343  1
  Li  Li36  1  0.99993944  0.00593159  0.28814961  1
  Li  Li37  1  0.39495881  0.89734661  0.19076625  1
  Li  Li38  1  0.19521660  0.81188369  0.30817976  1
  Li  Li39  1  0.62095309  0.38402019  0.33652098  1
  Li  Li40  1  0.45560332  0.83926247  0.35006178  1
  Li  Li41  1  0.57475145  0.43011654  0.26166650  1
  Li  Li42  1  0.01748360  0.27542528  0.23825014  1
  Li  Li43  1  0.52342024  0.45801662  0.20819339  1
  Li  Li44  1  0.06953688  0.24980694  0.29183333  1
  Li  Li45  1  0.15655929  0.81324576  0.19992950  1
  Li  Li46  1  0.43462879  0.89316148  0.30011290  1
  Li  Li47  1  0.75924320  0.56214469  0.36528584  1
  Li  Li48  1  0.31547629  0.66102505  0.32143680  1
  Li  Li49  1  0.74386041  0.57450367  0.22888160  1
  Li  Li50  1  0.84859781  0.13198659  0.27083781  1
  Li  Li51  1  0.84025085  0.80548630  0.36726848  1
  Li  Li52  1  0.22482572  0.42254988  0.31991260  1
  Li  Li53  1  0.98433295  0.66142852  0.22646393  1
  Li  Li54  1  0.60813173  0.04539612  0.27348181  1
  Li  Li55  1  0.64148586  0.84205726  0.38665312  1
  Li  Li56  1  0.92690577  0.91131891  0.49392217  1
  Li  Li57  1  0.49296835  0.95034652  0.39714190  1
  Li  Li58  1  0.01936139  0.73045784  0.46962960  1
  Li  Li59  1  0.50788479  0.33322842  0.44904020  1
  Li  Li60  1  0.06317965  0.42362770  0.41455736  1
  Li  Li61  1  0.08507170  0.21274293  0.40170048  1
  Li  Li62  1  0.76042833  0.62746587  0.46665411  1
  Li  Li63  1  0.88347513  0.40987099  0.38499283  1
  Li  Li64  1  0.04219740  0.94064699  0.44662676  1
  Li  Li65  1  0.47540944  0.72968038  0.45235549  1
  Li  Li66  1  0.99435291  0.97861124  0.39539650  1
  Li  Li67  1  0.66552718  0.84535532  0.49025672  1
  Li  Li68  1  0.63704935  0.34594983  0.38911364  1
  Li  Li69  1  0.85084174  0.40487895  0.49647760  1
  Li  Li70  1  0.21819789  0.08234133  0.41649426  1
  Li  Li71  1  0.24766734  0.59287713  0.45368877  1
  Li  Li72  1  0.45398658  0.17897235  0.41349865  1
  Li  Li73  1  0.04485998  0.52567771  0.46100564  1
  Li  Li74  1  0.42215046  0.91337452  0.50622956  1
  Li  Li75  1  0.15012890  0.83488301  0.61325455  1
  Li  Li76  1  0.52596066  0.72501804  0.53036352  1
  Li  Li77  1  0.00225399  0.94217011  0.60324347  1
  Li  Li78  1  0.60124976  0.38446220  0.63717020  1
  Li  Li79  1  0.48591428  0.82239051  0.67628686  1
  Li  Li80  1  0.57149200  0.41895480  0.58522652  1
  Li  Li81  1  0.01496156  0.32830665  0.54986379  1
  Li  Li82  1  0.26721488  0.62201449  0.53334180  1
  Li  Li83  1  0.59453852  0.20818202  0.59822802  1
  Li  Li84  1  0.39381315  0.40312477  0.61481761  1
  Li  Li85  1  0.95876959  0.83504900  0.65077558  1
  Li  Li86  1  0.12441811  0.38255061  0.66590984  1
  Li  Li87  1  0.98365698  0.72341959  0.54768195  1
  Li  Li88  1  0.54984342  0.93424526  0.55303226  1
  Li  Li89  1  0.17016640  0.84214178  0.50910774  1
  Li  Li90  1  0.50283387  0.97277507  0.60392158  1
  Li  Li91  1  0.35912449  0.40612768  0.50377413  1
  Li  Li92  1  0.14735850  0.33920375  0.61190095  1
  Li  Li93  1  0.82355820  0.65346036  0.67855400  1
  Li  Li94  1  0.26768946  0.55507729  0.63506264  1
  Li  Li95  1  0.75499526  0.58809437  0.54635789  1
  Li  Li96  1  0.72686632  0.07730446  0.58328914  1
  Li  Li97  1  0.73322748  0.41645082  0.68015883  1
  Li  Li98  1  0.34858016  0.79957837  0.63254273  1
  Li  Li99  1  0.55338707  0.51993206  0.53889950  1
  Li  Li100  1  0.96258795  0.17416771  0.58675270  1
  Li  Li101  1  0.93135193  0.37985072  0.69755723  1
  Li  Li102  1  0.67252391  0.31380391  0.80277448  1
  Li  Li103  1  0.07677135  0.23332604  0.70786554  1
  Li  Li104  1  0.52998894  0.46013299  0.79237064  1
  Li  Li105  1  0.12139459  0.87004467  0.82390355  1
  Li  Li106  1  0.00748397  0.30801307  0.86303416  1
  Li  Li107  1  0.08306008  0.90339290  0.77083474  1
  Li  Li108  1  0.52349556  0.78901602  0.73008372  1
  Li  Li109  1  0.50803875  0.99752054  0.71133054  1
  Li  Li110  1  0.10117595  0.69417390  0.78773576  1
  Li  Li111  1  0.70367688  0.80287777  0.69140805  1
  Li  Li112  1  0.90368902  0.88948941  0.80889007  1
  Li  Li113  1  0.47917905  0.31549428  0.83591113  1
  Li  Li114  1  0.64687814  0.86128289  0.85005684  1
  Li  Li115  1  0.52430446  0.27042016  0.76190629  1
  Li  Li116  1  0.08317258  0.42263780  0.73793759  1
  Li  Li117  1  0.57722443  0.24285735  0.70798734  1
  Li  Li118  1  0.03068786  0.45140577  0.79179273  1
  Li  Li119  1  0.94271897  0.88580769  0.69999823  1
  Li  Li120  1  0.66531497  0.80907126  0.80051079  1
  Li  Li121  1  0.34084991  0.13895213  0.86520678  1
  Li  Li122  1  0.78444584  0.04175749  0.82153537  1
  Li  Li123  1  0.35894400  0.12572838  0.72865449  1
  Li  Li124  1  0.25011989  0.56723438  0.77123516  1
  Li  Li125  1  0.26076574  0.89425836  0.86746014  1
  Li  Li126  1  0.87483161  0.27928028  0.81978121  1
  Li  Li127  1  0.11667286  0.03888837  0.72657853  1
  Li  Li128  1  0.49152999  0.65439992  0.77373356  1
  Li  Li129  1  0.46118472  0.85872646  0.88678743  1
  Li  Li130  1  0.17244053  0.78905735  0.99384935  1
  Li  Li131  1  0.60791494  0.74729085  0.89725760  1
  Li  Li132  1  0.08095168  0.97028137  0.96969905  1
  Li  Li133  1  0.59152713  0.36699991  0.94938409  1
  Li  Li134  1  0.03603966  0.27462440  0.91478616  1
  Li  Li135  1  0.01430540  0.48574041  0.90134486  1
  Li  Li136  1  0.33962012  0.07258137  0.96679666  1
  Li  Li137  1  0.21603321  0.28914250  0.88509378  1
  Li  Li138  1  0.05843724  0.75996231  0.94696714  1
  Li  Li139  1  0.62503308  0.97073296  0.95249039  1
  Li  Li140  1  0.10513024  0.72204624  0.89587286  1
  Li  Li141  1  0.43364875  0.85347498  0.99020042  1
  Li  Li142  1  0.46252641  0.35591084  0.88890058  1
  Li  Li143  1  0.24707028  0.29355382  0.99656315  1
  Li  Li144  1  0.88232723  0.61728094  0.91638118  1
  Li  Li145  1  0.85276041  0.10723500  0.95378820  1
  Li  Li146  1  0.64642569  0.52030611  0.91363477  1
  Li  Li147  1  0.05465702  0.17396534  0.96116923  1
  La  La148  1  0.80797842  0.58356995  0.10951473  1
  La  La149  1  0.30070555  0.08458224  0.11193161  1
  La  La150  1  0.33952013  0.58198587  0.01780832  1
  La  La151  1  0.86708258  0.78319891  0.17991264  1
  La  La152  1  0.24589508  0.40157138  0.13331134  1
  La  La153  1  0.01684807  0.64238119  0.04305496  1
  La  La154  1  0.62978666  0.01673546  0.08798456  1
  La  La155  1  0.62901835  0.50927761  0.04118408  1
  La  La156  1  0.00464640  0.13541536  0.08442439  1
  La  La157  1  0.74538765  0.40750891  0.17852012  1
  La  La158  1  0.37233224  0.78083181  0.13202455  1
  La  La159  1  0.30564861  0.60286997  0.20278280  1
  La  La160  1  0.28706348  0.10424945  0.29709052  1
  La  La161  1  0.78777354  0.60461248  0.29653309  1
  La  La162  1  0.80360039  0.10113869  0.20330934  1
  La  La163  1  0.34568076  0.30431391  0.36664995  1
  La  La164  1  0.72552648  0.92337939  0.31981534  1
  La  La165  1  0.48600163  0.16358170  0.22685239  1
  La  La166  1  0.10617098  0.54308153  0.27293967  1
  La  La167  1  0.10859145  0.04003593  0.22771313  1
  La  La168  1  0.48352199  0.66665301  0.27223275  1
  La  La169  1  0.22003613  0.92452046  0.36771055  1
  La  La170  1  0.84657842  0.29874544  0.32112349  1
  La  La171  1  0.78441953  0.12301409  0.39036243  1
  La  La172  1  0.25383346  0.12227034  0.48205267  1
  La  La173  1  0.29136985  0.62108229  0.38796840  1
  La  La174  1  0.96316725  0.68852384  0.41169179  1
  La  La175  1  0.57931827  0.06381444  0.45724339  1
  La  La176  1  0.58853286  0.57180232  0.41551174  1
  La  La177  1  0.96519019  0.19644848  0.45882590  1
  La  La178  1  0.29207308  0.11619528  0.60948731  1
  La  La179  1  0.79952391  0.61520323  0.61199908  1
  La  La180  1  0.76061647  0.11714428  0.51794795  1
  La  La181  1  0.23289458  0.91681241  0.67997930  1
  La  La182  1  0.85414146  0.29841849  0.63334484  1
  La  La183  1  0.08320790  0.05693020  0.54310438  1
  La  La184  1  0.47026178  0.68214903  0.58817372  1
  La  La185  1  0.47137579  0.19018079  0.54117828  1
  La  La186  1  0.09604604  0.56435662  0.58469213  1
  La  La187  1  0.35402543  0.29236543  0.67863903  1
  La  La188  1  0.72739454  0.91874217  0.63220175  1
  La  La189  1  0.79485163  0.09716693  0.70290017  1
  La  La190  1  0.81265439  0.59615682  0.79715836  1
  La  La191  1  0.31151367  0.09509358  0.79662026  1
  La  La192  1  0.29652107  0.59884891  0.70355883  1
  La  La193  1  0.75353746  0.39538513  0.86663660  1
  La  La194  1  0.37453763  0.77715138  0.81995896  1
  La  La195  1  0.61363836  0.53627698  0.72701258  1
  La  La196  1  0.99337338  0.15677593  0.77306595  1
  La  La197  1  0.99104583  0.65942760  0.72778412  1
  La  La198  1  0.61595660  0.03364445  0.77217855  1
  La  La199  1  0.87983836  0.77537001  0.86786487  1
  La  La200  1  0.25240476  0.40108190  0.82132644  1
  La  La201  1  0.31499314  0.57746314  0.89037193  1
  La  La202  1  0.84631505  0.57776775  0.98203418  1
  La  La203  1  0.80845636  0.07898270  0.88813169  1
  La  La204  1  0.13717356  0.01148312  0.91176719  1
  La  La205  1  0.52112948  0.63652494  0.95723387  1
  La  La206  1  0.51134218  0.12884024  0.91552529  1
  La  La207  1  0.13458175  0.50331182  0.95873829  1
  Zr  Zr208  1  0.55748591  0.59385256  0.15598652  1
  Zr  Zr209  1  0.82077627  0.32061217  0.05853471  1
  Zr  Zr210  1  0.05235338  0.09205640  0.15703348  1
  Zr  Zr211  1  0.32731376  0.84148125  0.05813408  1
  Zr  Zr212  1  0.82160457  0.82919102  0.06046934  1
  Zr  Zr213  1  0.05933503  0.59513071  0.15498131  1
  Zr  Zr214  1  0.55775646  0.09626316  0.15646333  1
  Zr  Zr215  1  0.31105174  0.33265836  0.06321807  1
  Zr  Zr216  1  0.03487157  0.11299580  0.34378197  1
  Zr  Zr217  1  0.29619649  0.85330108  0.24991482  1
  Zr  Zr218  1  0.54023781  0.61444797  0.34277734  1
  Zr  Zr219  1  0.79617575  0.35321495  0.24983249  1
  Zr  Zr220  1  0.29619745  0.35352601  0.25005132  1
  Zr  Zr221  1  0.53246708  0.11103305  0.34506089  1
  Zr  Zr222  1  0.03426308  0.60973419  0.34328403  1
  Zr  Zr223  1  0.79605166  0.85344001  0.24991955  1
  Zr  Zr224  1  0.77224752  0.38498370  0.44168453  1
  Zr  Zr225  1  0.26502604  0.86344379  0.44186247  1
  Zr  Zr226  1  0.77193713  0.87677046  0.43919127  1
  Zr  Zr227  1  0.28207616  0.37292946  0.43672199  1
  Zr  Zr228  1  0.54250698  0.10661386  0.65598784  1
  Zr  Zr229  1  0.27980842  0.37902547  0.55859921  1
  Zr  Zr230  1  0.04797046  0.60840026  0.65708826  1
  Zr  Zr231  1  0.77256115  0.85779617  0.55832077  1
  Zr  Zr232  1  0.27862695  0.87044969  0.56042079  1
  Zr  Zr233  1  0.04071937  0.10514834  0.65502587  1
  Zr  Zr234  1  0.54246788  0.60320718  0.65663866  1
  Zr  Zr235  1  0.79001814  0.36775857  0.56311505  1
  Zr  Zr236  1  0.06463968  0.58763232  0.84382621  1
  Zr  Zr237  1  0.80357013  0.84656075  0.75007145  1
  Zr  Zr238  1  0.55985609  0.08624754  0.84281828  1
  Zr  Zr239  1  0.30347868  0.34642757  0.75004669  1
  Zr  Zr240  1  0.80346627  0.34645948  0.75011028  1
  Zr  Zr241  1  0.56702452  0.58947938  0.84510101  1
  Zr  Zr242  1  0.06530498  0.09008805  0.84344518  1
  Zr  Zr243  1  0.30355252  0.84703956  0.74999430  1
  Zr  Zr244  1  0.32741175  0.31492610  0.94175580  1
  Zr  Zr245  1  0.83539035  0.83668517  0.94192700  1
  Zr  Zr246  1  0.32861443  0.82330709  0.93920587  1
  Zr  Zr247  1  0.81762302  0.32692114  0.93681301  1
  O  O248  1  0.22961825  0.64461090  0.05832298  1
  O  O249  1  0.45442687  0.02631222  0.05697230  1
  O  O250  1  0.86227304  0.98868312  0.16066922  1
  O  O251  1  0.24585236  0.19380802  0.15375537  1
  O  O252  1  0.96786632  0.47246117  0.07435967  1
  O  O253  1  0.70100341  0.17231760  0.03458775  1
  O  O254  1  0.71805352  0.72575191  0.13854685  1
  O  O255  1  0.39972795  0.45883525  0.17267013  1
  O  O256  1  0.55743772  0.61320087  0.00474457  1
  O  O257  1  0.08345896  0.00997513  0.12021063  1
  O  O258  1  0.43753084  0.80744826  0.02659310  1
  O  O259  1  0.26094662  0.87027699  0.09774806  1
  O  O260  1  0.63458686  0.46177009  0.13817546  1
  O  O261  1  0.48313716  0.72514465  0.17426335  1
  O  O262  1  0.69294360  0.39642161  0.08089855  1
  O  O263  1  0.94811114  0.23444362  0.04745300  1
  O  O264  1  0.22548708  0.37127790  0.02887661  1
  O  O265  1  0.39209554  0.32448431  0.10367144  1
  O  O266  1  0.54215077  0.16893841  0.11665750  1
  O  O267  1  0.99427511  0.73444364  0.13737862  1
  O  O268  1  0.12447882  0.45686276  0.17417624  1
  O  O269  1  0.95253025  0.75277481  0.08048096  1
  O  O270  1  0.69132310  0.90138455  0.04273389  1
  O  O271  1  0.44860628  0.59811853  0.12088216  1
  O  O272  1  0.81039414  0.44399101  0.02644405  1
  O  O273  1  0.80965835  0.21028925  0.09601768  1
  O  O274  1  0.09065973  0.94652943  0.18009922  1
  O  O275  1  0.01468591  0.23452418  0.13397104  1
  O  O276  1  0.18422890  0.85588473  0.03297580  1
  O  O277  1  0.47535949  0.80300548  0.08506190  1
  O  O278  1  0.95513105  0.97152755  0.04131989  1
  O  O279  1  0.67996640  0.66335984  0.07644946  1
  O  O280  1  0.21746467  0.73572874  0.17112424  1
  O  O281  1  0.89970898  0.45571303  0.13916202  1
  O  O282  1  0.36644851  0.98256313  0.15254893  1
  O  O283  1  0.74709797  0.20424008  0.16151604  1
  O  O284  1  0.21512165  0.13263170  0.06698334  1
  O  O285  1  0.43130665  0.51919531  0.06009716  1
  O  O286  1  0.82639926  0.71027759  0.02607172  1
  O  O287  1  0.81902558  0.94079779  0.09531570  1
  O  O288  1  0.17871868  0.59224115  0.12202961  1
  O  O289  1  0.51797326  0.24209239  0.17696905  1
  O  O290  1  0.60148097  0.94926247  0.13510156  1
  O  O291  1  0.45876108  0.28494208  0.04575299  1
  O  O292  1  0.16334726  0.35985436  0.08648574  1
  O  O293  1  0.69386490  0.16147092  0.24598683  1
  O  O294  1  0.89832322  0.54475274  0.25370223  1
  O  O295  1  0.34678056  0.51205127  0.34624414  1
  O  O296  1  0.73037049  0.71774541  0.33905675  1
  O  O297  1  0.43195501  0.01142055  0.26687285  1
  O  O298  1  0.16038639  0.69507635  0.23295943  1
  O  O299  1  0.19220871  0.24830271  0.32714383  1
  O  O300  1  0.87469734  0.98087946  0.36136196  1
  O  O301  1  0.03003460  0.17444809  0.19498838  1
  O  O302  1  0.56178839  0.53368400  0.30464036  1
  O  O303  1  0.87748294  0.32940996  0.21184708  1
  O  O304  1  0.71477848  0.37716932  0.28770909  1
  O  O305  1  0.10855665  0.98131124  0.32549949  1
  O  O306  1  0.95656127  0.24461789  0.36157990  1
  O  O307  1  0.16511173  0.92992722  0.26819404  1
  O  O308  1  0.42700013  0.77600073  0.23193970  1
  O  O309  1  0.71595191  0.86425136  0.21083954  1
  O  O310  1  0.87609639  0.84268660  0.28900114  1
  O  O311  1  0.56533766  0.01419588  0.19512349  1
  O  O312  1  0.02602398  0.69192614  0.30466787  1
  O  O313  1  0.46799296  0.25055412  0.32620136  1
  O  O314  1  0.59935587  0.97339770  0.36276891  1
  O  O315  1  0.43268932  0.28500416  0.26889127  1
  O  O316  1  0.15932976  0.42151941  0.23128666  1
  O  O317  1  0.66871405  0.59410795  0.19137149  1
  O  O318  1  0.92360087  0.11250260  0.30842059  1
  O  O319  1  0.29601905  0.96493913  0.21497089  1
  O  O320  1  0.29582298  0.74207432  0.28496790  1
  O  O321  1  0.57875733  0.47403231  0.36631343  1
  O  O322  1  0.50197815  0.76087179  0.31985901  1
  O  O323  1  0.64907712  0.39006413  0.22764705  1
  O  O324  1  0.94269454  0.31613018  0.27212478  1
  O  O325  1  0.43303963  0.51460317  0.23441736  1
  O  O326  1  0.15913789  0.19176295  0.26554531  1
  O  O327  1  0.69103784  0.25258119  0.36089479  1
  O  O328  1  0.37448541  0.97180112  0.32872688  1
  O  O329  1  0.84439757  0.50157050  0.33833299  1
  O  O330  1  0.22496688  0.72321509  0.34751280  1
  O  O331  1  0.68629643  0.66417480  0.25484620  1
  O  O332  1  0.90606250  0.04288134  0.24476536  1
  O  O333  1  0.30255904  0.23882362  0.21612168  1
  O  O334  1  0.28939426  0.46820452  0.28384548  1
  O  O335  1  0.94328590  0.59772807  0.18938594  1
  O  O336  1  0.64891038  0.10923648  0.31064531  1
  O  O337  1  0.99004318  0.75620456  0.36466201  1
  O  O338  1  0.07307704  0.46352692  0.32274924  1
  O  O339  1  0.94245139  0.81282145  0.22887684  1
  O  O340  1  0.65042014  0.89439679  0.27109581  1
  O  O341  1  0.13706152  0.67836715  0.44296901  1
  O  O342  1  0.36278923  0.05994661  0.44194684  1
  O  O343  1  0.89050396  0.53121292  0.46614646  1
  O  O344  1  0.62357020  0.23434598  0.42588828  1
  O  O345  1  0.50835185  0.69861872  0.37929389  1
  O  O346  1  0.03641140  0.09123758  0.49601321  1
  O  O347  1  0.33111369  0.83501588  0.40225335  1
  O  O348  1  0.15309938  0.89692336  0.47346194  1
  O  O349  1  0.64434436  0.47169455  0.45236689  1
  O  O350  1  0.89973237  0.30897131  0.41914603  1
  O  O351  1  0.20004372  0.38090186  0.39631387  1
  O  O352  1  0.36912045  0.33204781  0.47051275  1
  O  O353  1  0.04990576  0.53639118  0.38308526  1
  O  O354  1  0.90167244  0.80350488  0.45696358  1
  O  O355  1  0.64043124  0.95329667  0.41948154  1
  O  O356  1  0.14380114  0.10859575  0.37886301  1
  O  O357  1  0.78355866  0.49565505  0.40413237  1
  O  O358  1  0.78242697  0.25919712  0.47322362  1
  O  O359  1  0.11722969  0.90257808  0.41453965  1
  O  O360  1  0.40559282  0.84637975  0.46714809  1
  O  O361  1  0.91341373  0.04257337  0.42333502  1
  O  O362  1  0.63834102  0.73369011  0.45836418  1
  O  O363  1  0.16161830  0.18578279  0.43990465  1
  O  O364  1  0.37789912  0.57274799  0.43294499  1
  O  O365  1  0.77339580  0.76517988  0.40435197  1
  O  O366  1  0.76618049  0.99483571  0.47340053  1
  O  O367  1  0.41291085  0.11139160  0.37818378  1
  O  O368  1  0.42921382  0.34558037  0.41308082  1
  O  O369  1  0.13417230  0.42024347  0.45412652  1
  O  O370  1  0.87027741  0.05468388  0.55844673  1
  O  O371  1  0.64527233  0.67289725  0.55717245  1
  O  O372  1  0.23820630  0.71177046  0.66084054  1
  O  O373  1  0.85447307  0.50677581  0.65378645  1
  O  O374  1  0.13268656  0.22687322  0.57445062  1
  O  O375  1  0.39915074  0.52734722  0.53459012  1
  O  O376  1  0.38209054  0.97471556  0.63845220  1
  O  O377  1  0.70002415  0.24228520  0.67256156  1
  O  O378  1  0.54309135  0.08648595  0.50475128  1
  O  O379  1  0.01712414  0.69035315  0.62026914  1
  O  O380  1  0.66241129  0.89182621  0.52673373  1
  O  O381  1  0.83909150  0.82959964  0.59801418  1
  O  O382  1  0.46469601  0.23856963  0.63824532  1
  O  O383  1  0.61595176  0.97501912  0.67444862  1
  O  O384  1  0.40830379  0.30338832  0.58076838  1
  O  O385  1  0.15254204  0.46556121  0.54766138  1
  O  O386  1  0.87527645  0.32811191  0.52885910  1
  O  O387  1  0.70855999  0.37580957  0.60362791  1
  O  O388  1  0.55835325  0.53048655  0.61686839  1
  O  O389  1  0.10610667  0.96597991  0.63741400  1
  O  O390  1  0.97522203  0.24315409  0.67421338  1
  O  O391  1  0.14745087  0.94642196  0.58051080  1
  O  O392  1  0.40908442  0.79861182  0.54280799  1
  O  O393  1  0.65163976  0.10230988  0.62096393  1
  O  O394  1  0.29006349  0.25592052  0.52643657  1
  O  O395  1  0.29126940  0.48883846  0.59617786  1
  O  O396  1  0.00953137  0.75390149  0.68010928  1
  O  O397  1  0.08630681  0.46638615  0.63403378  1
  O  O398  1  0.91512739  0.84282894  0.53311857  1
  O  O399  1  0.62488269  0.89655840  0.58534457  1
  O  O400  1  0.14604289  0.72799794  0.54104672  1
  O  O401  1  0.42016654  0.03622336  0.57643715  1
  O  O402  1  0.88257119  0.96443845  0.67122312  1
  O  O403  1  0.20033669  0.24412428  0.63922200  1
  O  O404  1  0.73320356  0.71730054  0.65263413  1
  O  O405  1  0.35289523  0.49551958  0.66189117  1
  O  O406  1  0.88568718  0.56748035  0.56699665  1
  O  O407  1  0.66933442  0.18092767  0.56018473  1
  O  O408  1  0.27366182  0.98954254  0.52609253  1
  O  O409  1  0.28135513  0.75887589  0.59533402  1
  O  O410  1  0.92098396  0.10734650  0.62211456  1
  O  O411  1  0.58145400  0.45718313  0.67723587  1
  O  O412  1  0.49802709  0.74976644  0.63529968  1
  O  O413  1  0.64262985  0.41530906  0.54556483  1
  O  O414  1  0.93720450  0.34001563  0.58656903  1
  O  O415  1  0.40599134  0.53831214  0.74618901  1
  O  O416  1  0.20097753  0.15516974  0.75402038  1
  O  O417  1  0.75323619  0.18864696  0.84619442  1
  O  O418  1  0.36980786  0.98252152  0.83914682  1
  O  O419  1  0.66756945  0.68862463  0.76698754  1
  O  O420  1  0.93960065  0.00477173  0.73307148  1
  O  O421  1  0.90717333  0.45257124  0.82715044  1
  O  O422  1  0.22510127  0.71919407  0.86133882  1
  O  O423  1  0.06998684  0.52509061  0.69502503  1
  O  O424  1  0.53769047  0.16682505  0.80468517  1
  O  O425  1  0.22172548  0.37062678  0.71218242  1
  O  O426  1  0.38479880  0.32304811  0.78801867  1
  O  O427  1  0.99052538  0.71909366  0.82567971  1
  O  O428  1  0.14220805  0.45568105  0.86174559  1
  O  O429  1  0.93465389  0.76955671  0.76809501  1
  O  O430  1  0.67262524  0.92334716  0.73187762  1
  O  O431  1  0.38382102  0.83550860  0.71100961  1
  O  O432  1  0.22359996  0.85757985  0.78910997  1
  O  O433  1  0.53413578  0.68519397  0.69534066  1
  O  O434  1  0.07313997  0.00788821  0.80482772  1
  O  O435  1  0.63145644  0.45027546  0.82610580  1
  O  O436  1  0.50092861  0.72764263  0.86273641  1
  O  O437  1  0.66668109  0.41511073  0.76882273  1
  O  O438  1  0.94011311  0.27816279  0.73130702  1
  O  O439  1  0.43160740  0.10584203  0.69142082  1
  O  O440  1  0.17564409  0.58744288  0.80848511  1
  O  O441  1  0.80383032  0.73491472  0.71507014  1
  O  O442  1  0.80383280  0.95814636  0.78504549  1
  O  O443  1  0.52149103  0.22729306  0.86618394  1
  O  O444  1  0.59824226  0.93984809  0.81998255  1
  O  O445  1  0.45026583  0.30951108  0.72781494  1
  O  O446  1  0.15665176  0.38365174  0.77227011  1
  O  O447  1  0.66697683  0.18530260  0.73434319  1
  O  O448  1  0.93999529  0.50832193  0.76564726  1
  O  O449  1  0.40786684  0.44828134  0.86089819  1
  O  O450  1  0.72524710  0.72888462  0.82889005  1
  O  O451  1  0.25483529  0.19848313  0.83843474  1
  O  O452  1  0.87421840  0.97678140  0.84755427  1
  O  O453  1  0.41313751  0.03612097  0.75513778  1
  O  O454  1  0.19355349  0.65739463  0.74512495  1
  O  O455  1  0.79759476  0.46102286  0.71615446  1
  O  O456  1  0.80997703  0.23186641  0.78388226  1
  O  O457  1  0.15682822  0.10284688  0.68948476  1
  O  O458  1  0.45029797  0.59094480  0.81071426  1
  O  O459  1  0.10976302  0.94353400  0.86477164  1
  O  O460  1  0.02597003  0.23621899  0.82298341  1
  O  O461  1  0.15757029  0.88730012  0.72884334  1
  O  O462  1  0.44984380  0.80607105  0.77108919  1
  O  O463  1  0.96289219  0.02191143  0.94291519  1
  O  O464  1  0.73750195  0.64020348  0.94196809  1
  O  O465  1  0.20893217  0.16811365  0.96616400  1
  O  O466  1  0.47637737  0.46545529  0.92602192  1
  O  O467  1  0.59198166  0.00320920  0.87945448  1
  O  O468  1  0.06351583  0.60878587  0.99585879  1
  O  O469  1  0.76885189  0.86478253  0.90231486  1
  O  O470  1  0.94735498  0.80373940  0.97359990  1
  O  O471  1  0.45524363  0.22817452  0.95244952  1
  O  O472  1  0.19983622  0.39049143  0.91917207  1
  O  O473  1  0.89930640  0.31831419  0.89636145  1
  O  O474  1  0.73067322  0.36811968  0.97059977  1
  O  O475  1  0.04978281  0.16310025  0.88323015  1
  O  O476  1  0.19892162  0.89661924  0.95713233  1
  O  O477  1  0.46003288  0.74672548  0.91943689  1
  O  O478  1  0.95551342  0.59157548  0.87897289  1
  O  O479  1  0.31642201  0.20421896  0.90410300  1
  O  O480  1  0.31657689  0.43976306  0.97332392  1
  O  O481  1  0.98311536  0.79743635  0.91473161  1
  O  O482  1  0.69463975  0.85347876  0.96714376  1
  O  O483  1  0.18687667  0.65758418  0.92338064  1
  O  O484  1  0.46192923  0.96599669  0.95845495  1
  O  O485  1  0.93822494  0.51380370  0.93987448  1
  O  O486  1  0.72212646  0.12729210  0.93310198  1
  O  O487  1  0.32694493  0.93487499  0.90445171  1
  O  O488  1  0.33434592  0.70437697  0.97330882  1
  O  O489  1  0.68571497  0.58873611  0.87832831  1
  O  O490  1  0.67069947  0.35438558  0.91315936  1
  O  O491  1  0.96561708  0.27957044  0.95423850  1
