# generated using pymatgen
data_Li21La9Zr5O34
_symmetry_space_group_name_H-M   'P 1'
_cell_length_a   11.27162600
_cell_length_b   11.27162572
_cell_length_c   53.27781576
_cell_angle_alpha   90.00000000
_cell_angle_beta   90.00000000
_cell_angle_gamma   108.34782046
_symmetry_Int_Tables_number   1
_chemical_formula_structural   Li21La9Zr5O34
_chemical_formula_sum   'Li168 La72 Zr40 O272'
_cell_volume   6424.81133026
_cell_formula_units_Z   8
loop_
 _symmetry_equiv_pos_site_id
 _symmetry_equiv_pos_as_xyz
  1  'x, y, z'
loop_
 _atom_site_type_symbol
 _atom_site_label
 _atom_site_symmetry_multiplicity
 _atom_site_fract_x
 _atom_site_fract_y
 _atom_site_fract_z
 _atom_site_occupancy
  Li  Li0  1  0.59670718  0.71124544  0.03005538  1
  Li  Li1  1  0.86999346  0.80710216  0.12536709  1
  Li  Li2  1  0.47595292  0.88646019  0.03617631  1
  Li  Li3  1  0.01996215  0.66754783  0.11560064  1
  Li  Li4  1  0.42695688  0.26031508  0.14650315  1
  Li  Li5  1  0.17260465  0.32749310  0.00307980  1
  Li  Li6  1  0.45856593  0.22429483  0.09807259  1
  Li  Li7  1  0.01653500  0.32717154  0.05847041  1
  Li  Li8  1  0.04474582  0.11991039  0.03669176  1
  Li  Li9  1  0.42982562  0.43658610  0.11108343  1
  Li  Li10  1  0.85394169  0.34033559  0.02584608  1
  Li  Li11  1  0.63763183  0.24226956  0.12733121  1
  Li  Li12  1  0.05666293  0.81450620  0.15276804  1
  Li  Li13  1  0.40764895  0.69707519  0.01274229  1
  Li  Li14  1  0.00426977  0.86401259  0.08274024  1
  Li  Li15  1  0.45835156  0.70465355  0.06848504  1
  Li  Li16  1  0.97607277  0.89682775  0.03072159  1
  Li  Li17  1  0.52018567  0.67273324  0.11680777  1
  Li  Li18  1  0.62168751  0.20692418  0.02694744  1
  Li  Li19  1  0.87905334  0.30782323  0.12380156  1
  Li  Li20  1  0.67938667  0.40802421  0.00736022  1
  Li  Li21  1  0.75878868  0.08373880  0.14459561  1
  Li  Li22  1  0.18658909  0.99510331  0.06156486  1
  Li  Li23  1  0.28740219  0.56116571  0.10058920  1
  Li  Li24  1  0.78689722  0.65742651  0.01033832  1
  Li  Li25  1  0.67385040  0.84609893  0.14258013  1
  Li  Li26  1  0.43949076  0.07446319  0.05858878  1
  Li  Li27  1  0.04691749  0.46246888  0.09942833  1
  Li  Li28  1  0.08610423  0.26060358  0.20213264  1
  Li  Li29  1  0.35470117  0.33195523  0.29790683  1
  Li  Li30  1  0.94958943  0.40268802  0.21204806  1
  Li  Li31  1  0.49593890  0.18845003  0.28757686  1
  Li  Li32  1  0.90429771  0.77514580  0.31661233  1
  Li  Li33  1  0.54312401  0.82263695  0.18264568  1
  Li  Li34  1  0.94244969  0.74173662  0.26873158  1
  Li  Li35  1  0.50346114  0.85555814  0.23166274  1
  Li  Li36  1  0.51696716  0.64609855  0.21491672  1
  Li  Li37  1  0.91835411  0.95730281  0.28237077  1
  Li  Li38  1  0.32900579  0.84256396  0.19774774  1
  Li  Li39  1  0.11903212  0.75671256  0.30229017  1
  Li  Li40  1  0.54484304  0.33721901  0.32667950  1
  Li  Li41  1  0.89080432  0.26399950  0.17069876  1
  Li  Li42  1  0.49675630  0.37920857  0.25833407  1
  Li  Li43  1  0.95085410  0.20984314  0.24303497  1
  Li  Li44  1  0.44749716  0.40061699  0.21107716  1
  Li  Li45  1  0.99886775  0.19538148  0.28959939  1
  Li  Li46  1  0.08630247  0.76102079  0.20194312  1
  Li  Li47  1  0.35952599  0.83018829  0.29792620  1
  Li  Li48  1  0.20015676  0.98731307  0.18360159  1
  Li  Li49  1  0.24517508  0.61207723  0.31677186  1
  Li  Li50  1  0.67117903  0.51907169  0.23061463  1
  Li  Li51  1  0.76824314  0.07540270  0.26981215  1
  Li  Li52  1  0.29191471  0.22678484  0.18588122  1
  Li  Li53  1  0.15491604  0.36912426  0.31425826  1
  Li  Li54  1  0.91287810  0.60558430  0.22836196  1
  Li  Li55  1  0.53128741  0.98603995  0.27158036  1
  Li  Li56  1  0.58599304  0.78458305  0.37433147  1
  Li  Li57  1  0.85090308  0.85654625  0.46945065  1
  Li  Li58  1  0.41795042  0.93498235  0.38288844  1
  Li  Li59  1  0.98672140  0.69044207  0.45849829  1
  Li  Li60  1  0.46086866  0.30619964  0.46435843  1
  Li  Li61  1  0.02048664  0.34022537  0.35202787  1
  Li  Li62  1  0.44742253  0.23635644  0.42786450  1
  Li  Li63  1  0.99010430  0.37606999  0.40411029  1
  Li  Li64  1  0.99723220  0.17693311  0.38410508  1
  Li  Li65  1  0.41840379  0.46731820  0.46524733  1
  Li  Li66  1  0.81762984  0.34841400  0.37268361  1
  Li  Li67  1  0.58624576  0.20972519  0.48106236  1
  Li  Li68  1  0.05531894  0.87878612  0.49224750  1
  Li  Li69  1  0.39015744  0.77639663  0.34845986  1
  Li  Li70  1  0.99471728  0.89312125  0.43316047  1
  Li  Li71  1  0.41906028  0.74782280  0.40482320  1
  Li  Li72  1  0.93270951  0.92995940  0.38572133  1
  Li  Li73  1  0.51153585  0.70672478  0.47693877  1
  Li  Li74  1  0.57761695  0.29212689  0.37483713  1
  Li  Li75  1  0.88176077  0.35934021  0.46752800  1
  Li  Li76  1  0.69069962  0.51215982  0.35508882  1
  Li  Li77  1  0.70368138  0.07383321  0.48167296  1
  Li  Li78  1  0.15896733  0.04096732  0.40202160  1
  Li  Li79  1  0.37365491  0.62177251  0.44264914  1
  Li  Li80  1  0.77519118  0.75112221  0.35845743  1
  Li  Li81  1  0.64996912  0.86897480  0.49493650  1
  Li  Li82  1  0.39421916  0.12227820  0.39635290  1
  Li  Li83  1  0.04029197  0.51358126  0.44295658  1
  Li  Li84  1  0.57913315  0.23929640  0.52986238  1
  Li  Li85  1  0.30321958  0.14353134  0.62518233  1
  Li  Li86  1  0.69940383  0.06620381  0.53615191  1
  Li  Li87  1  0.15346937  0.28411608  0.61550725  1
  Li  Li88  1  0.74649402  0.69032640  0.64641149  1
  Li  Li89  1  0.00270117  0.62182285  0.50308157  1
  Li  Li90  1  0.71663114  0.72445306  0.59828661  1
  Li  Li91  1  0.15730898  0.62361457  0.55889103  1
  Li  Li92  1  0.12997915  0.82947817  0.53678154  1
  Li  Li93  1  0.74471246  0.51137616  0.61094487  1
  Li  Li94  1  0.31847007  0.61306937  0.52747475  1
  Li  Li95  1  0.53641565  0.70804488  0.62765729  1
  Li  Li96  1  0.11687021  0.13439099  0.65229079  1
  Li  Li97  1  0.76750932  0.25480811  0.51180533  1
  Li  Li98  1  0.17047854  0.08540103  0.58290637  1
  Li  Li99  1  0.71647852  0.24437630  0.56874324  1
  Li  Li100  1  0.19938225  0.05188297  0.53015245  1
  Li  Li101  1  0.65407398  0.27511075  0.61683826  1
  Li  Li102  1  0.55170563  0.74321535  0.52706493  1
  Li  Li103  1  0.29469071  0.64274211  0.62373954  1
  Li  Li104  1  0.49210482  0.54352123  0.50709480  1
  Li  Li105  1  0.41565786  0.86699406  0.64475247  1
  Li  Li106  1  0.98916369  0.95441456  0.56148262  1
  Li  Li107  1  0.88715301  0.38748937  0.60075531  1
  Li  Li108  1  0.38917024  0.29286705  0.51032943  1
  Li  Li109  1  0.49985180  0.10297097  0.64258217  1
  Li  Li110  1  0.73570947  0.87541252  0.55867840  1
  Li  Li111  1  0.12769170  0.48706319  0.59931024  1
  Li  Li112  1  0.08838028  0.68888092  0.70194982  1
  Li  Li113  1  0.82138660  0.61798247  0.79821363  1
  Li  Li114  1  0.22453638  0.54783692  0.71193261  1
  Li  Li115  1  0.68007760  0.76164488  0.78772068  1
  Li  Li116  1  0.27020195  0.17421890  0.81640041  1
  Li  Li117  1  0.63046469  0.12633888  0.68260795  1
  Li  Li118  1  0.23274111  0.20861859  0.76852341  1
  Li  Li119  1  0.67014598  0.09428314  0.73184704  1
  Li  Li120  1  0.65832995  0.30208468  0.71439088  1
  Li  Li121  1  0.25670798  0.99217993  0.78231410  1
  Li  Li122  1  0.84318871  0.11031330  0.69852327  1
  Li  Li123  1  0.05524883  0.19394851  0.80233245  1
  Li  Li124  1  0.63118424  0.61184358  0.82660981  1
  Li  Li125  1  0.28489754  0.68394673  0.67017491  1
  Li  Li126  1  0.67514786  0.57341288  0.75972400  1
  Li  Li127  1  0.22216228  0.74104041  0.74337673  1
  Li  Li128  1  0.72736010  0.54843548  0.71170546  1
  Li  Li129  1  0.17572077  0.75399074  0.78980301  1
  Li  Li130  1  0.08716721  0.18808938  0.70161462  1
  Li  Li131  1  0.81597814  0.12020525  0.79797426  1
  Li  Li132  1  0.97340416  0.96485567  0.68365045  1
  Li  Li133  1  0.93075264  0.34103867  0.81665591  1
  Li  Li134  1  0.50515290  0.42997787  0.73079091  1
  Li  Li135  1  0.40781262  0.87376468  0.76969944  1
  Li  Li136  1  0.88245150  0.72269549  0.68594597  1
  Li  Li137  1  0.02107048  0.58196734  0.81423032  1
  Li  Li138  1  0.26146405  0.34350398  0.72831168  1
  Li  Li139  1  0.64385616  0.96378834  0.77153789  1
  Li  Li140  1  0.58911818  0.16573701  0.87430745  1
  Li  Li141  1  0.32267816  0.09567517  0.96944262  1
  Li  Li142  1  0.75751814  0.01457640  0.88296892  1
  Li  Li143  1  0.18690134  0.25994635  0.95864203  1
  Li  Li144  1  0.71348759  0.64384403  0.96399102  1
  Li  Li145  1  0.15517310  0.61024325  0.85213557  1
  Li  Li146  1  0.72733497  0.71390423  0.92758028  1
  Li  Li147  1  0.18469602  0.57453930  0.90443154  1
  Li  Li148  1  0.17875036  0.77421472  0.88441813  1
  Li  Li149  1  0.75773099  0.48325013  0.96605034  1
  Li  Li150  1  0.35663433  0.60204357  0.87307050  1
  Li  Li151  1  0.58959965  0.74092980  0.98131142  1
  Li  Li152  1  0.11936308  0.07134390  0.99236068  1
  Li  Li153  1  0.78593299  0.17306890  0.84822805  1
  Li  Li154  1  0.18052443  0.05938443  0.93334209  1
  Li  Li155  1  0.75717331  0.20356554  0.90448851  1
  Li  Li156  1  0.24391511  0.02192857  0.88547730  1
  Li  Li157  1  0.66439473  0.24453824  0.97754418  1
  Li  Li158  1  0.59618743  0.65703355  0.87471356  1
  Li  Li159  1  0.29688540  0.59322197  0.96798500  1
  Li  Li160  1  0.48472446  0.43884803  0.85534817  1
  Li  Li161  1  0.47331839  0.87637490  0.98173517  1
  Li  Li162  1  0.01893125  0.91082657  0.90211430  1
  Li  Li163  1  0.80076105  0.32853735  0.94260479  1
  Li  Li164  1  0.40103186  0.20082421  0.85834858  1
  Li  Li165  1  0.52374707  0.08155097  0.99466733  1
  Li  Li166  1  0.78180816  0.82737189  0.89621630  1
  Li  Li167  1  0.13553543  0.43680273  0.94317670  1
  La  La168  1  0.74272458  0.00397214  0.03217909  1
  La  La169  1  0.73395551  0.52553489  0.12076283  1
  La  La170  1  0.23282012  0.03000922  0.12282325  1
  La  La171  1  0.23551239  0.52932846  0.04177232  1
  La  La172  1  0.34163985  0.18928404  0.02289232  1
  La  La173  1  0.16919283  0.34584119  0.14387469  1
  La  La174  1  0.93422385  0.59814461  0.05759478  1
  La  La175  1  0.55524095  0.96591967  0.09979121  1
  La  La176  1  0.55012412  0.46604623  0.05807643  1
  La  La177  1  0.92628004  0.08578421  0.09786989  1
  La  La178  1  0.20746093  0.84586975  0.01585598  1
  La  La179  1  0.30144096  0.72831475  0.14471776  1
  La  La180  1  0.23035662  0.54479587  0.20733517  1
  La  La181  1  0.21356658  0.04854483  0.29272152  1
  La  La182  1  0.71515261  0.54827766  0.29253748  1
  La  La183  1  0.73226294  0.04710493  0.20768185  1
  La  La184  1  0.79271686  0.72639936  0.18559808  1
  La  La185  1  0.65215708  0.86639973  0.31451928  1
  La  La186  1  0.41358736  0.10789554  0.22859509  1
  La  La187  1  0.03247414  0.48685265  0.27150199  1
  La  La188  1  0.03551856  0.98115118  0.22901729  1
  La  La189  1  0.40959811  0.60996421  0.27107718  1
  La  La190  1  0.67010206  0.35131706  0.18503043  1
  La  La191  1  0.77478646  0.24473993  0.31528619  1
  La  La192  1  0.71003043  0.06267913  0.37909746  1
  La  La193  1  0.69711773  0.55863095  0.46788317  1
  La  La194  1  0.21795893  0.08789900  0.46590676  1
  La  La195  1  0.20805214  0.56095934  0.37815343  1
  La  La196  1  0.27310303  0.24788241  0.35682373  1
  La  La197  1  0.15839726  0.40289299  0.48597625  1
  La  La198  1  0.89195797  0.62818751  0.40037383  1
  La  La199  1  0.50801638  0.99936679  0.44013522  1
  La  La200  1  0.52071191  0.50588299  0.40183166  1
  La  La201  1  0.90679939  0.12812469  0.44195088  1
  La  La202  1  0.14807053  0.86998742  0.35598907  1
  La  La203  1  0.26447818  0.75287460  0.48091185  1
  La  La204  1  0.43233246  0.94618249  0.53206641  1
  La  La205  1  0.44077710  0.42421013  0.62068175  1
  La  La206  1  0.94154449  0.91925983  0.62271515  1
  La  La207  1  0.93951061  0.41994834  0.54170817  1
  La  La208  1  0.83291199  0.76093952  0.52283846  1
  La  La209  1  0.00507437  0.60357556  0.64387686  1
  La  La210  1  0.24061595  0.35103009  0.55750055  1
  La  La211  1  0.61956854  0.98322301  0.59977214  1
  La  La212  1  0.62473586  0.48348242  0.55785055  1
  La  La213  1  0.24857231  0.86454514  0.59795919  1
  La  La214  1  0.96781815  0.10441770  0.51585217  1
  La  La215  1  0.87283477  0.22074550  0.64477491  1
  La  La216  1  0.94478528  0.40544405  0.70730264  1
  La  La217  1  0.96182625  0.90165696  0.79271428  1
  La  La218  1  0.45954572  0.40088553  0.79263589  1
  La  La219  1  0.44174237  0.90187486  0.70763627  1
  La  La220  1  0.38168642  0.22311797  0.68554569  1
  La  La221  1  0.52308209  0.08343262  0.81447543  1
  La  La222  1  0.76092585  0.84175229  0.72859474  1
  La  La223  1  0.14255276  0.46305958  0.77142132  1
  La  La224  1  0.13894176  0.96875762  0.72897357  1
  La  La225  1  0.76503223  0.33993998  0.77097985  1
  La  La226  1  0.50490214  0.59792457  0.68511384  1
  La  La227  1  0.40080565  0.70515163  0.81531265  1
  La  La228  1  0.46563348  0.88773544  0.87905402  1
  La  La229  1  0.47781659  0.39147067  0.96764559  1
  La  La230  1  0.95736352  0.86178565  0.96599102  1
  La  La231  1  0.96755470  0.38966542  0.87805676  1
  La  La232  1  0.90279566  0.70268730  0.85689288  1
  La  La233  1  0.01824201  0.54760598  0.98600419  1
  La  La234  1  0.28323401  0.32212236  0.90034504  1
  La  La235  1  0.66768129  0.95105695  0.94001347  1
  La  La236  1  0.65496830  0.44451842  0.90183520  1
  La  La237  1  0.26895234  0.82322558  0.94199286  1
  La  La238  1  0.02745705  0.08036883  0.85596045  1
  La  La239  1  0.91035313  0.19647853  0.98092425  1
  Zr  Zr240  1  0.48426286  0.53770351  0.16414291  1
  Zr  Zr241  1  0.73870896  0.27183130  0.07528587  1
  Zr  Zr242  1  0.97835705  0.03468195  0.16420488  1
  Zr  Zr243  1  0.24552762  0.78368046  0.08084892  1
  Zr  Zr244  1  0.73946782  0.77476161  0.07719582  1
  Zr  Zr245  1  0.98295363  0.53584798  0.16368071  1
  Zr  Zr246  1  0.48687475  0.04220573  0.16440142  1
  Zr  Zr247  1  0.23435149  0.27473528  0.08018081  1
  Zr  Zr248  1  0.96165096  0.05578151  0.33618172  1
  Zr  Zr249  1  0.22337418  0.79672094  0.25000837  1
  Zr  Zr250  1  0.46647815  0.56003590  0.33651533  1
  Zr  Zr251  1  0.72306218  0.29730905  0.25008661  1
  Zr  Zr252  1  0.22247553  0.29644815  0.24995104  1
  Zr  Zr253  1  0.46296016  0.05756448  0.33521088  1
  Zr  Zr254  1  0.96058963  0.55594923  0.33580232  1
  Zr  Zr255  1  0.72163387  0.79619224  0.25014014  1
  Zr  Zr256  1  0.71488639  0.31911185  0.42436352  1
  Zr  Zr257  1  0.20113929  0.81410951  0.41990322  1
  Zr  Zr258  1  0.70020642  0.81247775  0.42530424  1
  Zr  Zr259  1  0.21202330  0.32082181  0.42158768  1
  Zr  Zr260  1  0.69043639  0.41197589  0.66418717  1
  Zr  Zr261  1  0.43660366  0.67746446  0.57545771  1
  Zr  Zr262  1  0.19566918  0.91471760  0.66424378  1
  Zr  Zr263  1  0.92970803  0.16578632  0.58087568  1
  Zr  Zr264  1  0.43579753  0.17500097  0.57713526  1
  Zr  Zr265  1  0.19171772  0.41350553  0.66360149  1
  Zr  Zr266  1  0.68782279  0.90771734  0.66442497  1
  Zr  Zr267  1  0.94033945  0.67446316  0.58011232  1
  Zr  Zr268  1  0.21412121  0.89458360  0.83622715  1
  Zr  Zr269  1  0.95145803  0.15312388  0.74998589  1
  Zr  Zr270  1  0.70872934  0.38991842  0.83652174  1
  Zr  Zr271  1  0.45138786  0.65199468  0.75003642  1
  Zr  Zr272  1  0.95198896  0.65304669  0.75003605  1
  Zr  Zr273  1  0.71247399  0.89238188  0.83523358  1
  Zr  Zr274  1  0.21464775  0.39438672  0.83575875  1
  Zr  Zr275  1  0.45289483  0.15318668  0.75013273  1
  Zr  Zr276  1  0.46033752  0.63145149  0.92439671  1
  Zr  Zr277  1  0.97413412  0.13660722  0.91984905  1
  Zr  Zr278  1  0.47536407  0.13770356  0.92526859  1
  Zr  Zr279  1  0.96321586  0.62913317  0.92166848  1
  O  O280  1  0.14195865  0.59171073  0.07819045  1
  O  O281  1  0.34403056  0.97307920  0.08357450  1
  O  O282  1  0.78781636  0.93273987  0.16791018  1
  O  O283  1  0.17082694  0.13651488  0.16176188  1
  O  O284  1  0.87594319  0.43495763  0.08975397  1
  O  O285  1  0.60935159  0.10716135  0.06108571  1
  O  O286  1  0.64198758  0.67172293  0.14840126  1
  O  O287  1  0.44792091  0.56709956  0.03168783  1
  O  O288  1  0.00427979  0.95371175  0.12991781  1
  O  O289  1  0.33116396  0.75424915  0.04724944  1
  O  O290  1  0.16820538  0.80300852  0.11627862  1
  O  O291  1  0.56139837  0.40751492  0.14780214  1
  O  O292  1  0.93248473  0.03639781  0.00731541  1
  O  O293  1  0.61618657  0.34613192  0.09537091  1
  O  O294  1  0.86956836  0.19912867  0.05655727  1
  O  O295  1  0.16830177  0.29457488  0.04223190  1
  O  O296  1  0.31381653  0.26789994  0.11613268  1
  O  O297  1  0.00818370  0.47217080  0.03055677  1
  O  O298  1  0.47317747  0.12032776  0.12892466  1
  O  O299  1  0.91451620  0.67064628  0.14646716  1
  O  O300  1  0.55988597  0.83118767  0.00829233  1
  O  O301  1  0.87954491  0.70910303  0.09443018  1
  O  O302  1  0.60395538  0.84004270  0.06146725  1
  O  O303  1  0.15394887  0.02626441  0.02731587  1
  O  O304  1  0.37186691  0.54144997  0.13281687  1
  O  O305  1  0.71589764  0.37065032  0.04251065  1
  O  O306  1  0.74419150  0.16376575  0.10843687  1
  O  O307  1  0.53275977  0.26527695  0.99889883  1
  O  O308  1  0.94227454  0.17974762  0.14329838  1
  O  O309  1  0.10173208  0.81238610  0.05903283  1
  O  O310  1  0.39433294  0.74497336  0.10032403  1
  O  O311  1  0.88302048  0.92655036  0.06252999  1
  O  O312  1  0.60443311  0.60928748  0.09199706  1
  O  O313  1  0.82320865  0.39514213  0.14933215  1
  O  O314  1  0.29810349  0.92968316  0.16138102  1
  O  O315  1  0.67769175  0.14878968  0.16919544  1
  O  O316  1  0.13022455  0.08357763  0.08513238  1
  O  O317  1  0.34293220  0.46206797  0.07843228  1
  O  O318  1  0.73982155  0.65996328  0.04536459  1
  O  O319  1  0.73755217  0.88875023  0.10869362  1
  O  O320  1  0.40670805  0.00927137  0.02114009  1
  O  O321  1  0.09513347  0.52535975  0.13276609  1
  O  O322  1  0.97451266  0.74275427  0.00632700  1
  O  O323  1  0.52640102  0.89469833  0.14526679  1
  O  O324  1  0.39498878  0.23958273  0.06459056  1
  O  O325  1  0.07991422  0.30684088  0.09670614  1
  O  O326  1  0.62137596  0.10537845  0.24703347  1
  O  O327  1  0.82540833  0.48894859  0.25356892  1
  O  O328  1  0.27313386  0.45621912  0.33956533  1
  O  O329  1  0.65683648  0.66439515  0.33336906  1
  O  O330  1  0.35810733  0.95667733  0.26474494  1
  O  O331  1  0.08807323  0.63685486  0.23497250  1
  O  O332  1  0.11904223  0.19264342  0.32077084  1
  O  O333  1  0.32380885  0.40194430  0.17936745  1
  O  O334  1  0.95633629  0.11028887  0.19993024  1
  O  O335  1  0.48954617  0.47915899  0.30175777  1
  O  O336  1  0.80054366  0.27239888  0.21522887  1
  O  O337  1  0.64300892  0.32234381  0.28499777  1
  O  O338  1  0.03719649  0.92472720  0.31995794  1
  O  O339  1  0.41157959  0.66989938  0.18181085  1
  O  O340  1  0.09246873  0.87314070  0.26681195  1
  O  O341  1  0.35472808  0.72007238  0.23368340  1
  O  O342  1  0.64323474  0.80897819  0.21462669  1
  O  O343  1  0.80219247  0.78735669  0.28602156  1
  O  O344  1  0.49501888  0.96122748  0.20047125  1
  O  O345  1  0.95217262  0.63664813  0.29988835  1
  O  O346  1  0.39689793  0.19762015  0.31901153  1
  O  O347  1  0.04696327  0.39563190  0.18086679  1
  O  O348  1  0.35971188  0.22993940  0.26704358  1
  O  O349  1  0.08454003  0.36272293  0.23317533  1
  O  O350  1  0.59423561  0.53794953  0.19661418  1
  O  O351  1  0.85013238  0.05715025  0.30420980  1
  O  O352  1  0.22025042  0.90596044  0.21768595  1
  O  O353  1  0.22494970  0.68662634  0.28246948  1
  O  O354  1  0.01682030  0.88591254  0.18416354  1
  O  O355  1  0.42762240  0.70617400  0.31626120  1
  O  O356  1  0.57596060  0.33409476  0.22967323  1
  O  O357  1  0.86886805  0.26007224  0.27087656  1
  O  O358  1  0.36161177  0.45732423  0.23624027  1
  O  O359  1  0.08139787  0.13620901  0.26394385  1
  O  O360  1  0.14551278  0.67065038  0.17820212  1
  O  O361  1  0.29946413  0.92222842  0.32087071  1
  O  O362  1  0.77050907  0.44753594  0.33053823  1
  O  O363  1  0.14888426  0.66806476  0.33950133  1
  O  O364  1  0.61226337  0.60616497  0.25498675  1
  O  O365  1  0.83345683  0.98609938  0.24676872  1
  O  O366  1  0.22866759  0.18095872  0.21916247  1
  O  O367  1  0.21811165  0.41139498  0.28116620  1
  O  O368  1  0.86846351  0.54208222  0.19482204  1
  O  O369  1  0.57747882  0.05229852  0.30457573  1
  O  O370  1  0.44756868  0.18960253  0.18360174  1
  O  O371  1  0.00010013  0.40766841  0.31661742  1
  O  O372  1  0.86904260  0.75744800  0.23078585  1
  O  O373  1  0.57444632  0.83464820  0.26981732  1
  O  O374  1  0.08961055  0.62516708  0.41561409  1
  O  O375  1  0.31376009  0.99888796  0.41904881  1
  O  O376  1  0.84559319  0.47404186  0.44132546  1
  O  O377  1  0.56797512  0.16364603  0.40834023  1
  O  O378  1  0.80206220  0.92451908  0.35275651  1
  O  O379  1  0.44091472  0.64410983  0.37095982  1
  O  O380  1  0.98248680  0.01469081  0.47394091  1
  O  O381  1  0.28428252  0.78758223  0.38501760  1
  O  O382  1  0.12818453  0.84835725  0.45453904  1
  O  O383  1  0.52294968  0.41215531  0.48982012  1
  O  O384  1  0.88855969  0.18945681  0.35328631  1
  O  O385  1  0.57315726  0.38859808  0.43723602  1
  O  O386  1  0.83822238  0.24321934  0.40472479  1
  O  O387  1  0.12722611  0.32965544  0.38592567  1
  O  O388  1  0.29646087  0.31419016  0.45582170  1
  O  O389  1  0.97554562  0.47458888  0.37081119  1
  O  O390  1  0.43564409  0.13675857  0.46302427  1
  O  O391  1  0.90464364  0.70467958  0.48745671  1
  O  O392  1  0.53040449  0.92336876  0.35329054  1
  O  O393  1  0.84279375  0.75186243  0.43883253  1
  O  O394  1  0.57019094  0.88475677  0.40535105  1
  O  O395  1  0.07231527  0.06052517  0.36849537  1
  O  O396  1  0.34926560  0.57481224  0.48112131  1
  O  O397  1  0.71341215  0.43055026  0.39123780  1
  O  O398  1  0.72887100  0.20992459  0.45621457  1
  O  O399  1  0.50698260  0.41631014  0.35719237  1
  O  O400  1  0.93735086  0.29842616  0.49787174  1
  O  O401  1  0.05611436  0.85623693  0.40070264  1
  O  O402  1  0.35387170  0.78272067  0.43990788  1
  O  O403  1  0.83718838  0.97772682  0.41050057  1
  O  O404  1  0.56445729  0.65170556  0.44163003  1
  O  O405  1  0.62314167  0.19428510  0.35043103  1
  O  O406  1  0.11019071  0.12892805  0.42757365  1
  O  O407  1  0.31774896  0.51044343  0.41572141  1
  O  O408  1  0.70094190  0.70243355  0.39300760  1
  O  O409  1  0.69593345  0.92680447  0.45820935  1
  O  O410  1  0.34295820  0.05803224  0.36543784  1
  O  O411  1  0.08623084  0.57690260  0.47686000  1
  O  O412  1  0.91851984  0.69907382  0.35592660  1
  O  O413  1  0.46745281  0.81783366  0.50180069  1
  O  O414  1  0.35361457  0.27583017  0.40061796  1
  O  O415  1  0.05616217  0.34897893  0.44100771  1
  O  O416  1  0.03352727  0.35753949  0.57822330  1
  O  O417  1  0.83142569  0.97623494  0.58367529  1
  O  O418  1  0.38662695  0.01608232  0.66798675  1
  O  O419  1  0.00380382  0.81239708  0.66177460  1
  O  O420  1  0.29897711  0.51440110  0.58980758  1
  O  O421  1  0.56573441  0.84240749  0.56131438  1
  O  O422  1  0.53250712  0.27749784  0.64857297  1
  O  O423  1  0.72769075  0.38388863  0.53124148  1
  O  O424  1  0.17034509  0.99582080  0.62986463  1
  O  O425  1  0.84424451  0.19600525  0.54738507  1
  O  O426  1  0.00701976  0.14657570  0.61632131  1
  O  O427  1  0.61303670  0.54204288  0.64794312  1
  O  O428  1  0.24283448  0.91423778  0.50730864  1
  O  O429  1  0.55881792  0.60297627  0.59540643  1
  O  O430  1  0.30597505  0.74843491  0.55596638  1
  O  O431  1  0.00683256  0.65515254  0.54226792  1
  O  O432  1  0.86076928  0.68118400  0.61609513  1
  O  O433  1  0.16663562  0.47724778  0.53051173  1
  O  O434  1  0.70132935  0.82917364  0.62890452  1
  O  O435  1  0.25975121  0.27889542  0.64630139  1
  O  O436  1  0.61573081  0.11933724  0.50805832  1
  O  O437  1  0.29583514  0.24078247  0.59433496  1
  O  O438  1  0.57130599  0.10970348  0.56138520  1
  O  O439  1  0.02098837  0.92367585  0.52721967  1
  O  O440  1  0.80255380  0.40768615  0.63287219  1
  O  O441  1  0.45874613  0.57918784  0.54256883  1
  O  O442  1  0.43004635  0.78593986  0.60842313  1
  O  O443  1  0.64195122  0.68556541  0.49884435  1
  O  O444  1  0.23235557  0.77012649  0.64327157  1
  O  O445  1  0.07330994  0.13710381  0.55912965  1
  O  O446  1  0.78050813  0.20402177  0.60041084  1
  O  O447  1  0.29217824  0.02281559  0.56253410  1
  O  O448  1  0.57101991  0.34042800  0.59199765  1
  O  O449  1  0.35112949  0.55484861  0.64931259  1
  O  O450  1  0.87638806  0.01960346  0.66103752  1
  O  O451  1  0.49703527  0.80030976  0.66903402  1
  O  O452  1  0.04492588  0.86573754  0.58506475  1
  O  O453  1  0.83236726  0.48679182  0.57839165  1
  O  O454  1  0.43611865  0.28990153  0.54533074  1
  O  O455  1  0.43755966  0.06108309  0.60867313  1
  O  O456  1  0.76827773  0.94147351  0.52115910  1
  O  O457  1  0.07945334  0.42418138  0.63267352  1
  O  O458  1  0.20126647  0.20725501  0.50641891  1
  O  O459  1  0.64791700  0.05487481  0.64529915  1
  O  O460  1  0.78001942  0.70968956  0.56458825  1
  O  O461  1  0.09583869  0.64322679  0.59653404  1
  O  O462  1  0.55270216  0.84427670  0.74703360  1
  O  O463  1  0.34911446  0.46041477  0.75362153  1
  O  O464  1  0.90220749  0.49447767  0.83952249  1
  O  O465  1  0.51874009  0.28570807  0.83326675  1
  O  O466  1  0.81700636  0.99286352  0.76473364  1
  O  O467  1  0.08658360  0.31306498  0.73495990  1
  O  O468  1  0.05664913  0.75772690  0.82083855  1
  O  O469  1  0.85140420  0.54732825  0.67938180  1
  O  O470  1  0.21772285  0.83976097  0.70003416  1
  O  O471  1  0.68552095  0.47142403  0.80177933  1
  O  O472  1  0.37469353  0.67666533  0.71509502  1
  O  O473  1  0.53329913  0.62716425  0.78479805  1
  O  O474  1  0.13796323  0.02503585  0.81996490  1
  O  O475  1  0.76257288  0.27920164  0.68192121  1
  O  O476  1  0.08256266  0.07677561  0.76674411  1
  O  O477  1  0.81985174  0.22843472  0.73343914  1
  O  O478  1  0.53103846  0.14040955  0.71460851  1
  O  O479  1  0.37265435  0.16215022  0.78604891  1
  O  O480  1  0.67902004  0.98831840  0.70046568  1
  O  O481  1  0.22266137  0.31330340  0.79988723  1
  O  O482  1  0.77882194  0.75224280  0.81910481  1
  O  O483  1  0.12797347  0.55412176  0.68080073  1
  O  O484  1  0.81557971  0.72010696  0.76726780  1
  O  O485  1  0.09042619  0.58750683  0.73318611  1
  O  O486  1  0.58099102  0.41161211  0.69675852  1
  O  O487  1  0.32554001  0.89265666  0.80428478  1
  O  O488  1  0.95399322  0.04405581  0.71759584  1
  O  O489  1  0.94992771  0.26357866  0.78238136  1
  O  O490  1  0.15734013  0.06397224  0.68404382  1
  O  O491  1  0.74772765  0.24433227  0.81619141  1
  O  O492  1  0.59930371  0.61540054  0.72990683  1
  O  O493  1  0.30607545  0.68945124  0.77092774  1
  O  O494  1  0.81485303  0.49122744  0.73628753  1
  O  O495  1  0.09369111  0.81335907  0.76396223  1
  O  O496  1  0.02873517  0.27940862  0.67813697  1
  O  O497  1  0.87587868  0.02834828  0.82093446  1
  O  O498  1  0.40497895  0.50231491  0.83047982  1
  O  O499  1  0.02623978  0.28249796  0.83936317  1
  O  O500  1  0.56233517  0.34307317  0.75523857  1
  O  O501  1  0.34087912  0.96339164  0.74683621  1
  O  O502  1  0.94496957  0.76817409  0.71927587  1
  O  O503  1  0.95706880  0.53859349  0.78129624  1
  O  O504  1  0.30617466  0.40677912  0.69469587  1
  O  O505  1  0.59820368  0.89748227  0.80453839  1
  O  O506  1  0.72715243  0.76043619  0.68363272  1
  O  O507  1  0.17536450  0.54282763  0.81664544  1
  O  O508  1  0.30563750  0.19210544  0.73081597  1
  O  O509  1  0.60044860  0.11475916  0.76971361  1
  O  O510  1  0.08615250  0.32548038  0.91572895  1
  O  O511  1  0.86128058  0.95194603  0.91885696  1
  O  O512  1  0.33016311  0.47718552  0.94159484  1
  O  O513  1  0.60754217  0.78662328  0.90826565  1
  O  O514  1  0.37334649  0.02646816  0.85273665  1
  O  O515  1  0.73452570  0.30603659  0.87094816  1
  O  O516  1  0.19258266  0.93603694  0.97395047  1
  O  O517  1  0.89142419  0.16292110  0.88492634  1
  O  O518  1  0.04688461  0.10176761  0.95450361  1
  O  O519  1  0.65135265  0.53911693  0.98973568  1
  O  O520  1  0.28746816  0.76097594  0.85332900  1
  O  O521  1  0.60190044  0.56155363  0.93706629  1
  O  O522  1  0.33685042  0.70704973  0.90476050  1
  O  O523  1  0.04834298  0.62097580  0.88600050  1
  O  O524  1  0.87876159  0.63511070  0.95592573  1
  O  O525  1  0.19945676  0.47567199  0.87080163  1
  O  O526  1  0.73976017  0.81367019  0.96293449  1
  O  O527  1  0.27012222  0.24446300  0.98735407  1
  O  O528  1  0.64499373  0.02666931  0.85324800  1
  O  O529  1  0.33295017  0.19910171  0.93875518  1
  O  O530  1  0.60558265  0.06591450  0.90527120  1
  O  O531  1  0.10365028  0.89028510  0.86857688  1
  O  O532  1  0.82617219  0.37589257  0.98213840  1
  O  O533  1  0.46119602  0.51973273  0.89124641  1
  O  O534  1  0.44707203  0.74124084  0.95620584  1
  O  O535  1  0.66788463  0.53348660  0.85724775  1
  O  O536  1  0.23827818  0.65147262  0.99806671  1
  O  O537  1  0.11974484  0.09470656  0.90074052  1
  O  O538  1  0.82186824  0.16824058  0.93988375  1
  O  O539  1  0.33847592  0.97273067  0.91035677  1
  O  O540  1  0.61109325  0.29857878  0.94171566  1
  O  O541  1  0.55227870  0.75597412  0.85043740  1
  O  O542  1  0.06491844  0.82098254  0.92765907  1
  O  O543  1  0.85782550  0.43936470  0.91567024  1
  O  O544  1  0.47458209  0.24808027  0.89295709  1
  O  O545  1  0.47877755  0.02321762  0.95808300  1
  O  O546  1  0.83296339  0.89220657  0.86538263  1
  O  O547  1  0.08866618  0.37229129  0.97691874  1
  O  O548  1  0.25669812  0.25135091  0.85593913  1
  O  O549  1  0.70695913  0.13187270  0.00182713  1
  O  O550  1  0.82157648  0.67384938  0.90065154  1
  O  O551  1  0.11909395  0.60141392  0.94107212  1
