# generated using pymatgen
data_Li37La15Zr10O61
_symmetry_space_group_name_H-M   'P 1'
_cell_length_a   11.27162600
_cell_length_b   11.27162572
_cell_length_c   48.38765792
_cell_angle_alpha   90.00000000
_cell_angle_beta   90.00000000
_cell_angle_gamma   108.34782046
_symmetry_Int_Tables_number   1
_chemical_formula_structural   Li37La15Zr10O61
_chemical_formula_sum   'Li148 La60 Zr40 O244'
_cell_volume   5835.10356838
_cell_formula_units_Z   4
loop_
 _symmetry_equiv_pos_site_id
 _symmetry_equiv_pos_as_xyz
  1  'x, y, z'
loop_
 _atom_site_type_symbol
 _atom_site_label
 _atom_site_symmetry_multiplicity
 _atom_site_fract_x
 _atom_site_fract_y
 _atom_site_fract_z
 _atom_site_occupancy
  Li  Li0  1  0.73326812  0.83214854  0.00275546  1
  Li  Li1  1  0.97909716  0.88510566  0.11296430  1
  Li  Li2  1  0.81760304  0.10884451  0.03149554  1
  Li  Li3  1  0.12284081  0.75933099  0.10366506  1
  Li  Li4  1  0.52801583  0.33241870  0.13907992  1
  Li  Li5  1  0.64146510  0.89556481  0.17614683  1
  Li  Li6  1  0.57394244  0.30869678  0.09007555  1
  Li  Li7  1  0.10495649  0.40332980  0.05234540  1
  Li  Li8  1  0.05135471  0.29325973  0.00931545  1
  Li  Li9  1  0.53323120  0.50815861  0.09530752  1
  Li  Li10  1  0.42598140  0.91708558  0.19149983  1
  Li  Li11  1  0.75505185  0.30905406  0.12239235  1
  Li  Li12  1  0.16847625  0.88813959  0.14753985  1
  Li  Li13  1  0.99809952  0.34226474  0.16276219  1
  Li  Li14  1  0.12202880  0.94801090  0.06288414  1
  Li  Li15  1  0.57992395  0.82116633  0.04500969  1
  Li  Li16  1  0.00694898  0.90536663  0.01055747  1
  Li  Li17  1  0.62632816  0.75493950  0.10184193  1
  Li  Li18  1  0.82397912  0.33373841  0.99999793  1
  Li  Li19  1  0.98671766  0.38607719  0.11071443  1
  Li  Li20  1  0.30640234  0.06861410  0.17678202  1
  Li  Li21  1  0.86330740  0.15545529  0.13436578  1
  Li  Li22  1  0.31338838  0.09259013  0.03944762  1
  Li  Li23  1  0.41352602  0.64526106  0.08058751  1
  Li  Li24  1  0.39357830  0.30425661  0.18006867  1
  Li  Li25  1  0.77637194  0.92203714  0.13132678  1
  Li  Li26  1  0.53706052  0.18151650  0.03970598  1
  Li  Li27  1  0.17062114  0.55021552  0.08622687  1
  Li  Li28  1  0.19034325  0.34023975  0.19712284  1
  Li  Li29  1  0.45972643  0.40854032  0.30319083  1
  Li  Li30  1  0.05187256  0.48099882  0.20804954  1
  Li  Li31  1  0.59663998  0.26673967  0.29207192  1
  Li  Li32  1  0.00682026  0.85408609  0.32358460  1
  Li  Li33  1  0.11935111  0.41635867  0.36040847  1
  Li  Li34  1  0.04387225  0.81834793  0.27048569  1
  Li  Li35  1  0.60560146  0.93083766  0.22954570  1
  Li  Li36  1  0.62398358  0.71894328  0.21256811  1
  Li  Li37  1  0.02400746  0.03091955  0.28757360  1
  Li  Li38  1  0.89378415  0.44059720  0.37756653  1
  Li  Li39  1  0.22377894  0.83369139  0.30862399  1
  Li  Li40  1  0.65105265  0.40833985  0.33733964  1
  Li  Li41  1  0.47673618  0.86236888  0.35192139  1
  Li  Li42  1  0.59979735  0.45678539  0.26001263  1
  Li  Li43  1  0.05084363  0.28957461  0.24145001  1
  Li  Li44  1  0.55075025  0.47900692  0.20729949  1
  Li  Li45  1  0.09827668  0.27153616  0.29346253  1
  Li  Li46  1  0.18741218  0.83819638  0.19851257  1
  Li  Li47  1  0.46163198  0.91311657  0.30132367  1
  Li  Li48  1  0.78466843  0.59325584  0.36585527  1
  Li  Li49  1  0.34170279  0.68214486  0.32281332  1
  Li  Li50  1  0.77625469  0.59722315  0.22904517  1
  Li  Li51  1  0.87057552  0.15179484  0.27126378  1
  Li  Li52  1  0.87292532  0.82749847  0.36875903  1
  Li  Li53  1  0.25648910  0.44634646  0.32005021  1
  Li  Li54  1  0.01373832  0.68306088  0.22623710  1
  Li  Li55  1  0.63408478  0.06609869  0.27388268  1
  Li  Li56  1  0.66852046  0.86323572  0.38703346  1
  Li  Li57  1  0.91061586  0.91670300  0.49770949  1
  Li  Li58  1  0.52513873  0.98731945  0.39654018  1
  Li  Li59  1  0.83007171  0.64042005  0.46877976  1
  Li  Li60  1  0.54304595  0.34702412  0.44790870  1
  Li  Li61  1  0.07433976  0.44048191  0.40974412  1
  Li  Li62  1  0.11537623  0.24259111  0.40496166  1
  Li  Li63  1  0.60115758  0.45662645  0.49111782  1
  Li  Li64  1  0.06805690  0.92581124  0.45619508  1
  Li  Li65  1  0.52620118  0.80082053  0.43702061  1
  Li  Li66  1  0.02141679  0.99364723  0.39858213  1
  Li  Li67  1  0.63747359  0.84188914  0.48935392  1
  Li  Li68  1  0.66181133  0.36295210  0.38961228  1
  Li  Li69  1  0.83092954  0.41715314  0.49983896  1
  Li  Li70  1  0.23153404  0.10375926  0.41946422  1
  Li  Li71  1  0.33611231  0.65803623  0.46059369  1
  Li  Li72  1  0.47668978  0.19940673  0.41406783  1
  Li  Li73  1  0.11310418  0.56784802  0.46011882  1
  Li  Li74  1  0.41109793  0.91755613  0.50268284  1
  Li  Li75  1  0.17178272  0.86408932  0.61282554  1
  Li  Li76  1  0.33020661  0.63994836  0.53139319  1
  Li  Li77  1  0.02664830  0.98792222  0.60345141  1
  Li  Li78  1  0.62166908  0.41570141  0.63988914  1
  Li  Li79  1  0.50694088  0.85357390  0.67630478  1
  Li  Li80  1  0.57653133  0.43801405  0.59074605  1
  Li  Li81  1  0.04487827  0.34546538  0.55240087  1
  Li  Li82  1  0.10175901  0.45556746  0.50927937  1
  Li  Li83  1  0.61786398  0.24090041  0.59495106  1
  Li  Li84  1  0.72395886  0.83375491  0.69152667  1
  Li  Li85  1  0.39679129  0.43986743  0.62233224  1
  Li  Li86  1  0.98348747  0.85909372  0.64682339  1
  Li  Li87  1  0.15423001  0.40768230  0.66234332  1
  Li  Li88  1  0.02766848  0.80050578  0.56298626  1
  Li  Li89  1  0.57080616  0.92542449  0.54386051  1
  Li  Li90  1  0.13736456  0.84144084  0.51072002  1
  Li  Li91  1  0.52330234  0.99341702  0.60144538  1
  Li  Li92  1  0.33288307  0.41967070  0.50061849  1
  Li  Li93  1  0.16448622  0.36301101  0.61043339  1
  Li  Li94  1  0.84485063  0.68269105  0.67713699  1
  Li  Li95  1  0.28809211  0.59418896  0.63406025  1
  Li  Li96  1  0.83646632  0.65630936  0.53952402  1
  Li  Li97  1  0.73613108  0.10345084  0.58069946  1
  Li  Li98  1  0.75768483  0.44561463  0.67997187  1
  Li  Li99  1  0.37382064  0.82741968  0.63124229  1
  Li  Li100  1  0.61365392  0.56632476  0.54011038  1
  Li  Li101  1  0.97914148  0.19801659  0.58619966  1
  Li  Li102  1  0.96150079  0.40867247  0.69681736  1
  Li  Li103  1  0.69328388  0.34172893  0.80300152  1
  Li  Li104  1  0.09847084  0.26769038  0.70788492  1
  Li  Li105  1  0.55368595  0.48479486  0.79200969  1
  Li  Li106  1  0.14255374  0.89561616  0.82382824  1
  Li  Li107  1  0.02932475  0.33436126  0.86010903  1
  Li  Li108  1  0.10648277  0.93075927  0.77045175  1
  Li  Li109  1  0.54443050  0.81841666  0.72956657  1
  Li  Li110  1  0.52803527  0.02948679  0.71174057  1
  Li  Li111  1  0.12634701  0.71819131  0.78704092  1
  Li  Li112  1  0.25706606  0.31154695  0.87726043  1
  Li  Li113  1  0.92736107  0.91560662  0.80854878  1
  Li  Li114  1  0.50005613  0.34380587  0.83712519  1
  Li  Li115  1  0.67137133  0.88976308  0.85216288  1
  Li  Li116  1  0.54796467  0.29525557  0.76091515  1
  Li  Li117  1  0.10027462  0.45757676  0.74011665  1
  Li  Li118  1  0.59732653  0.27084434  0.70748027  1
  Li  Li119  1  0.05076909  0.47788630  0.79282785  1
  Li  Li120  1  0.96220745  0.91269949  0.69845655  1
  Li  Li121  1  0.68873795  0.83863488  0.80137029  1
  Li  Li122  1  0.36589317  0.15938868  0.86574437  1
  Li  Li123  1  0.80866515  0.06848649  0.82263445  1
  Li  Li124  1  0.37526788  0.15280573  0.72884464  1
  Li  Li125  1  0.27739902  0.59759188  0.77097972  1
  Li  Li126  1  0.27871351  0.92441537  0.86854437  1
  Li  Li127  1  0.89487253  0.30467864  0.81985375  1
  Li  Li128  1  0.13553634  0.06639812  0.72608478  1
  Li  Li129  1  0.51534972  0.68430176  0.77363284  1
  Li  Li130  1  0.48359544  0.88592149  0.88701921  1
  Li  Li131  1  0.23290501  0.83198534  0.99731082  1
  Li  Li132  1  0.62660303  0.75908570  0.89645494  1
  Li  Li133  1  0.31796787  0.10954233  0.96840559  1
  Li  Li134  1  0.60602713  0.40402653  0.94752558  1
  Li  Li135  1  0.07664229  0.31296362  0.90919607  1
  Li  Li136  1  0.03409860  0.50983068  0.90459139  1
  Li  Li137  1  0.55125464  0.29370140  0.99059009  1
  Li  Li138  1  0.08121280  0.82295310  0.95482201  1
  Li  Li139  1  0.62254203  0.94681531  0.93705228  1
  Li  Li140  1  0.12924674  0.75787594  0.89795713  1
  Li  Li141  1  0.50587767  0.90443717  0.98951059  1
  Li  Li142  1  0.48857329  0.38752245  0.88935115  1
  Li  Li143  1  0.32341833  0.33326063  0.99992595  1
  Li  Li144  1  0.91723071  0.64710961  0.91918846  1
  Li  Li145  1  0.81344439  0.09271758  0.96054361  1
  Li  Li146  1  0.67282501  0.55188866  0.91392654  1
  Li  Li147  1  0.03732405  0.18455768  0.95955760  1
  La  La148  1  0.83486734  0.60661026  0.10930381  1
  La  La149  1  0.33419060  0.10398460  0.10854530  1
  La  La150  1  0.36798140  0.61188642  0.01812812  1
  La  La151  1  0.89595367  0.80523795  0.17934810  1
  La  La152  1  0.27427994  0.41954514  0.13166535  1
  La  La153  1  0.04238002  0.66585039  0.04292752  1
  La  La154  1  0.65372056  0.04878909  0.08472956  1
  La  La155  1  0.66936183  0.55389722  0.03947883  1
  La  La156  1  0.02803656  0.15646983  0.08210200  1
  La  La157  1  0.77313751  0.42966402  0.17919517  1
  La  La158  1  0.40035984  0.80095936  0.13159269  1
  La  La159  1  0.33360085  0.62367379  0.20257684  1
  La  La160  1  0.31441422  0.12631517  0.29755138  1
  La  La161  1  0.81399277  0.62635293  0.29723757  1
  La  La162  1  0.83472697  0.12383666  0.20290011  1
  La  La163  1  0.37420063  0.33053249  0.36858366  1
  La  La164  1  0.75194223  0.94431964  0.32088769  1
  La  La165  1  0.51447245  0.18447603  0.22675384  1
  La  La166  1  0.13381923  0.56522876  0.27332866  1
  La  La167  1  0.13810199  0.06124228  0.22710585  1
  La  La168  1  0.51064852  0.68847124  0.27296501  1
  La  La169  1  0.24743428  0.94892688  0.36857530  1
  La  La170  1  0.87434484  0.31976296  0.32086814  1
  La  La171  1  0.81303142  0.14264605  0.39084341  1
  La  La172  1  0.28024206  0.13858833  0.48191700  1
  La  La173  1  0.31409613  0.64558714  0.39152391  1
  La  La174  1  0.99481160  0.70056578  0.41542765  1
  La  La175  1  0.60625573  0.08339704  0.45721907  1
  La  La176  1  0.62054286  0.59305448  0.41797437  1
  La  La177  1  0.97889255  0.19545988  0.46051849  1
  La  La178  1  0.31487217  0.14253750  0.60918487  1
  La  La179  1  0.81537107  0.64449077  0.60865083  1
  La  La180  1  0.78196045  0.13741089  0.51811551  1
  La  La181  1  0.25381190  0.94452020  0.67925404  1
  La  La182  1  0.87612940  0.32999358  0.63152138  1
  La  La183  1  0.10751394  0.08296303  0.54284808  1
  La  La184  1  0.49647272  0.70056229  0.58454846  1
  La  La185  1  0.48063287  0.19462483  0.53945982  1
  La  La186  1  0.12217692  0.59261115  0.58211403  1
  La  La187  1  0.37623164  0.31959069  0.67914018  1
  La  La188  1  0.74964813  0.94812338  0.63162582  1
  La  La189  1  0.81655061  0.12666386  0.70244920  1
  La  La190  1  0.83540081  0.62417744  0.79734986  1
  La  La191  1  0.33565429  0.12368959  0.79721873  1
  La  La192  1  0.31554368  0.62620998  0.70282176  1
  La  La193  1  0.77557746  0.42052019  0.86836517  1
  La  La194  1  0.39779899  0.80657210  0.82060612  1
  La  La195  1  0.63544706  0.56545524  0.72663216  1
  La  La196  1  0.01594362  0.18460242  0.77312879  1
  La  La197  1  0.01210908  0.68889895  0.72703117  1
  La  La198  1  0.63917134  0.06236591  0.77269541  1
  La  La199  1  0.90215067  0.80225210  0.86841153  1
  La  La200  1  0.27534756  0.43100312  0.82064899  1
  La  La201  1  0.33668873  0.60841840  0.89062162  1
  La  La202  1  0.86919944  0.61266677  0.98182540  1
  La  La203  1  0.83597759  0.10549646  0.89142981  1
  La  La204  1  0.15490734  0.05076648  0.91507338  1
  La  La205  1  0.54330854  0.66648934  0.95717626  1
  La  La206  1  0.52952135  0.15706013  0.91786341  1
  La  La207  1  0.17043990  0.55483457  0.96038856  1
  Zr  Zr208  1  0.58562335  0.61432603  0.15481552  1
  Zr  Zr209  1  0.83967441  0.35034040  0.05958517  1
  Zr  Zr210  1  0.08380183  0.11339906  0.15547925  1
  Zr  Zr211  1  0.35376022  0.86640458  0.05898991  1
  Zr  Zr212  1  0.84948390  0.86024353  0.05927697  1
  Zr  Zr213  1  0.08666106  0.61342072  0.15530115  1
  Zr  Zr214  1  0.58540890  0.11289537  0.15616092  1
  Zr  Zr215  1  0.33011390  0.34108627  0.05898810  1
  Zr  Zr216  1  0.06202451  0.13511480  0.34541736  1
  Zr  Zr217  1  0.32428042  0.87498307  0.25002314  1
  Zr  Zr218  1  0.56435359  0.63637526  0.34466690  1
  Zr  Zr219  1  0.82425382  0.37484447  0.25000507  1
  Zr  Zr220  1  0.32434351  0.37527946  0.25012446  1
  Zr  Zr221  1  0.56126265  0.13655919  0.34497994  1
  Zr  Zr222  1  0.06342714  0.63716349  0.34388805  1
  Zr  Zr223  1  0.82446128  0.87501017  0.25008442  1
  Zr  Zr224  1  0.80886989  0.39931768  0.44054656  1
  Zr  Zr225  1  0.29441478  0.88338175  0.44125876  1
  Zr  Zr226  1  0.79900888  0.88940418  0.44083543  1
  Zr  Zr227  1  0.31879017  0.40944686  0.44129542  1
  Zr  Zr228  1  0.56413689  0.13522309  0.65460239  1
  Zr  Zr229  1  0.31078043  0.39878906  0.55947803  1
  Zr  Zr230  1  0.06683333  0.63609105  0.65545416  1
  Zr  Zr231  1  0.79619631  0.88238185  0.55891966  1
  Zr  Zr232  1  0.30053968  0.88895149  0.55917368  1
  Zr  Zr233  1  0.06281274  0.13582064  0.65508540  1
  Zr  Zr234  1  0.56481018  0.63650790  0.65613120  1
  Zr  Zr235  1  0.82067513  0.40818863  0.55891028  1
  Zr  Zr236  1  0.08735261  0.61544511  0.84509685  1
  Zr  Zr237  1  0.82540125  0.87520512  0.74991493  1
  Zr  Zr238  1  0.58584021  0.11504145  0.84438323  1
  Zr  Zr239  1  0.32538671  0.37508540  0.74989520  1
  Zr  Zr240  1  0.82535478  0.37519061  0.74980710  1
  Zr  Zr241  1  0.58866751  0.61497668  0.84474829  1
  Zr  Zr242  1  0.08675857  0.11387032  0.84372522  1
  Zr  Zr243  1  0.32588909  0.87561122  0.74994725  1
  Zr  Zr244  1  0.34101118  0.35136917  0.94030853  1
  Zr  Zr245  1  0.85534601  0.86749488  0.94102975  1
  Zr  Zr246  1  0.35051212  0.86123126  0.94067841  1
  Zr  Zr247  1  0.83128571  0.34218436  0.94096144  1
  O  O248  1  0.25739565  0.66600629  0.05807027  1
  O  O249  1  0.44826993  0.05722896  0.06471359  1
  O  O250  1  0.89201174  0.01094938  0.15925547  1
  O  O251  1  0.27728187  0.21625198  0.15222696  1
  O  O252  1  0.99536829  0.49751360  0.07590368  1
  O  O253  1  0.70309649  0.19942438  0.04317546  1
  O  O254  1  0.74713736  0.74703188  0.13775117  1
  O  O255  1  0.42915527  0.47748919  0.17124455  1
  O  O256  1  0.59063306  0.65930833  0.00502360  1
  O  O257  1  0.11075913  0.03161815  0.11818411  1
  O  O258  1  0.44557890  0.83593995  0.02485308  1
  O  O259  1  0.27767239  0.88062210  0.09951551  1
  O  O260  1  0.66327149  0.48090018  0.13773312  1
  O  O261  1  0.51036930  0.74418203  0.17347677  1
  O  O262  1  0.71373324  0.43347439  0.07820417  1
  O  O263  1  0.96278923  0.26409923  0.04232685  1
  O  O264  1  0.22678522  0.38949899  0.02622758  1
  O  O265  1  0.42185201  0.33912230  0.09830686  1
  O  O266  1  0.57733489  0.19611259  0.11765768  1
  O  O267  1  0.01937823  0.75119504  0.13709196  1
  O  O268  1  0.15183445  0.47503326  0.17398321  1
  O  O269  1  0.98879098  0.78396069  0.07988758  1
  O  O270  1  0.73194968  0.93367072  0.03832680  1
  O  O271  1  0.69638068  0.61512485  0.19072890  1
  O  O272  1  0.47879905  0.61799834  0.11867647  1
  O  O273  1  0.85087822  0.47597542  0.02595336  1
  O  O274  1  0.84163228  0.24026731  0.09576349  1
  O  O275  1  0.12082886  0.96656165  0.17862866  1
  O  O276  1  0.04628322  0.25685269  0.13285506  1
  O  O277  1  0.20956707  0.89182170  0.03529972  1
  O  O278  1  0.50700763  0.82932322  0.08210135  1
  O  O279  1  0.99707793  0.99916058  0.04498816  1
  O  O280  1  0.71369587  0.69133391  0.07598188  1
  O  O281  1  0.24649867  0.75349968  0.17080834  1
  O  O282  1  0.92639132  0.47247181  0.13941009  1
  O  O283  1  0.39658828  0.00219480  0.15184342  1
  O  O284  1  0.77709615  0.22589514  0.16012089  1
  O  O285  1  0.23342577  0.15416465  0.06723414  1
  O  O286  1  0.45859180  0.52743186  0.05657216  1
  O  O287  1  0.86090364  0.73607533  0.02650510  1
  O  O288  1  0.84090396  0.96849611  0.09428776  1
  O  O289  1  0.97002753  0.61804962  0.18948246  1
  O  O290  1  0.20411281  0.60907609  0.12197012  1
  O  O291  1  0.54626795  0.26152953  0.17747961  1
  O  O292  1  0.62688271  0.96909021  0.13432522  1
  O  O293  1  0.43166402  0.27528026  0.02638811  1
  O  O294  1  0.19324613  0.38162811  0.08423167  1
  O  O295  1  0.72206551  0.18330154  0.24645477  1
  O  O296  1  0.92631237  0.56646476  0.25370693  1
  O  O297  1  0.37125568  0.53339101  0.34796863  1
  O  O298  1  0.75621144  0.73896554  0.34092374  1
  O  O299  1  0.45889887  0.03343760  0.26724625  1
  O  O300  1  0.18914360  0.71700384  0.23300546  1
  O  O301  1  0.21838189  0.27255123  0.32899955  1
  O  O302  1  0.90032621  0.00247721  0.36232382  1
  O  O303  1  0.05907170  0.19078191  0.19451973  1
  O  O304  1  0.58969149  0.55871510  0.30561994  1
  O  O305  1  0.90256641  0.34941282  0.21159099  1
  O  O306  1  0.74422268  0.40058011  0.28828872  1
  O  O307  1  0.13768693  0.00588863  0.32663702  1
  O  O308  1  0.98442488  0.26880163  0.36235905  1
  O  O309  1  0.19336446  0.95232823  0.26835596  1
  O  O310  1  0.45520363  0.79814974  0.23170549  1
  O  O311  1  0.74542691  0.88507098  0.21062034  1
  O  O312  1  0.90323686  0.86470941  0.28953988  1
  O  O313  1  0.59593089  0.03466146  0.19540906  1
  O  O314  1  0.05305187  0.71543073  0.30467271  1
  O  O315  1  0.49650644  0.27490571  0.32622585  1
  O  O316  1  0.62782649  0.99798156  0.36296967  1
  O  O317  1  0.46146242  0.30776250  0.26883881  1
  O  O318  1  0.18612686  0.44139094  0.23147931  1
  O  O319  1  0.16845802  0.13128543  0.38159064  1
  O  O320  1  0.95119086  0.13453183  0.30951216  1
  O  O321  1  0.32459844  0.98644047  0.21466020  1
  O  O322  1  0.32432248  0.76396747  0.28539472  1
  O  O323  1  0.60223361  0.49290939  0.36727682  1
  O  O324  1  0.52748267  0.78308283  0.32142703  1
  O  O325  1  0.67800071  0.41283438  0.22761050  1
  O  O326  1  0.96957017  0.33684103  0.27273655  1
  O  O327  1  0.46244707  0.53587943  0.23426797  1
  O  O328  1  0.18494832  0.21513417  0.26587572  1
  O  O329  1  0.72167680  0.27719267  0.36077248  1
  O  O330  1  0.40161764  0.99600060  0.32933481  1
  O  O331  1  0.87127970  0.52386846  0.33992225  1
  O  O332  1  0.25218796  0.74810967  0.34813104  1
  O  O333  1  0.71391449  0.68529112  0.25484600  1
  O  O334  1  0.93507741  0.06493853  0.24543496  1
  O  O335  1  0.32920728  0.25955159  0.21614193  1
  O  O336  1  0.31966294  0.49114269  0.28405888  1
  O  O337  1  0.44337277  0.14133227  0.37816797  1
  O  O338  1  0.67772265  0.13206856  0.31063036  1
  O  O339  1  0.02239201  0.78106231  0.36580258  1
  O  O340  1  0.10248243  0.48841639  0.32257356  1
  O  O341  1  0.97087144  0.83475069  0.22877133  1
  O  O342  1  0.67772243  0.91533864  0.27133488  1
  O  O343  1  0.20015675  0.69242073  0.43527022  1
  O  O344  1  0.39052707  0.08340100  0.44222128  1
  O  O345  1  0.94588441  0.54943542  0.45717021  1
  O  O346  1  0.65287995  0.25223430  0.42431024  1
  O  O347  1  0.53753395  0.71707046  0.38208850  1
  O  O348  1  0.05784379  0.09027382  0.49513224  1
  O  O349  1  0.36955376  0.86904295  0.40059635  1
  O  O350  1  0.20385519  0.91223337  0.47575751  1
  O  O351  1  0.68598076  0.48597876  0.45768533  1
  O  O352  1  0.93477215  0.31615984  0.42184451  1
  O  O353  1  0.22692937  0.41108874  0.40202332  1
  O  O354  1  0.42255735  0.35934385  0.47389352  1
  O  O355  1  0.07125853  0.55363200  0.38232254  1
  O  O356  1  0.91510884  0.81541576  0.46216049  1
  O  O357  1  0.65926164  0.96510012  0.42016623  1
  O  O358  1  0.80722073  0.50950189  0.40433526  1
  O  O359  1  0.79822115  0.27413374  0.47418345  1
  O  O360  1  0.14043312  0.92018379  0.41847570  1
  O  O361  1  0.43924784  0.85755177  0.46476211  1
  O  O362  1  0.93436137  0.05846629  0.42400460  1
  O  O363  1  0.65112580  0.75057041  0.45500516  1
  O  O364  1  0.18978144  0.22307737  0.44359780  1
  O  O365  1  0.41536795  0.59602925  0.43283878  1
  O  O366  1  0.80867892  0.78166084  0.40584758  1
  O  O367  1  0.78828936  0.01528539  0.47321434  1
  O  O368  1  0.45554830  0.36878626  0.41596014  1
  O  O369  1  0.22006324  0.47662933  0.47401071  1
  O  O370  1  0.89249951  0.08244864  0.55805752  1
  O  O371  1  0.70097488  0.69149790  0.56482488  1
  O  O372  1  0.25866811  0.73878782  0.65926106  1
  O  O373  1  0.87354424  0.53296592  0.65211756  1
  O  O374  1  0.15484137  0.25142017  0.57581350  1
  O  O375  1  0.44615644  0.54771496  0.54209209  1
  O  O376  1  0.40222640  0.00242890  0.63771399  1
  O  O377  1  0.72087959  0.27254670  0.67075187  1
  O  O378  1  0.56008177  0.08868146  0.50522771  1
  O  O379  1  0.03909986  0.71906252  0.61841147  1
  O  O380  1  0.70669543  0.91136913  0.52424815  1
  O  O381  1  0.87151175  0.86797522  0.59954442  1
  O  O382  1  0.48615950  0.26880113  0.63764430  1
  O  O383  1  0.63820430  0.00531512  0.67354905  1
  O  O384  1  0.43676728  0.31595915  0.57812077  1
  O  O385  1  0.18668970  0.48540716  0.54272163  1
  O  O386  1  0.92401168  0.35865678  0.52623895  1
  O  O387  1  0.72926692  0.40951584  0.59824434  1
  O  O388  1  0.57349495  0.55248616  0.61780672  1
  O  O389  1  0.13048185  0.99817667  0.63694384  1
  O  O390  1  0.99889217  0.27517836  0.67367843  1
  O  O391  1  0.16083250  0.96466857  0.57975953  1
  O  O392  1  0.41747334  0.81449075  0.53826311  1
  O  O393  1  0.45363048  0.13491144  0.69062800  1
  O  O394  1  0.67049215  0.13033480  0.61850477  1
  O  O395  1  0.29908999  0.27318135  0.52591238  1
  O  O396  1  0.31011921  0.50948279  0.59564749  1
  O  O397  1  0.02976130  0.78323113  0.67858154  1
  O  O398  1  0.10496044  0.49356065  0.63265722  1
  O  O399  1  0.94081249  0.85661870  0.53534314  1
  O  O400  1  0.64244469  0.91967936  0.58154316  1
  O  O401  1  0.15286990  0.74990043  0.54495799  1
  O  O402  1  0.43580294  0.05800474  0.57602906  1
  O  O403  1  0.90252541  0.99673094  0.67078300  1
  O  O404  1  0.22329226  0.27684305  0.63926780  1
  O  O405  1  0.75335048  0.74706138  0.65189649  1
  O  O406  1  0.37283294  0.52326067  0.66007475  1
  O  O407  1  0.91689426  0.59521263  0.56738102  1
  O  O408  1  0.69179231  0.22207008  0.55656519  1
  O  O409  1  0.29058957  0.01416588  0.52661785  1
  O  O410  1  0.30944679  0.78125633  0.59427171  1
  O  O411  1  0.17938954  0.13162282  0.68936266  1
  O  O412  1  0.94493136  0.13932873  0.62184788  1
  O  O413  1  0.60354010  0.48769097  0.67753099  1
  O  O414  1  0.52315395  0.77970780  0.63401789  1
  O  O415  1  0.72084926  0.47523936  0.52634620  1
  O  O416  1  0.95758823  0.36770881  0.58421547  1
  O  O417  1  0.42761572  0.56692396  0.74624667  1
  O  O418  1  0.22287123  0.18380522  0.75362038  1
  O  O419  1  0.77903898  0.21809265  0.84773194  1
  O  O420  1  0.39391036  0.01259430  0.84057522  1
  O  O421  1  0.69053740  0.71708917  0.76700641  1
  O  O422  1  0.96022620  0.03353289  0.73273076  1
  O  O423  1  0.93107910  0.47794997  0.82875861  1
  O  O424  1  0.24881791  0.74854912  0.86207218  1
  O  O425  1  0.09127884  0.55903334  0.69457943  1
  O  O426  1  0.56094110  0.19280146  0.80534592  1
  O  O427  1  0.24641051  0.40050889  0.71154713  1
  O  O428  1  0.40643914  0.35016128  0.78805829  1
  O  O429  1  0.01149199  0.74481552  0.82648349  1
  O  O430  1  0.16515025  0.48191770  0.86216165  1
  O  O431  1  0.95646522  0.79814057  0.76820681  1
  O  O432  1  0.69439586  0.95198178  0.73152369  1
  O  O433  1  0.40465008  0.86499371  0.71049522  1
  O  O434  1  0.24678864  0.88508644  0.78944428  1
  O  O435  1  0.55391905  0.71512941  0.69529701  1
  O  O436  1  0.09724318  0.03479702  0.80459063  1
  O  O437  1  0.65379679  0.47657306  0.82611971  1
  O  O438  1  0.52164000  0.75298598  0.86285519  1
  O  O439  1  0.68856567  0.44278172  0.76869470  1
  O  O440  1  0.96326396  0.30818417  0.73111535  1
  O  O441  1  0.98063232  0.61963142  0.88123248  1
  O  O442  1  0.19805036  0.61541574  0.80922941  1
  O  O443  1  0.82554490  0.76401726  0.71454354  1
  O  O444  1  0.82627099  0.98651611  0.78527386  1
  O  O445  1  0.54827117  0.25858204  0.86700964  1
  O  O446  1  0.62246741  0.96797187  0.82124628  1
  O  O447  1  0.47162281  0.33704122  0.72757553  1
  O  O448  1  0.17972213  0.41332375  0.77237563  1
  O  O449  1  0.68808957  0.21433266  0.73396917  1
  O  O450  1  0.96418622  0.53573071  0.76565434  1
  O  O451  1  0.42818547  0.47393035  0.86058070  1
  O  O452  1  0.74835433  0.75479886  0.82912195  1
  O  O453  1  0.27871926  0.22744526  0.83971721  1
  O  O454  1  0.89806564  0.00328983  0.84806376  1
  O  O455  1  0.43578091  0.06517795  0.75500451  1
  O  O456  1  0.21514919  0.68583262  0.74529347  1
  O  O457  1  0.82070862  0.49116417  0.71594914  1
  O  O458  1  0.83063261  0.25997525  0.78385162  1
  O  O459  1  0.70559335  0.61136939  0.87818909  1
  O  O460  1  0.47191022  0.61883311  0.81045011  1
  O  O461  1  0.12823643  0.97019236  0.86559089  1
  O  O462  1  0.04782923  0.26252914  0.82232037  1
  O  O463  1  0.17927703  0.91556185  0.72870122  1
  O  O464  1  0.47272089  0.83554344  0.77116931  1
  O  O465  1  0.94924882  0.05827151  0.93512795  1
  O  O466  1  0.75872405  0.66739470  0.94196545  1
  O  O467  1  0.20367658  0.20054616  0.95656332  1
  O  O468  1  0.49735512  0.49829271  0.92422589  1
  O  O469  1  0.61259813  0.03377447  0.88175688  1
  O  O470  1  0.09162580  0.65833048  0.99517561  1
  O  O471  1  0.77962807  0.88204448  0.90046309  1
  O  O472  1  0.94725421  0.83671322  0.97513342  1
  O  O473  1  0.46355474  0.26450482  0.95754852  1
  O  O474  1  0.21594066  0.43538766  0.92164231  1
  O  O475  1  0.92318532  0.34085607  0.90167220  1
  O  O476  1  0.72777093  0.39086895  0.97365930  1
  O  O477  1  0.07871788  0.19766838  0.88214303  1
  O  O478  1  0.23349085  0.93418260  0.96187506  1
  O  O479  1  0.49076472  0.78486788  0.92010766  1
  O  O480  1  0.34307914  0.24184307  0.90400803  1
  O  O481  1  0.35145726  0.47617710  0.97404373  1
  O  O482  1  0.00893023  0.83086495  0.91783781  1
  O  O483  1  0.71122897  0.89266283  0.96474188  1
  O  O484  1  0.21501496  0.69260096  0.92385295  1
  O  O485  1  0.49855626  0.99951411  0.95494772  1
  O  O486  1  0.96002645  0.52880973  0.94332408  1
  O  O487  1  0.73479504  0.15543796  0.93270250  1
  O  O488  1  0.34170531  0.96968939  0.90574774  1
  O  O489  1  0.36180913  0.73632119  0.97333842  1
  O  O490  1  0.69418230  0.38238485  0.91568383  1
  O  O491  1  0.93220084  0.27641303  0.97353406  1
