# generated using pymatgen
data_Li21La9Zr5O34
_symmetry_space_group_name_H-M   'P 1'
_cell_length_a   11.27162600
_cell_length_b   11.27162572
_cell_length_c   53.27362440
_cell_angle_alpha   90.00000000
_cell_angle_beta   90.00000000
_cell_angle_gamma   108.34782046
_symmetry_Int_Tables_number   1
_chemical_formula_structural   Li21La9Zr5O34
_chemical_formula_sum   'Li168 La72 Zr40 O272'
_cell_volume   6424.30589131
_cell_formula_units_Z   8
loop_
 _symmetry_equiv_pos_site_id
 _symmetry_equiv_pos_as_xyz
  1  'x, y, z'
loop_
 _atom_site_type_symbol
 _atom_site_label
 _atom_site_symmetry_multiplicity
 _atom_site_fract_x
 _atom_site_fract_y
 _atom_site_fract_z
 _atom_site_occupancy
  Li  Li0  1  0.58373342  0.69927321  0.03020258  1
  Li  Li1  1  0.85893712  0.79498355  0.12513537  1
  Li  Li2  1  0.46242748  0.87284969  0.03631955  1
  Li  Li3  1  0.00790780  0.65596201  0.11586050  1
  Li  Li4  1  0.41516443  0.24733579  0.14642774  1
  Li  Li5  1  0.16078981  0.31461312  0.00304182  1
  Li  Li6  1  0.44502345  0.21124449  0.09836693  1
  Li  Li7  1  0.00241996  0.31451805  0.05844016  1
  Li  Li8  1  0.03231132  0.10845350  0.03671257  1
  Li  Li9  1  0.41591058  0.42379614  0.11096956  1
  Li  Li10  1  0.84088899  0.32822191  0.02580836  1
  Li  Li11  1  0.62544633  0.23012345  0.12757012  1
  Li  Li12  1  0.04431536  0.80282142  0.15290312  1
  Li  Li13  1  0.39444397  0.68378476  0.01286926  1
  Li  Li14  1  0.99227351  0.85317304  0.08246908  1
  Li  Li15  1  0.44614395  0.69287550  0.06870714  1
  Li  Li16  1  0.96333532  0.88519091  0.03067534  1
  Li  Li17  1  0.50685281  0.65907419  0.11672200  1
  Li  Li18  1  0.60983580  0.19420863  0.02711391  1
  Li  Li19  1  0.86670490  0.29376792  0.12404964  1
  Li  Li20  1  0.66677133  0.39470517  0.00731043  1
  Li  Li21  1  0.74556353  0.06986102  0.14480923  1
  Li  Li22  1  0.17467630  0.98258340  0.06159154  1
  Li  Li23  1  0.27391707  0.54844867  0.10063236  1
  Li  Li24  1  0.77368961  0.64369669  0.01034600  1
  Li  Li25  1  0.66202708  0.83329876  0.14244567  1
  Li  Li26  1  0.42655454  0.06255260  0.05897657  1
  Li  Li27  1  0.03440708  0.44995533  0.09968572  1
  Li  Li28  1  0.07615825  0.24908881  0.20191050  1
  Li  Li29  1  0.34104468  0.31839425  0.29794258  1
  Li  Li30  1  0.93834322  0.39200466  0.21177408  1
  Li  Li31  1  0.48334787  0.17550858  0.28755109  1
  Li  Li32  1  0.89323713  0.76284297  0.31645789  1
  Li  Li33  1  0.53231591  0.81102374  0.18244159  1
  Li  Li34  1  0.92894536  0.72777006  0.26860646  1
  Li  Li35  1  0.49114158  0.84225348  0.23170228  1
  Li  Li36  1  0.50430672  0.63560029  0.21447375  1
  Li  Li37  1  0.90597009  0.94472560  0.28259782  1
  Li  Li38  1  0.31808431  0.83018817  0.19769055  1
  Li  Li39  1  0.10635975  0.74265387  0.30235411  1
  Li  Li40  1  0.53136467  0.32777895  0.32580219  1
  Li  Li41  1  0.87904775  0.25200706  0.17065858  1
  Li  Li42  1  0.48493754  0.36541161  0.25868166  1
  Li  Li43  1  0.93743037  0.20111291  0.24209034  1
  Li  Li44  1  0.43699213  0.38928596  0.21143535  1
  Li  Li45  1  0.98690782  0.18290672  0.28950062  1
  Li  Li46  1  0.07615517  0.75003010  0.20189169  1
  Li  Li47  1  0.34810750  0.81900076  0.29763479  1
  Li  Li48  1  0.18922979  0.97548004  0.18377530  1
  Li  Li49  1  0.23137527  0.59795511  0.31679630  1
  Li  Li50  1  0.65987501  0.50771696  0.23074447  1
  Li  Li51  1  0.75729874  0.06459015  0.26972478  1
  Li  Li52  1  0.28040285  0.21488244  0.18607727  1
  Li  Li53  1  0.14202668  0.35607801  0.31425901  1
  Li  Li54  1  0.90113608  0.59352179  0.22833075  1
  Li  Li55  1  0.52081135  0.97466965  0.27140228  1
  Li  Li56  1  0.57248362  0.77218946  0.37447682  1
  Li  Li57  1  0.83658122  0.84506075  0.46934922  1
  Li  Li58  1  0.40619587  0.92252947  0.38292706  1
  Li  Li59  1  0.97536328  0.67885206  0.45847133  1
  Li  Li60  1  0.44910040  0.29346357  0.46443814  1
  Li  Li61  1  0.00813158  0.32740982  0.35229611  1
  Li  Li62  1  0.43348882  0.22346553  0.42783676  1
  Li  Li63  1  0.97696844  0.36317695  0.40408387  1
  Li  Li64  1  0.98536841  0.16339576  0.38429075  1
  Li  Li65  1  0.40624494  0.45498694  0.46496121  1
  Li  Li66  1  0.80361426  0.33579752  0.37256485  1
  Li  Li67  1  0.57276231  0.19632900  0.48104382  1
  Li  Li68  1  0.04121730  0.86583186  0.49152990  1
  Li  Li69  1  0.37659395  0.76450608  0.34810382  1
  Li  Li70  1  0.98131233  0.88018873  0.43323031  1
  Li  Li71  1  0.40493463  0.73455312  0.40494010  1
  Li  Li72  1  0.91926029  0.91576418  0.38564642  1
  Li  Li73  1  0.50038984  0.69575461  0.47672489  1
  Li  Li74  1  0.56468280  0.28062756  0.37436932  1
  Li  Li75  1  0.86816543  0.34738157  0.46770106  1
  Li  Li76  1  0.67715029  0.49984039  0.35514426  1
  Li  Li77  1  0.69214470  0.06354883  0.48170894  1
  Li  Li78  1  0.14527036  0.02758034  0.40198277  1
  Li  Li79  1  0.36012997  0.60916698  0.44283266  1
  Li  Li80  1  0.76198642  0.73796148  0.35834585  1
  Li  Li81  1  0.63863405  0.85888009  0.49487691  1
  Li  Li82  1  0.38173843  0.11056238  0.39621017  1
  Li  Li83  1  0.02903115  0.50182303  0.44303806  1
  Li  Li84  1  0.56623287  0.22786371  0.52988932  1
  Li  Li85  1  0.29150222  0.13154617  0.62531612  1
  Li  Li86  1  0.68813021  0.05403236  0.53608783  1
  Li  Li87  1  0.14261893  0.26937422  0.61559598  1
  Li  Li88  1  0.73484920  0.67814779  0.64624548  1
  Li  Li89  1  0.99071585  0.61112249  0.50316703  1
  Li  Li90  1  0.70472060  0.71344843  0.59834127  1
  Li  Li91  1  0.14628430  0.61250806  0.55929201  1
  Li  Li92  1  0.11862736  0.81668221  0.53644977  1
  Li  Li93  1  0.73433948  0.50003537  0.61056108  1
  Li  Li94  1  0.30678686  0.60207599  0.52762020  1
  Li  Li95  1  0.52412356  0.69465867  0.62772776  1
  Li  Li96  1  0.10392687  0.12281991  0.65272862  1
  Li  Li97  1  0.75652311  0.24277329  0.51218747  1
  Li  Li98  1  0.15876841  0.07328029  0.58263971  1
  Li  Li99  1  0.70479779  0.23362367  0.56848652  1
  Li  Li100  1  0.18843300  0.03957600  0.52970104  1
  Li  Li101  1  0.64186218  0.26554368  0.61669669  1
  Li  Li102  1  0.54109654  0.73184235  0.52705456  1
  Li  Li103  1  0.28237196  0.63120864  0.62380527  1
  Li  Li104  1  0.48003812  0.53277862  0.50683420  1
  Li  Li105  1  0.40339338  0.85379286  0.64463403  1
  Li  Li106  1  0.97779904  0.94322228  0.56124667  1
  Li  Li107  1  0.87561717  0.37596939  0.60044739  1
  Li  Li108  1  0.37643641  0.28173298  0.51012066  1
  Li  Li109  1  0.48901522  0.09155319  0.64253014  1
  Li  Li110  1  0.72468766  0.86386041  0.55898915  1
  Li  Li111  1  0.11582834  0.47451375  0.59922423  1
  Li  Li112  1  0.07386385  0.67617855  0.70192312  1
  Li  Li113  1  0.80722699  0.60475023  0.79774752  1
  Li  Li114  1  0.21188208  0.53502319  0.71170498  1
  Li  Li115  1  0.66616415  0.74587900  0.78757412  1
  Li  Li116  1  0.25782961  0.16049947  0.81664333  1
  Li  Li117  1  0.61701490  0.11469728  0.68251540  1
  Li  Li118  1  0.22021530  0.19654344  0.76846243  1
  Li  Li119  1  0.65784738  0.08301320  0.73175096  1
  Li  Li120  1  0.64465286  0.29180125  0.71468373  1
  Li  Li121  1  0.24329240  0.97984058  0.78241162  1
  Li  Li122  1  0.83078075  0.09558822  0.69804252  1
  Li  Li123  1  0.04335689  0.18018417  0.80229000  1
  Li  Li124  1  0.61630851  0.59743128  0.82665916  1
  Li  Li125  1  0.27118862  0.67377553  0.67058428  1
  Li  Li126  1  0.66419652  0.55495232  0.75820018  1
  Li  Li127  1  0.21161654  0.72550850  0.74226850  1
  Li  Li128  1  0.71346609  0.53757634  0.71122633  1
  Li  Li129  1  0.16240195  0.74151646  0.78922212  1
  Li  Li130  1  0.07447184  0.17542420  0.70170298  1
  Li  Li131  1  0.80301389  0.10677125  0.79771256  1
  Li  Li132  1  0.96043929  0.95104162  0.68371708  1
  Li  Li133  1  0.91884204  0.32672238  0.81670900  1
  Li  Li134  1  0.48872927  0.41767510  0.73037480  1
  Li  Li135  1  0.39207717  0.86039360  0.76985837  1
  Li  Li136  1  0.86979833  0.71140668  0.68582926  1
  Li  Li137  1  0.00720742  0.56791877  0.81421903  1
  Li  Li138  1  0.24758161  0.33135352  0.72826348  1
  Li  Li139  1  0.62955568  0.95002629  0.77158905  1
  Li  Li140  1  0.57775153  0.15398729  0.87457580  1
  Li  Li141  1  0.30937767  0.08207491  0.96963668  1
  Li  Li142  1  0.74329041  0.00230676  0.88293350  1
  Li  Li143  1  0.17537329  0.24629251  0.95860296  1
  Li  Li144  1  0.70114396  0.63140154  0.96419801  1
  Li  Li145  1  0.14128568  0.59550447  0.85209111  1
  Li  Li146  1  0.71518880  0.70044269  0.92771348  1
  Li  Li147  1  0.17259443  0.56106368  0.90439074  1
  Li  Li148  1  0.16465975  0.76015029  0.88425088  1
  Li  Li149  1  0.74490757  0.47080035  0.96593788  1
  Li  Li150  1  0.34564075  0.58852721  0.87303057  1
  Li  Li151  1  0.57821040  0.72873108  0.98156702  1
  Li  Li152  1  0.10557158  0.05751462  0.99250097  1
  Li  Li153  1  0.77294861  0.16016841  0.84784343  1
  Li  Li154  1  0.16893815  0.04438342  0.93326997  1
  Li  Li155  1  0.74572838  0.19067475  0.90498806  1
  Li  Li156  1  0.22989612  0.00808640  0.88562870  1
  Li  Li157  1  0.65101804  0.23074985  0.97746744  1
  Li  Li158  1  0.58564249  0.64603737  0.87481274  1
  Li  Li159  1  0.28308164  0.57841436  0.96812368  1
  Li  Li160  1  0.47240720  0.42583331  0.85547946  1
  Li  Li161  1  0.45926462  0.86215072  0.98192035  1
  Li  Li162  1  0.00525244  0.89713129  0.90226117  1
  Li  Li163  1  0.78939133  0.31563048  0.94290986  1
  Li  Li164  1  0.38864147  0.18671555  0.85848761  1
  Li  Li165  1  0.51220712  0.06652125  0.99497392  1
  Li  Li166  1  0.77019697  0.81482768  0.89637561  1
  Li  Li167  1  0.12215588  0.42370878  0.94326798  1
  La  La168  1  0.73023087  0.99147788  0.03235611  1
  La  La169  1  0.72156995  0.51297660  0.12079918  1
  La  La170  1  0.22020185  0.01727325  0.12291210  1
  La  La171  1  0.22262741  0.51632395  0.04188348  1
  La  La172  1  0.32947883  0.17603052  0.02293386  1
  La  La173  1  0.15729231  0.33343183  0.14392964  1
  La  La174  1  0.92177606  0.58577122  0.05767453  1
  La  La175  1  0.54292304  0.95356178  0.09989675  1
  La  La176  1  0.53739323  0.45339848  0.05808349  1
  La  La177  1  0.91344120  0.07319037  0.09797194  1
  La  La178  1  0.19433801  0.83274285  0.01592168  1
  La  La179  1  0.28928072  0.71577175  0.14477342  1
  La  La180  1  0.21854843  0.53232287  0.20737896  1
  La  La181  1  0.20117488  0.03532140  0.29271561  1
  La  La182  1  0.70288667  0.53640903  0.29263602  1
  La  La183  1  0.72009753  0.03479069  0.20777271  1
  La  La184  1  0.78074846  0.71413122  0.18565371  1
  La  La185  1  0.63965395  0.85393094  0.31452756  1
  La  La186  1  0.40135963  0.09518596  0.22865195  1
  La  La187  1  0.02032461  0.47434372  0.27151438  1
  La  La188  1  0.02315613  0.96895538  0.22914625  1
  La  La189  1  0.39731936  0.59700756  0.27107202  1
  La  La190  1  0.65838775  0.33917300  0.18512864  1
  La  La191  1  0.76237282  0.23228226  0.31533371  1
  La  La192  1  0.69761669  0.05011827  0.37905919  1
  La  La193  1  0.68506922  0.54675098  0.46778465  1
  La  La194  1  0.20547496  0.07545730  0.46570380  1
  La  La195  1  0.19526566  0.54855343  0.37815210  1
  La  La196  1  0.26063114  0.23534265  0.35675246  1
  La  La197  1  0.14636600  0.39111858  0.48589856  1
  La  La198  1  0.87926843  0.61542090  0.40037410  1
  La  La199  1  0.49547136  0.98702086  0.44009591  1
  La  La200  1  0.50770357  0.49329157  0.40182538  1
  La  La201  1  0.89395712  0.11597961  0.44185766  1
  La  La202  1  0.13565508  0.85754183  0.35596886  1
  La  La203  1  0.25269047  0.74105176  0.48095755  1
  La  La204  1  0.42102155  0.93470554  0.53200578  1
  La  La205  1  0.42866914  0.41248042  0.62060028  1
  La  La206  1  0.92965659  0.90795709  0.62272207  1
  La  La207  1  0.92828928  0.40891422  0.54162888  1
  La  La208  1  0.82104868  0.74956038  0.52274715  1
  La  La209  1  0.99265406  0.59160437  0.64380565  1
  La  La210  1  0.22872650  0.33919008  0.55742987  1
  La  La211  1  0.60743003  0.97199473  0.59974618  1
  La  La212  1  0.61263927  0.47218103  0.55771814  1
  La  La213  1  0.23664569  0.85312007  0.59795331  1
  La  La214  1  0.95651827  0.09276784  0.51574740  1
  La  La215  1  0.86007992  0.20904498  0.64468020  1
  La  La216  1  0.93136837  0.39248013  0.70725729  1
  La  La217  1  0.94807524  0.88853949  0.79268612  1
  La  La218  1  0.44663846  0.38840192  0.79256357  1
  La  La219  1  0.42956732  0.89038093  0.70768723  1
  La  La220  1  0.36900295  0.21120700  0.68550291  1
  La  La221  1  0.50994302  0.07044009  0.81449820  1
  La  La222  1  0.74764026  0.82925969  0.72865776  1
  La  La223  1  0.12931874  0.45013063  0.77144524  1
  La  La224  1  0.12616208  0.95585857  0.72901042  1
  La  La225  1  0.75220466  0.32675797  0.77103263  1
  La  La226  1  0.49142270  0.58607513  0.68500542  1
  La  La227  1  0.38679601  0.69190680  0.81535034  1
  La  La228  1  0.45206397  0.87494521  0.87904575  1
  La  La229  1  0.46540190  0.37832982  0.96774392  1
  La  La230  1  0.94496162  0.84894382  0.96578310  1
  La  La231  1  0.95483531  0.37578910  0.87815311  1
  La  La232  1  0.88910597  0.68891699  0.85678163  1
  La  La233  1  0.00532993  0.53488051  0.98609750  1
  La  La234  1  0.27082174  0.30875324  0.90039804  1
  La  La235  1  0.65487419  0.93755184  0.94014390  1
  La  La236  1  0.64247130  0.43139581  0.90191365  1
  La  La237  1  0.25656159  0.80926272  0.94201349  1
  La  La238  1  0.01381834  0.06648513  0.85603893  1
  La  La239  1  0.89817362  0.18378269  0.98105943  1
  Zr  Zr240  1  0.47221577  0.52504085  0.16419664  1
  Zr  Zr241  1  0.72574657  0.25940453  0.07543931  1
  Zr  Zr242  1  0.96625917  0.02252508  0.16436991  1
  Zr  Zr243  1  0.23289081  0.77090279  0.08095246  1
  Zr  Zr244  1  0.72711559  0.76210239  0.07722400  1
  Zr  Zr245  1  0.97111181  0.52371054  0.16366299  1
  Zr  Zr246  1  0.47473956  0.02999663  0.16448427  1
  Zr  Zr247  1  0.22111219  0.26169287  0.08018843  1
  Zr  Zr248  1  0.94913467  0.04323275  0.33618059  1
  Zr  Zr249  1  0.21116605  0.78394495  0.25000733  1
  Zr  Zr250  1  0.45339369  0.54763399  0.33651805  1
  Zr  Zr251  1  0.71129420  0.28574410  0.25013478  1
  Zr  Zr252  1  0.21018566  0.28359692  0.24998431  1
  Zr  Zr253  1  0.45082713  0.04527442  0.33523485  1
  Zr  Zr254  1  0.94772717  0.54302066  0.33587618  1
  Zr  Zr255  1  0.70920073  0.78381033  0.25018014  1
  Zr  Zr256  1  0.70171082  0.30658987  0.42431080  1
  Zr  Zr257  1  0.18836020  0.80199984  0.41990801  1
  Zr  Zr258  1  0.68744349  0.79998361  0.42518066  1
  Zr  Zr259  1  0.19927132  0.30854739  0.42152774  1
  Zr  Zr260  1  0.67783121  0.40041861  0.66408254  1
  Zr  Zr261  1  0.42515899  0.66613903  0.57543688  1
  Zr  Zr262  1  0.18341998  0.90291987  0.66422844  1
  Zr  Zr263  1  0.91758016  0.15426494  0.58081798  1
  Zr  Zr264  1  0.42368481  0.16321975  0.57708758  1
  Zr  Zr265  1  0.17904646  0.40176470  0.66351253  1
  Zr  Zr266  1  0.67527344  0.89541299  0.66443658  1
  Zr  Zr267  1  0.92871700  0.66355655  0.58000752  1
  Zr  Zr268  1  0.20016689  0.88072414  0.83614465  1
  Zr  Zr269  1  0.93868029  0.14039885  0.74994768  1
  Zr  Zr270  1  0.69620196  0.37681223  0.83652839  1
  Zr  Zr271  1  0.43814479  0.63945417  0.75010169  1
  Zr  Zr272  1  0.93882592  0.64059150  0.74987466  1
  Zr  Zr273  1  0.69868381  0.87904775  0.83518990  1
  Zr  Zr274  1  0.20222662  0.38057904  0.83584181  1
  Zr  Zr275  1  0.44010556  0.14119548  0.75008942  1
  Zr  Zr276  1  0.44807513  0.61825365  0.92448762  1
  Zr  Zr277  1  0.96208798  0.12286524  0.92004129  1
  Zr  Zr278  1  0.46307216  0.12455841  0.92543260  1
  Zr  Zr279  1  0.95080022  0.61563408  0.92164462  1
  O  O280  1  0.12927978  0.57890680  0.07828133  1
  O  O281  1  0.33129936  0.96036096  0.08375416  1
  O  O282  1  0.15861243  0.12460579  0.16194389  1
  O  O283  1  0.86320987  0.42255068  0.08979553  1
  O  O284  1  0.59639364  0.09468426  0.06126756  1
  O  O285  1  0.62976862  0.65902713  0.14844395  1
  O  O286  1  0.43523387  0.55436173  0.03174346  1
  O  O287  1  0.99253726  0.94125865  0.13012628  1
  O  O288  1  0.31853789  0.74124447  0.04740973  1
  O  O289  1  0.15617534  0.79066003  0.11640629  1
  O  O290  1  0.54964648  0.39469875  0.14798521  1
  O  O291  1  0.92014810  0.02415933  0.00747786  1
  O  O292  1  0.60318244  0.33365510  0.09549023  1
  O  O293  1  0.85635358  0.18601406  0.05675271  1
  O  O294  1  0.15528155  0.28191759  0.04228269  1
  O  O295  1  0.30102594  0.25496965  0.11617765  1
  O  O296  1  0.99517616  0.45914032  0.03066783  1
  O  O297  1  0.46081956  0.10798910  0.12900655  1
  O  O298  1  0.90255184  0.65852212  0.14652188  1
  O  O299  1  0.54676653  0.81860596  0.00841084  1
  O  O300  1  0.86740528  0.69700443  0.09444258  1
  O  O301  1  0.59152173  0.82778106  0.06161705  1
  O  O302  1  0.14129461  0.01352764  0.02737191  1
  O  O303  1  0.35936479  0.52837728  0.13288877  1
  O  O304  1  0.70309798  0.35793291  0.04257848  1
  O  O305  1  0.73156399  0.15120045  0.10855845  1
  O  O306  1  0.52031113  0.25213660  0.99900535  1
  O  O307  1  0.92958514  0.16682916  0.14336558  1
  O  O308  1  0.08939986  0.79971050  0.05910454  1
  O  O309  1  0.38172822  0.73217611  0.10046252  1
  O  O310  1  0.87030203  0.91385347  0.06249014  1
  O  O311  1  0.59184933  0.59658846  0.09200769  1
  O  O312  1  0.81148672  0.38271394  0.14934346  1
  O  O313  1  0.28618499  0.91729180  0.16145209  1
  O  O314  1  0.11707382  0.07038578  0.08512500  1
  O  O315  1  0.32978391  0.44911255  0.07849926  1
  O  O316  1  0.72683515  0.64727909  0.04541940  1
  O  O317  1  0.72603853  0.87644701  0.10874887  1
  O  O318  1  0.39370840  0.99582740  0.02125839  1
  O  O319  1  0.08376207  0.51375921  0.13281161  1
  O  O320  1  0.96184851  0.72951301  0.00640022  1
  O  O321  1  0.51515376  0.88312002  0.14528513  1
  O  O322  1  0.38175323  0.22643258  0.06472626  1
  O  O323  1  0.06704304  0.29399222  0.09688450  1
  O  O324  1  0.60983143  0.09363172  0.24698879  1
  O  O325  1  0.81352561  0.47732567  0.25366368  1
  O  O326  1  0.77542664  0.92035071  0.16804844  1
  O  O327  1  0.64386458  0.65142048  0.33329856  1
  O  O328  1  0.34623570  0.94378394  0.26481750  1
  O  O329  1  0.07623222  0.62449257  0.23488327  1
  O  O330  1  0.10676419  0.17991348  0.32077160  1
  O  O331  1  0.31153503  0.38984676  0.17949310  1
  O  O332  1  0.94455312  0.09874318  0.20004678  1
  O  O333  1  0.47682617  0.46525463  0.30189449  1
  O  O334  1  0.79005397  0.26046248  0.21545875  1
  O  O335  1  0.63044464  0.31008729  0.28501826  1
  O  O336  1  0.02502131  0.91233225  0.31989178  1
  O  O337  1  0.40028297  0.65800110  0.18182121  1
  O  O338  1  0.07987236  0.85963199  0.26676887  1
  O  O339  1  0.34273523  0.70711631  0.23367820  1
  O  O340  1  0.63121174  0.79671430  0.21461582  1
  O  O341  1  0.78993769  0.77490060  0.28605751  1
  O  O342  1  0.48327316  0.94888413  0.20050455  1
  O  O343  1  0.93953673  0.62371944  0.29993894  1
  O  O344  1  0.38443798  0.18498242  0.31898340  1
  O  O345  1  0.03517048  0.38339361  0.18077280  1
  O  O346  1  0.34755975  0.21695746  0.26704973  1
  O  O347  1  0.07320559  0.35096080  0.23305679  1
  O  O348  1  0.58217706  0.52594474  0.19669187  1
  O  O349  1  0.83782253  0.04504547  0.30417969  1
  O  O350  1  0.20906670  0.89392139  0.21772105  1
  O  O351  1  0.21230218  0.67348696  0.28241915  1
  O  O352  1  0.00499927  0.87387877  0.18432928  1
  O  O353  1  0.41498413  0.69332614  0.31613952  1
  O  O354  1  0.56445001  0.32231480  0.22971198  1
  O  O355  1  0.85735301  0.24844115  0.27082763  1
  O  O356  1  0.34921588  0.44454037  0.23637645  1
  O  O357  1  0.06983239  0.12307194  0.26402630  1
  O  O358  1  0.13374216  0.65821723  0.17823328  1
  O  O359  1  0.28753797  0.90915569  0.32095534  1
  O  O360  1  0.75776444  0.43481707  0.33067217  1
  O  O361  1  0.66563386  0.13683942  0.16932225  1
  O  O362  1  0.60030655  0.59364663  0.25523751  1
  O  O363  1  0.82110378  0.97341424  0.24678005  1
  O  O364  1  0.21664285  0.16838362  0.21920970  1
  O  O365  1  0.20534444  0.39819233  0.28121712  1
  O  O366  1  0.85654273  0.52925403  0.19484246  1
  O  O367  1  0.56511682  0.03994903  0.30453709  1
  O  O368  1  0.43538641  0.17702776  0.18370517  1
  O  O369  1  0.98765141  0.39508731  0.31668416  1
  O  O370  1  0.85618821  0.74448280  0.23078507  1
  O  O371  1  0.56187660  0.82223504  0.26974087  1
  O  O372  1  0.07700334  0.61307340  0.41566749  1
  O  O373  1  0.30037288  0.98725593  0.41916448  1
  O  O374  1  0.26012945  0.44358548  0.33955635  1
  O  O375  1  0.83276087  0.46143043  0.44124534  1
  O  O376  1  0.55492621  0.15061483  0.40840102  1
  O  O377  1  0.78954793  0.91161253  0.35261582  1
  O  O378  1  0.42792915  0.63142519  0.37095956  1
  O  O379  1  0.96972956  0.00230354  0.47376692  1
  O  O380  1  0.27159850  0.77541764  0.38507043  1
  O  O381  1  0.11542320  0.83619751  0.45458592  1
  O  O382  1  0.51076209  0.40068316  0.48976873  1
  O  O383  1  0.87618144  0.17659324  0.35330379  1
  O  O384  1  0.56012338  0.37602192  0.43720136  1
  O  O385  1  0.82522566  0.23067454  0.40473968  1
  O  O386  1  0.11433372  0.31705416  0.38588811  1
  O  O387  1  0.28438470  0.30148511  0.45569117  1
  O  O388  1  0.96248349  0.46185957  0.37090339  1
  O  O389  1  0.42294358  0.12387707  0.46313673  1
  O  O390  1  0.89249421  0.69292445  0.48735568  1
  O  O391  1  0.51796384  0.91053123  0.35323165  1
  O  O392  1  0.82988306  0.73948039  0.43880311  1
  O  O393  1  0.55686891  0.87193507  0.40532957  1
  O  O394  1  0.05990820  0.04750681  0.36847514  1
  O  O395  1  0.33725168  0.56288901  0.48087772  1
  O  O396  1  0.70013864  0.41808853  0.39119779  1
  O  O397  1  0.71601167  0.19776676  0.45621602  1
  O  O398  1  0.49416409  0.40372541  0.35706865  1
  O  O399  1  0.92541854  0.28676980  0.49787066  1
  O  O400  1  0.04303220  0.84340888  0.40073034  1
  O  O401  1  0.34100090  0.77048780  0.43989981  1
  O  O402  1  0.82443900  0.96517033  0.41037566  1
  O  O403  1  0.55187464  0.63936146  0.44155147  1
  O  O404  1  0.61150417  0.18107136  0.35054894  1
  O  O405  1  0.13625912  0.65529336  0.33953337  1
  O  O406  1  0.09718010  0.11692613  0.42739746  1
  O  O407  1  0.30482002  0.49838217  0.41572422  1
  O  O408  1  0.68836453  0.69014755  0.39292916  1
  O  O409  1  0.68387846  0.91494889  0.45814861  1
  O  O410  1  0.33072010  0.04560433  0.36540209  1
  O  O411  1  0.07410140  0.56532802  0.47692585  1
  O  O412  1  0.90595934  0.68656031  0.35590259  1
  O  O413  1  0.45581252  0.80605508  0.50178338  1
  O  O414  1  0.34120021  0.26402687  0.40049798  1
  O  O415  1  0.04399272  0.33690771  0.44099925  1
  O  O416  1  0.02125766  0.34603515  0.57808855  1
  O  O417  1  0.81927958  0.96490855  0.58383986  1
  O  O418  1  0.99125203  0.80096171  0.66170891  1
  O  O419  1  0.28714464  0.50264864  0.58958934  1
  O  O420  1  0.55441835  0.83101189  0.56132567  1
  O  O421  1  0.52039712  0.26599103  0.64830861  1
  O  O422  1  0.71576182  0.37177313  0.53140432  1
  O  O423  1  0.15813870  0.98392051  0.62986180  1
  O  O424  1  0.83245747  0.18438113  0.54727004  1
  O  O425  1  0.99442488  0.13496151  0.61634256  1
  O  O426  1  0.60017397  0.53069931  0.64793261  1
  O  O427  1  0.23169781  0.90250975  0.50723958  1
  O  O428  1  0.54710162  0.59149027  0.59536339  1
  O  O429  1  0.29450712  0.73688828  0.55589405  1
  O  O430  1  0.99531918  0.64366817  0.54219270  1
  O  O431  1  0.84912885  0.66972470  0.61601458  1
  O  O432  1  0.15527239  0.46528424  0.53038847  1
  O  O433  1  0.68912700  0.81687926  0.62900172  1
  O  O434  1  0.24745517  0.26662338  0.64644042  1
  O  O435  1  0.60362059  0.10746157  0.50817172  1
  O  O436  1  0.28342520  0.22861355  0.59436871  1
  O  O437  1  0.55946959  0.09810910  0.56147262  1
  O  O438  1  0.00945868  0.91172305  0.52700489  1
  O  O439  1  0.79045668  0.39653169  0.63275598  1
  O  O440  1  0.44747051  0.56813631  0.54248632  1
  O  O441  1  0.41803272  0.77405463  0.60846191  1
  O  O442  1  0.63045150  0.67423564  0.49868349  1
  O  O443  1  0.22006339  0.75827744  0.64326217  1
  O  O444  1  0.06106318  0.12548473  0.55906084  1
  O  O445  1  0.76841554  0.19284132  0.60033881  1
  O  O446  1  0.28045275  0.01133460  0.56242442  1
  O  O447  1  0.55866944  0.32932270  0.59182499  1
  O  O448  1  0.33866249  0.54275933  0.64922581  1
  O  O449  1  0.86376892  0.00789186  0.66127324  1
  O  O450  1  0.03309197  0.85480480  0.58501939  1
  O  O451  1  0.82071310  0.47594568  0.57829906  1
  O  O452  1  0.42376828  0.27812706  0.54522285  1
  O  O453  1  0.42520178  0.04932573  0.60864405  1
  O  O454  1  0.75677702  0.92996350  0.52114108  1
  O  O455  1  0.06719592  0.41253051  0.63261318  1
  O  O456  1  0.18894908  0.19510971  0.50625490  1
  O  O457  1  0.63568478  0.04268643  0.64529898  1
  O  O458  1  0.76843630  0.69898554  0.56457352  1
  O  O459  1  0.08418260  0.63164154  0.59638270  1
  O  O460  1  0.53981504  0.83130092  0.74704209  1
  O  O461  1  0.33564686  0.44777557  0.75354012  1
  O  O462  1  0.37436615  0.00482982  0.66798874  1
  O  O463  1  0.50622989  0.27218026  0.83342385  1
  O  O464  1  0.80374076  0.98062397  0.76477597  1
  O  O465  1  0.07338870  0.30023859  0.73485574  1
  O  O466  1  0.04258512  0.74426919  0.82070637  1
  O  O467  1  0.83858104  0.53590864  0.67929376  1
  O  O468  1  0.20488594  0.82664511  0.69993468  1
  O  O469  1  0.67226029  0.45799224  0.80179682  1
  O  O470  1  0.36018179  0.66524721  0.71530677  1
  O  O471  1  0.51752906  0.61436978  0.78504674  1
  O  O472  1  0.12435649  0.01183415  0.81991553  1
  O  O473  1  0.74960871  0.26754304  0.68179009  1
  O  O474  1  0.06974102  0.06437199  0.76674571  1
  O  O475  1  0.80734735  0.21704501  0.73358540  1
  O  O476  1  0.51833559  0.12882477  0.71454562  1
  O  O477  1  0.36006550  0.14955870  0.78602026  1
  O  O478  1  0.66601169  0.97617107  0.70049815  1
  O  O479  1  0.21040194  0.30018755  0.79992112  1
  O  O480  1  0.76459749  0.73889125  0.81899849  1
  O  O481  1  0.11484495  0.54183632  0.68071207  1
  O  O482  1  0.80119204  0.70635151  0.76701533  1
  O  O483  1  0.07630653  0.57409359  0.73296411  1
  O  O484  1  0.56756760  0.39973357  0.69652610  1
  O  O485  1  0.31155213  0.87958041  0.80414955  1
  O  O486  1  0.94089752  0.03114272  0.71760680  1
  O  O487  1  0.93773204  0.25075091  0.78241476  1
  O  O488  1  0.14468551  0.05149397  0.68411460  1
  O  O489  1  0.73506712  0.23133681  0.81610687  1
  O  O490  1  0.58495349  0.60268733  0.72966305  1
  O  O491  1  0.29178996  0.67657723  0.77076877  1
  O  O492  1  0.79951087  0.47963262  0.73625126  1
  O  O493  1  0.07946241  0.80119972  0.76386049  1
  O  O494  1  0.01628472  0.26697698  0.67805744  1
  O  O495  1  0.86214030  0.01507373  0.82093672  1
  O  O496  1  0.39235901  0.48916430  0.83062133  1
  O  O497  1  0.48426326  0.78838579  0.66914967  1
  O  O498  1  0.54927055  0.33162177  0.75495297  1
  O  O499  1  0.32824365  0.95136277  0.74673883  1
  O  O500  1  0.93238727  0.75600122  0.71914373  1
  O  O501  1  0.94387038  0.52576230  0.78111436  1
  O  O502  1  0.29354318  0.39571644  0.69474967  1
  O  O503  1  0.58397650  0.88458483  0.80460411  1
  O  O504  1  0.71442860  0.74829967  0.68372540  1
  O  O505  1  0.16178742  0.52847928  0.81667417  1
  O  O506  1  0.29277551  0.18022192  0.73076742  1
  O  O507  1  0.58791143  0.10286691  0.76961407  1
  O  O508  1  0.07389401  0.31168812  0.91588214  1
  O  O509  1  0.85028667  0.93763754  0.91927468  1
  O  O510  1  0.88965919  0.48084546  0.83959132  1
  O  O511  1  0.31783890  0.46388698  0.94162268  1
  O  O512  1  0.59542830  0.77367911  0.90840300  1
  O  O513  1  0.35962442  0.01254955  0.85266041  1
  O  O514  1  0.72252027  0.29336835  0.87098225  1
  O  O515  1  0.17993706  0.92219074  0.97396663  1
  O  O516  1  0.87871102  0.14914366  0.88521602  1
  O  O517  1  0.03478622  0.08846471  0.95469917  1
  O  O518  1  0.63889793  0.52610128  0.98982481  1
  O  O519  1  0.27316939  0.74734510  0.85329406  1
  O  O520  1  0.58974941  0.54845065  0.93717731  1
  O  O521  1  0.32464874  0.69392793  0.90481900  1
  O  O522  1  0.03552051  0.60683914  0.88601041  1
  O  O523  1  0.86610645  0.62258174  0.95586638  1
  O  O524  1  0.18739678  0.46195752  0.87090012  1
  O  O525  1  0.72740985  0.80095818  0.96319973  1
  O  O526  1  0.25779264  0.23122942  0.98742130  1
  O  O527  1  0.63180158  0.01386968  0.85324714  1
  O  O528  1  0.32040568  0.18568075  0.93884781  1
  O  O529  1  0.59332824  0.05290813  0.90538447  1
  O  O530  1  0.08973999  0.87656382  0.86851458  1
  O  O531  1  0.81345445  0.36308450  0.98207980  1
  O  O532  1  0.44946458  0.50655173  0.89133359  1
  O  O533  1  0.43460081  0.72780987  0.95629545  1
  O  O534  1  0.65574680  0.52070111  0.85724236  1
  O  O535  1  0.22546706  0.63849359  0.99816513  1
  O  O536  1  0.10720722  0.08094562  0.90083078  1
  O  O537  1  0.80950426  0.15471795  0.94004331  1
  O  O538  1  0.32578181  0.95978513  0.91048157  1
  O  O539  1  0.59860652  0.28542649  0.94186447  1
  O  O540  1  0.53836484  0.74294673  0.85053655  1
  O  O541  1  0.01358382  0.26868770  0.83955447  1
  O  O542  1  0.05305788  0.80745995  0.92756476  1
  O  O543  1  0.84533841  0.42582602  0.91583282  1
  O  O544  1  0.46250158  0.23493786  0.89307649  1
  O  O545  1  0.46705343  0.00989332  0.95820975  1
  O  O546  1  0.81894602  0.87875508  0.86540274  1
  O  O547  1  0.07641454  0.35978819  0.97701476  1
  O  O548  1  0.24417972  0.23749096  0.85597580  1
  O  O549  1  0.69504417  0.11958577  0.00202323  1
  O  O550  1  0.80908579  0.66052966  0.90062793  1
  O  O551  1  0.10641677  0.58793502  0.94113831  1
