# generated using pymatgen
data_Li21La9Zr5O34
_symmetry_space_group_name_H-M   'P 1'
_cell_length_a   13.20454200
_cell_length_b   28.63531300
_cell_length_c   18.19866829
_cell_angle_alpha   90.00000000
_cell_angle_beta   90.00000000
_cell_angle_gamma   89.99998399
_symmetry_Int_Tables_number   1
_chemical_formula_structural   Li21La9Zr5O34
_chemical_formula_sum   'Li168 La72 Zr40 O272'
_cell_volume   6881.21117538
_cell_formula_units_Z   8
loop_
 _symmetry_equiv_pos_site_id
 _symmetry_equiv_pos_as_xyz
  1  'x, y, z'
loop_
 _atom_site_type_symbol
 _atom_site_label
 _atom_site_symmetry_multiplicity
 _atom_site_fract_x
 _atom_site_fract_y
 _atom_site_fract_z
 _atom_site_occupancy
  Li  Li0  1  0.40365839  0.88024504  0.99096188  1
  Li  Li1  1  0.10541045  0.34836265  0.05108585  1
  Li  Li2  1  0.83859740  0.86544067  0.06405598  1
  Li  Li3  1  0.91031251  0.91565941  0.98193875  1
  Li  Li4  1  0.05813953  0.75298475  0.99771440  1
  Li  Li5  1  0.95965784  0.22569960  0.92704010  1
  Li  Li6  1  0.24131145  0.15723804  0.03221335  1
  Li  Li7  1  0.71518794  0.66747270  0.92936638  1
  Li  Li8  1  0.28620277  0.80911346  0.00761514  1
  Li  Li9  1  0.62733377  0.31197639  0.01017144  1
  Li  Li10  1  0.83314632  0.70037973  0.04892149  1
  Li  Li11  1  0.97076480  0.25954301  0.05683673  1
  Li  Li12  1  0.07523757  0.19616351  0.02879439  1
  Li  Li13  1  0.91162816  0.79647101  0.07447798  1
  Li  Li14  1  0.69519106  0.96083501  0.98584523  1
  Li  Li15  1  0.01330336  0.53468480  0.01833715  1
  Li  Li16  1  0.06799394  0.44058877  0.03214602  1
  Li  Li17  1  0.91730539  0.01532941  0.04318117  1
  Li  Li18  1  0.62904181  0.39379661  0.10543693  1
  Li  Li19  1  0.30154914  0.91608396  0.10873848  1
  Li  Li20  1  0.23362740  0.56959667  0.03706551  1
  Li  Li21  1  0.73618142  0.06158854  0.05908923  1
  Li  Li22  1  0.91209633  0.47714066  0.07249672  1
  Li  Li23  1  0.05003722  0.97261862  0.08777532  1
  Li  Li24  1  0.00872344  0.71107420  0.11268805  1
  Li  Li25  1  0.75811419  0.85773820  0.18985199  1
  Li  Li26  1  0.16158120  0.36812918  0.18476607  1
  Li  Li27  1  0.37445332  0.83057872  0.13725788  1
  Li  Li28  1  0.88689389  0.19044214  0.12032617  1
  Li  Li29  1  0.65978070  0.66256944  0.05328555  1
  Li  Li30  1  0.32434564  0.16804392  0.15543423  1
  Li  Li31  1  0.50493228  0.30838671  0.16665089  1
  Li  Li32  1  0.59964446  0.06608541  0.13780553  1
  Li  Li33  1  0.32767184  0.56298082  0.14152877  1
  Li  Li34  1  0.73672094  0.45955802  0.14036155  1
  Li  Li35  1  0.20497237  0.96766519  0.17229190  1
  Li  Li36  1  0.79585959  0.12256887  0.16861663  1
  Li  Li37  1  0.13540725  0.61148375  0.13993491  1
  Li  Li38  1  0.36595772  0.99862183  0.19116629  1
  Li  Li39  1  0.56554782  0.62428253  0.17631966  1
  Li  Li40  1  0.61504608  0.49313234  0.21575367  1
  Li  Li41  1  0.41983510  0.09574458  0.19058912  1
  Li  Li42  1  0.39877284  0.24063799  0.23109156  1
  Li  Li43  1  0.55357553  0.81974325  0.23144992  1
  Li  Li44  1  0.56406116  0.73198629  0.23924456  1
  Li  Li45  1  0.32236175  0.33152567  0.22194151  1
  Li  Li46  1  0.22043890  0.76982401  0.32408647  1
  Li  Li47  1  0.81032723  0.22132142  0.27307982  1
  Li  Li48  1  0.66412646  0.91410576  0.28237395  1
  Li  Li49  1  0.13419772  0.35090813  0.31483256  1
  Li  Li50  1  0.37868939  0.77599440  0.24544424  1
  Li  Li51  1  0.56795628  0.27498275  0.27802290  1
  Li  Li52  1  0.52631644  0.01696219  0.24621375  1
  Li  Li53  1  0.30894284  0.16144283  0.28711358  1
  Li  Li54  1  0.64176004  0.66044577  0.28263378  1
  Li  Li55  1  0.90114948  0.14245050  0.28677118  1
  Li  Li56  1  0.48717282  0.54689398  0.20407660  1
  Li  Li57  1  0.12784455  0.97984971  0.29824887  1
  Li  Li58  1  0.79587315  0.46171995  0.26275400  1
  Li  Li59  1  0.09654408  0.67391068  0.22717639  1
  Li  Li60  1  0.87499847  0.30610307  0.35710993  1
  Li  Li61  1  0.84143671  0.86263197  0.30137441  1
  Li  Li62  1  0.25194470  0.78682020  0.45482527  1
  Li  Li63  1  0.69992284  0.26729965  0.35062085  1
  Li  Li64  1  0.26492280  0.41573151  0.28958185  1
  Li  Li65  1  0.58046545  0.96678000  0.37037685  1
  Li  Li66  1  0.82109858  0.26791011  0.47222224  1
  Li  Li67  1  0.03800875  0.92153958  0.35219086  1
  Li  Li68  1  0.94033546  0.85017062  0.40948808  1
  Li  Li69  1  0.69560200  0.33617706  0.45373946  1
  Li  Li70  1  0.75647045  0.57463464  0.47297983  1
  Li  Li71  1  0.04967401  0.12502115  0.40212855  1
  Li  Li72  1  0.06181748  0.02782776  0.42604151  1
  Li  Li73  1  0.88419615  0.63213013  0.39737270  1
  Li  Li74  1  0.62934336  0.02663686  0.45207948  1
  Li  Li75  1  0.33645903  0.51694710  0.44975606  1
  Li  Li76  1  0.23791504  0.15986469  0.41781978  1
  Li  Li77  1  0.70980463  0.66791592  0.40658255  1
  Li  Li78  1  0.90768682  0.08355344  0.40231055  1
  Li  Li79  1  0.01147419  0.59447115  0.34416567  1
  Li  Li80  1  0.87671960  0.39265116  0.36763660  1
  Li  Li81  1  0.84652062  0.47811975  0.37920879  1
  Li  Li82  1  0.14025758  0.95378684  0.44039070  1
  Li  Li83  1  0.40259054  0.48741949  0.28874320  1
  Li  Li84  1  0.54472072  0.66769046  0.48900706  1
  Li  Li85  1  0.84604811  0.19829629  0.54446573  1
  Li  Li86  1  0.11122798  0.68220830  0.56226104  1
  Li  Li87  1  0.02118874  0.63528596  0.48110699  1
  Li  Li88  1  0.88778042  0.79652362  0.49979710  1
  Li  Li89  1  0.98975061  0.33756038  0.44579796  1
  Li  Li90  1  0.78114520  0.41359411  0.46623610  1
  Li  Li91  1  0.23129093  0.88224295  0.42943887  1
  Li  Li92  1  0.65872187  0.74060594  0.50781071  1
  Li  Li93  1  0.33126897  0.23863615  0.50580168  1
  Li  Li94  1  0.11196903  0.84938570  0.54826183  1
  Li  Li95  1  0.96501886  0.28711481  0.55898708  1
  Li  Li96  1  0.82513820  0.35048552  0.54365997  1
  Li  Li97  1  0.03647446  0.75101960  0.57641144  1
  Li  Li98  1  0.25977404  0.58626440  0.48414837  1
  Li  Li99  1  0.95192665  0.03817902  0.54710748  1
  Li  Li100  1  0.90348013  0.11707202  0.54173844  1
  Li  Li101  1  0.04598066  0.53130846  0.54996030  1
  Li  Li102  1  0.38020490  0.19718887  0.62623858  1
  Li  Li103  1  0.64929140  0.63845498  0.60486584  1
  Li  Li104  1  0.70905268  0.98019675  0.53709990  1
  Li  Li105  1  0.22293688  0.48775968  0.56191214  1
  Li  Li106  1  0.11472802  0.07538698  0.55820094  1
  Li  Li107  1  0.90278019  0.57628144  0.58063694  1
  Li  Li108  1  0.93987575  0.83806645  0.61212534  1
  Li  Li109  1  0.18790857  0.69134200  0.68979889  1
  Li  Li110  1  0.79355626  0.18024025  0.67225551  1
  Li  Li111  1  0.57056622  0.72074705  0.63856755  1
  Li  Li112  1  0.06464972  0.35672987  0.61929649  1
  Li  Li113  1  0.28659551  0.88601450  0.55241230  1
  Li  Li114  1  0.65282450  0.39212592  0.60076143  1
  Li  Li115  1  0.46722013  0.25758511  0.71506114  1
  Li  Li116  1  0.35473344  0.48753048  0.64290805  1
  Li  Li117  1  0.60820048  0.98932599  0.64207308  1
  Li  Li118  1  0.26778565  0.11558961  0.61760283  1
  Li  Li119  1  0.74461620  0.58372220  0.66398915  1
  Li  Li120  1  0.15752622  0.42708014  0.66956195  1
  Li  Li121  1  0.80665568  0.94133227  0.64341940  1
  Li  Li122  1  0.58861613  0.54569586  0.69842087  1
  Li  Li123  1  0.38563092  0.92816329  0.67653832  1
  Li  Li124  1  0.30956764  0.04775558  0.70793017  1
  Li  Li125  1  0.54521568  0.44779672  0.69095718  1
  Li  Li126  1  0.56624292  0.32408638  0.73616223  1
  Li  Li127  1  0.39489862  0.72894289  0.73172467  1
  Li  Li128  1  0.38273840  0.81660020  0.74068880  1
  Li  Li129  1  0.63611949  0.21530430  0.72425718  1
  Li  Li130  1  0.72595997  0.77872066  0.82410584  1
  Li  Li131  1  0.14584660  0.32987879  0.77782054  1
  Li  Li132  1  0.28879730  0.63284471  0.78110459  1
  Li  Li133  1  0.81110976  0.19409619  0.80367541  1
  Li  Li134  1  0.56808895  0.77382384  0.74620149  1
  Li  Li135  1  0.31238887  0.27959076  0.79289532  1
  Li  Li136  1  0.42753712  0.53275292  0.75136962  1
  Li  Li137  1  0.64747894  0.39151056  0.77418009  1
  Li  Li138  1  0.30641546  0.88852925  0.78101962  1
  Li  Li139  1  0.05221235  0.40723150  0.78236484  1
  Li  Li140  1  0.46556703  0.00881357  0.71415001  1
  Li  Li141  1  0.81542930  0.57141378  0.79435578  1
  Li  Li142  1  0.15404023  0.08511218  0.72432775  1
  Li  Li143  1  0.85091482  0.87602695  0.72519623  1
  Li  Li144  1  0.15630106  0.25516638  0.85520698  1
  Li  Li145  1  0.10989438  0.68702555  0.80295019  1
  Li  Li146  1  0.69668758  0.76287091  0.95431712  1
  Li  Li147  1  0.29730295  0.27212285  0.94904783  1
  Li  Li148  1  0.68412857  0.13190639  0.78711339  1
  Li  Li149  1  0.36791606  0.58253535  0.87271525  1
  Li  Li150  1  0.11591669  0.28058951  0.97227427  1
  Li  Li151  1  0.90834457  0.62677964  0.85372253  1
  Li  Li152  1  0.00310392  0.69932597  0.90614509  1
  Li  Li153  1  0.22283357  0.18731835  0.91288389  1
  Li  Li154  1  0.10179954  0.00087286  0.96466873  1
  Li  Li155  1  0.90883271  0.42842706  0.90743393  1
  Li  Li156  1  0.89313290  0.52222846  0.92098718  1
  Li  Li157  1  0.05447356  0.91676722  0.90031899  1
  Li  Li158  1  0.31797995  0.52277932  0.95651959  1
  Li  Li159  1  0.63038069  0.02946835  0.94750315  1
  Li  Li160  1  0.71133579  0.38687334  0.91439326  1
  Li  Li161  1  0.23898459  0.88190149  0.90674207  1
  Li  Li162  1  0.05019832  0.46863701  0.89372600  1
  Li  Li163  1  0.92630878  0.94950282  0.83455401  1
  Li  Li164  1  0.06619892  0.16365060  0.87049544  1
  Li  Li165  1  0.10279752  0.08258034  0.86368399  1
  Li  Li166  1  0.80641368  0.59264430  0.94033082  1
  Li  Li167  1  0.55913330  0.07647620  0.85820835  1
  La  La168  1  0.71232552  0.17593736  0.99895482  1
  La  La169  1  0.22100508  0.66811259  0.00205113  1
  La  La170  1  0.46563479  0.99011173  0.04849515  1
  La  La171  1  0.49500965  0.49312900  0.05691413  1
  La  La172  1  0.86358885  0.35431930  0.05888791  1
  La  La173  1  0.08325164  0.86937518  0.05863901  1
  La  La174  1  0.60830298  0.85626621  0.05996018  1
  La  La175  1  0.35220567  0.36137480  0.05596423  1
  La  La176  1  0.46632426  0.23213906  0.06249632  1
  La  La177  1  0.49569473  0.73699712  0.06183303  1
  La  La178  1  0.22246483  0.06185457  0.09162580  1
  La  La179  1  0.72830096  0.56312974  0.10686919  1
  La  La180  1  0.22656392  0.46952664  0.14531724  1
  La  La181  1  0.72113495  0.97124352  0.15545291  1
  La  La182  1  0.98878984  0.28969563  0.21845097  1
  La  La183  1  0.97814427  0.79388808  0.22843951  1
  La  La184  1  0.34101682  0.66791373  0.19924510  1
  La  La185  1  0.59527395  0.16939275  0.21856880  1
  La  La186  1  0.09393565  0.16175788  0.19609352  1
  La  La187  1  0.86020972  0.66797627  0.23838401  1
  La  La188  1  0.98311904  0.54017013  0.20469450  1
  La  La189  1  0.96873160  0.04209821  0.21613921  1
  La  La190  1  0.70754656  0.36219208  0.26722996  1
  La  La191  1  0.20869483  0.86981785  0.26007216  1
  La  La192  1  0.74467225  0.76638446  0.35944023  1
  La  La193  1  0.22842561  0.26409341  0.34446108  1
  La  La194  1  0.47499453  0.59898058  0.34823463  1
  La  La195  1  0.46866929  0.09440157  0.35723443  1
  La  La196  1  0.83342628  0.96388414  0.37635014  1
  La  La197  1  0.08120466  0.46849102  0.36485766  1
  La  La198  1  0.60779880  0.46993208  0.38405656  1
  La  La199  1  0.34156536  0.96957813  0.36230508  1
  La  La200  1  0.44249544  0.84739474  0.37493849  1
  La  La201  1  0.45443512  0.34915823  0.36346789  1
  La  La202  1  0.22040772  0.66700910  0.38702456  1
  La  La203  1  0.72506885  0.15767411  0.40323026  1
  La  La204  1  0.24225543  0.37558846  0.50366434  1
  La  La205  1  0.72625576  0.88183612  0.50216753  1
  La  La206  1  0.49415175  0.55949469  0.55209530  1
  La  La207  1  0.44982847  0.05608208  0.55412638  1
  La  La208  1  0.08554999  0.19670295  0.55557745  1
  La  La209  1  0.86245920  0.68211008  0.56306291  1
  La  La210  1  0.34177371  0.69257296  0.56019588  1
  La  La211  1  0.59249533  0.18743219  0.56086368  1
  La  La212  1  0.48947997  0.31375228  0.56597774  1
  La  La213  1  0.45007330  0.81313895  0.56280203  1
  La  La214  1  0.73535482  0.48780879  0.59356442  1
  La  La215  1  0.22035729  0.98167560  0.60452929  1
  La  La216  1  0.72027484  0.07996971  0.63428300  1
  La  La217  1  0.23118132  0.57970354  0.65385410  1
  La  La218  1  0.97213648  0.26178352  0.72549084  1
  La  La219  1  0.96935602  0.75547710  0.73076292  1
  La  La220  1  0.60508738  0.88280418  0.69934791  1
  La  La221  1  0.35632354  0.38210694  0.71396815  1
  La  La222  1  0.85730450  0.38699148  0.70032237  1
  La  La223  1  0.08769871  0.88071237  0.73735386  1
  La  La224  1  0.98066306  0.00781144  0.70606908  1
  La  La225  1  0.98024813  0.50845812  0.71336400  1
  La  La226  1  0.22641136  0.18278996  0.74831428  1
  La  La227  1  0.73814155  0.67901721  0.76008286  1
  La  La228  1  0.20154726  0.78319744  0.86039050  1
  La  La229  1  0.72300903  0.28285145  0.84459881  1
  La  La230  1  0.46998932  0.95065386  0.84957291  1
  La  La231  1  0.48332788  0.45277228  0.85665932  1
  La  La232  1  0.11587787  0.58683740  0.87320132  1
  La  La233  1  0.86623873  0.07896264  0.86047766  1
  La  La234  1  0.32947924  0.08161138  0.87390868  1
  La  La235  1  0.60579206  0.57924254  0.86761990  1
  La  La236  1  0.50492641  0.70167143  0.87467844  1
  La  La237  1  0.47713073  0.20429058  0.85925756  1
  La  La238  1  0.72359244  0.88236080  0.88488766  1
  La  La239  1  0.22431224  0.39128068  0.90036075  1
  Zr  Zr240  1  0.47920920  0.11106315  0.03122171  1
  Zr  Zr241  1  0.95751262  0.62131905  0.04407683  1
  Zr  Zr242  1  0.97574703  0.11030661  0.03050223  1
  Zr  Zr243  1  0.46209299  0.61595821  0.02757527  1
  Zr  Zr244  1  0.71658183  0.26456267  0.13631883  1
  Zr  Zr245  1  0.22350857  0.26192649  0.13165499  1
  Zr  Zr246  1  0.72947165  0.75969868  0.15256891  1
  Zr  Zr247  1  0.19958946  0.76545681  0.12501305  1
  Zr  Zr248  1  0.97587753  0.41449365  0.20621012  1
  Zr  Zr249  1  0.46801016  0.90984900  0.20707909  1
  Zr  Zr250  1  0.47834028  0.41513924  0.20543839  1
  Zr  Zr251  1  0.95681490  0.91938650  0.20681301  1
  Zr  Zr252  1  0.23309117  0.55935765  0.28653862  1
  Zr  Zr253  1  0.72906166  0.56601710  0.30383559  1
  Zr  Zr254  1  0.21692781  0.06898260  0.29392134  1
  Zr  Zr255  1  0.71191177  0.06223088  0.28439464  1
  Zr  Zr256  1  0.46446827  0.72182538  0.37574593  1
  Zr  Zr257  1  0.97009506  0.21748999  0.38537233  1
  Zr  Zr258  1  0.99764718  0.72207999  0.39043290  1
  Zr  Zr259  1  0.47301457  0.21345870  0.38884411  1
  Zr  Zr260  1  0.47998178  0.43789806  0.54012046  1
  Zr  Zr261  1  0.98509214  0.93083283  0.54234267  1
  Zr  Zr262  1  0.98132215  0.43806146  0.53959108  1
  Zr  Zr263  1  0.48457174  0.93388426  0.52602048  1
  Zr  Zr264  1  0.23106455  0.28606888  0.63391404  1
  Zr  Zr265  1  0.72977178  0.28483733  0.63667380  1
  Zr  Zr266  1  0.21775607  0.78859377  0.65310858  1
  Zr  Zr267  1  0.74619578  0.78452404  0.62567737  1
  Zr  Zr268  1  0.97296662  0.13189191  0.70077331  1
  Zr  Zr269  1  0.48350781  0.63793725  0.70644461  1
  Zr  Zr270  1  0.46993367  0.12751773  0.70855267  1
  Zr  Zr271  1  0.99289826  0.63088276  0.70733940  1
  Zr  Zr272  1  0.71035792  0.99097822  0.78745490  1
  Zr  Zr273  1  0.21453001  0.98090411  0.80599279  1
  Zr  Zr274  1  0.73559596  0.48134482  0.79605724  1
  Zr  Zr275  1  0.24119090  0.48884751  0.78452572  1
  Zr  Zr276  1  0.48258471  0.82765663  0.87586237  1
  Zr  Zr277  1  0.98098373  0.33523147  0.88776410  1
  Zr  Zr278  1  0.94674272  0.82677907  0.89088314  1
  Zr  Zr279  1  0.47534655  0.33439680  0.88196328  1
  O  O280  1  0.43137966  0.29361053  0.97277427  1
  O  O281  1  0.54562694  0.78998060  0.96414531  1
  O  O282  1  0.58822346  0.63806213  0.96351008  1
  O  O283  1  0.32346174  0.10967527  0.99915898  1
  O  O284  1  0.97092612  0.47771055  0.97579966  1
  O  O285  1  0.94437120  0.84072120  0.00048680  1
  O  O286  1  0.98021478  0.68918301  0.01448746  1
  O  O287  1  0.20954287  0.75535031  0.00445874  1
  O  O288  1  0.65278262  0.24857936  0.02990560  1
  O  O289  1  0.10303911  0.59662883  0.03824479  1
  O  O290  1  0.91033172  0.18050667  0.01752246  1
  O  O291  1  0.85108338  0.06952664  0.99939628  1
  O  O292  1  0.75613577  0.81992404  0.09831094  1
  O  O293  1  0.21466136  0.30395069  0.04109220  1
  O  O294  1  0.29146783  0.20993805  0.07413286  1
  O  O295  1  0.69240179  0.72615856  0.05369332  1
  O  O296  1  0.64741537  0.00481256  0.04901821  1
  O  O297  1  0.31288044  0.51312899  0.06280517  1
  O  O298  1  0.19902253  0.40701057  0.03929089  1
  O  O299  1  0.74133957  0.90638435  0.02264056  1
  O  O300  1  0.79469321  0.63114946  0.03580944  1
  O  O301  1  0.90643988  0.54881825  0.09006214  1
  O  O302  1  0.11784442  0.13653703  0.06965058  1
  O  O303  1  0.66551746  0.49257231  0.07010651  1
  O  O304  1  0.29332238  0.98493581  0.08757642  1
  O  O305  1  0.05023979  0.04227950  0.05595424  1
  O  O306  1  0.04939028  0.77840106  0.10200097  1
  O  O307  1  0.86789093  0.27777670  0.11701217  1
  O  O308  1  0.32490461  0.61851890  0.08761847  1
  O  O309  1  0.63466288  0.10920988  0.05323219  1
  O  O310  1  0.43829393  0.89150046  0.09184967  1
  O  O311  1  0.49210404  0.40608221  0.09224033  1
  O  O312  1  0.24546683  0.83838136  0.09599436  1
  O  O313  1  0.69107409  0.33457347  0.10107174  1
  O  O314  1  0.44202248  0.05917310  0.10678061  1
  O  O315  1  0.53113173  0.57054359  0.10721638  1
  O  O316  1  0.46166887  0.15555069  0.12647414  1
  O  O317  1  0.87162229  0.73127500  0.14306698  1
  O  O318  1  0.57448591  0.77916127  0.15512818  1
  O  O319  1  0.02400251  0.35986231  0.13852715  1
  O  O320  1  0.51763903  0.66413073  0.10723240  1
  O  O321  1  0.07460272  0.23636532  0.12421386  1
  O  O322  1  0.37115073  0.29224320  0.14464490  1
  O  O323  1  0.93895103  0.86083415  0.14282821  1
  O  O324  1  0.04509894  0.46755899  0.13729578  1
  O  O325  1  0.90950751  0.97585523  0.13510204  1
  O  O326  1  0.17692866  0.69444486  0.13816364  1
  O  O327  1  0.74430169  0.19194793  0.13814671  1
  O  O328  1  0.98832599  0.63147589  0.16068004  1
  O  O329  1  0.93969631  0.12192689  0.15265092  1
  O  O330  1  0.10579905  0.92157405  0.16033695  1
  O  O331  1  0.85270392  0.42305680  0.13512229  1
  O  O332  1  0.35763944  0.75235535  0.14533732  1
  O  O333  1  0.56055594  0.24860441  0.17522996  1
  O  O334  1  0.51077805  0.97512637  0.16934985  1
  O  O335  1  0.75436598  0.05379157  0.17210685  1
  O  O336  1  0.17598880  0.54948663  0.18036012  1
  O  O337  1  0.61488393  0.88342448  0.18964149  1
  O  O338  1  0.45176715  0.48530862  0.18521816  1
  O  O339  1  0.31899035  0.39523013  0.19019848  1
  O  O340  1  0.26082441  0.11292872  0.19904354  1
  O  O341  1  0.69881021  0.61423425  0.21443941  1
  O  O342  1  0.75689686  0.51760763  0.21723559  1
  O  O343  1  0.15519958  0.02429661  0.20965275  1
  O  O344  1  0.17824198  0.30701848  0.22420328  1
  O  O345  1  0.79095328  0.80573307  0.25095067  1
  O  O346  1  0.70431350  0.71698243  0.24700433  1
  O  O347  1  0.25315596  0.21469204  0.23097053  1
  O  O348  1  0.31949503  0.93567156  0.22262895  1
  O  O349  1  0.40725118  0.84412132  0.23707301  1
  O  O350  1  0.63698953  0.42789881  0.20268046  1
  O  O351  1  0.16725624  0.79125350  0.22948178  1
  O  O352  1  0.74354317  0.27993806  0.24527026  1
  O  O353  1  0.52068359  0.34871805  0.23913579  1
  O  O354  1  0.56268349  0.08399775  0.24135161  1
  O  O355  1  0.37840675  0.58137137  0.24098853  1
  O  O356  1  0.80511851  0.91625182  0.24189787  1
  O  O357  1  0.11385664  0.40883657  0.26794709  1
  O  O358  1  0.96203486  0.20758044  0.26467894  1
  O  O359  1  0.99874317  0.71671882  0.27302569  1
  O  O360  1  0.75251985  0.13600655  0.27409203  1
  O  O361  1  0.20514208  0.63404727  0.26946223  1
  O  O362  1  0.90263258  0.36085467  0.27141153  1
  O  O363  1  0.00064989  0.86962429  0.29058430  1
  O  O364  1  0.93986525  0.47006256  0.27940012  1
  O  O365  1  0.37470350  0.03544366  0.28226330  1
  O  O366  1  0.07390597  0.10121249  0.29165836  1
  O  O367  1  0.49989650  0.67089745  0.28241056  1
  O  O368  1  0.98872850  0.97064843  0.28362952  1
  O  O369  1  0.57184879  0.53487620  0.29554108  1
  O  O370  1  0.87710567  0.59266526  0.30321290  1
  O  O371  1  0.44807150  0.16639654  0.29696028  1
  O  O372  1  0.52881266  0.77843607  0.31938806  1
  O  O373  1  0.41805143  0.27133155  0.32085447  1
  O  O374  1  0.66455679  0.99262563  0.28156666  1
  O  O375  1  0.25854664  0.48720226  0.29473735  1
  O  O376  1  0.49987624  0.92041847  0.31830539  1
  O  O377  1  0.46351971  0.42930745  0.31874777  1
  O  O378  1  0.61385698  0.21659275  0.33482592  1
  O  O379  1  0.33142634  0.72292606  0.31213511  1
  O  O380  1  0.85587624  0.04741992  0.32320936  1
  O  O381  1  0.08701269  0.54407471  0.32401632  1
  O  O382  1  0.03460532  0.28602340  0.35364439  1
  O  O383  1  0.25968747  0.35012809  0.36910249  1
  O  O384  1  0.68266347  0.96236740  0.43782661  1
  O  O385  1  0.10684602  0.18736693  0.42232806  1
  O  O386  1  0.91912493  0.78436067  0.39135209  1
  O  O387  1  0.83536439  0.69394444  0.37736963  1
  O  O388  1  0.74952035  0.42498686  0.34963330  1
  O  O389  1  0.18400994  0.92349870  0.35368598  1
  O  O390  1  0.27356856  0.83063614  0.36929976  1
  O  O391  1  0.62438147  0.32445494  0.36778376  1
  O  O392  1  0.65491902  0.61452395  0.37110149  1
  O  O393  1  0.29059689  0.11318892  0.36181943  1
  O  O394  1  0.18909370  0.01857545  0.37296821  1
  O  O395  1  0.74669991  0.52413223  0.39563292  1
  O  O396  1  0.82067752  0.23959920  0.37700909  1
  O  O397  1  0.90642866  0.14999904  0.39153789  1
  O  O398  1  0.14751749  0.74024654  0.39936015  1
  O  O399  1  0.64882817  0.07852440  0.38426705  1
  O  O400  1  0.30356799  0.57377107  0.38850202  1
  O  O401  1  0.04419721  0.64958361  0.38477419  1
  O  O402  1  0.93412016  0.44007941  0.43220336  1
  O  O403  1  0.80942274  0.88217524  0.39261866  1
  O  O404  1  0.31871333  0.21112445  0.41275088  1
  O  O405  1  0.61003875  0.71195551  0.42593610  1
  O  O406  1  0.47194156  0.49724052  0.46336646  1
  O  O407  1  0.47197710  0.99854920  0.44818952  1
  O  O408  1  0.99390425  0.31229031  0.99638730  1
  O  O409  1  0.04357661  0.94148023  0.99653102  1
  O  O410  1  0.51330654  0.17363931  0.97663643  1
  O  O411  1  0.40154362  0.68022761  0.97913710  1
  O  O412  1  0.41927800  0.66119358  0.43650840  1
  O  O413  1  0.53617166  0.15536644  0.44196689  1
  O  O414  1  0.84325392  0.33856381  0.44304431  1
  O  O415  1  0.99919425  0.96085126  0.43800821  1
  O  O416  1  0.48706731  0.24471014  0.49382051  1
  O  O417  1  0.40387229  0.75992364  0.46372982  1
  O  O418  1  0.35897234  0.91194711  0.46138416  1
  O  O419  1  0.63789099  0.43588436  0.50516083  1
  O  O420  1  0.00682029  0.07998745  0.47886742  1
  O  O421  1  0.00310073  0.70615175  0.50004544  1
  O  O422  1  0.96388120  0.86115376  0.51542986  1
  O  O423  1  0.73649411  0.79403155  0.50546007  1
  O  O424  1  0.29334038  0.30096486  0.52889330  1
  O  O425  1  0.83772854  0.94986146  0.53962950  1
  O  O426  1  0.05927726  0.37412613  0.51655372  1
  O  O427  1  0.10743947  0.47757747  0.50051682  1
  O  O428  1  0.19267930  0.72853984  0.59754584  1
  O  O429  1  0.73926440  0.23842674  0.55304691  1
  O  O430  1  0.67350076  0.33286082  0.56224509  1
  O  O431  1  0.25623189  0.82238975  0.55428021  1
  O  O432  1  0.30920465  0.54406094  0.54998607  1
  O  O433  1  0.63101035  0.03736940  0.55366255  1
  O  O434  1  0.75166452  0.13959858  0.53521403  1
  O  O435  1  0.21299268  0.64167321  0.52204270  1
  O  O436  1  0.15233281  0.91622437  0.53272229  1
  O  O437  1  0.04667184  0.99762263  0.58562812  1
  O  O438  1  0.83406217  0.41394652  0.57152389  1
  O  O439  1  0.26969398  0.05720057  0.57121375  1
  O  O440  1  0.67595156  0.56897367  0.56728252  1
  O  O441  1  0.92023494  0.50428431  0.57932016  1
  O  O442  1  0.89678119  0.77078807  0.60217745  1
  O  O443  1  0.07823433  0.27311972  0.61186004  1
  O  O444  1  0.61920399  0.93181037  0.58776046  1
  O  O445  1  0.32717408  0.44005586  0.56789171  1
  O  O446  1  0.50929255  0.65603649  0.59050537  1
  O  O447  1  0.44170848  0.14153254  0.59648650  1
  O  O448  1  0.69823018  0.71068812  0.59626808  1
  O  O449  1  0.25254478  0.21509283  0.60294856  1
  O  O450  1  0.53354709  0.49131276  0.61346421  1
  O  O451  1  0.41643431  0.98085231  0.60571032  1
  O  O452  1  0.50691135  0.39197763  0.62795670  1
  O  O453  1  0.07581581  0.81704341  0.64285223  1
  O  O454  1  0.37317778  0.76951803  0.65581809  1
  O  O455  1  0.92931611  0.18013041  0.62220954  1
  O  O456  1  0.42711979  0.88692717  0.60593610  1
  O  O457  1  0.87628772  0.31383839  0.62865755  1
  O  O458  1  0.58108933  0.25983808  0.65221434  1
  O  O459  1  0.01208592  0.68993730  0.64467480  1
  O  O460  1  0.90815429  0.07685396  0.63130366  1
  O  O461  1  0.04436899  0.57816267  0.63143421  1
  O  O462  1  0.76785810  0.85477346  0.63921290  1
  O  O463  1  0.20600873  0.35835724  0.63846834  1
  O  O464  1  0.95958221  0.91982391  0.66274418  1
  O  O465  1  0.01478493  0.42418647  0.65664783  1
  O  O466  1  0.84412724  0.62977939  0.66308175  1
  O  O467  1  0.11758502  0.12926610  0.64397835  1
  O  O468  1  0.58796260  0.79640507  0.64555885  1
  O  O469  1  0.37957874  0.30157634  0.67425269  1
  O  O470  1  0.44226159  0.57191734  0.67148503  1
  O  O471  1  0.19704179  0.49771333  0.67159979  1
  O  O472  1  0.74997196  0.00309731  0.67978065  1
  O  O473  1  0.33442602  0.66355965  0.68857431  1
  O  O474  1  0.51451280  0.06298925  0.67586453  1
  O  O475  1  0.62609132  0.15269044  0.68861632  1
  O  O476  1  0.69780377  0.43650352  0.69895715  1
  O  O477  1  0.24670602  0.93236675  0.71297981  1
  O  O478  1  0.17222526  0.02203457  0.71441774  1
  O  O479  1  0.78163814  0.52767479  0.70989638  1
  O  O480  1  0.77967356  0.23807330  0.72363430  1
  O  O481  1  0.15793698  0.74320718  0.75088837  1
  O  O482  1  0.24221988  0.83128789  0.74850754  1
  O  O483  1  0.71200881  0.33310738  0.73659340  1
  O  O484  1  0.63168521  0.61312403  0.71572581  1
  O  O485  1  0.54054789  0.70438962  0.73713041  1
  O  O486  1  0.31386383  0.11038887  0.72009415  1
  O  O487  1  0.77975114  0.75735686  0.72950260  1
  O  O488  1  0.18456895  0.26825481  0.74322195  1
  O  O489  1  0.41654609  0.19762270  0.72830395  1
  O  O490  1  0.39059282  0.46604503  0.74217593  1
  O  O491  1  0.56338961  0.96581140  0.74364578  1
  O  O492  1  0.14424473  0.63283319  0.74526109  1
  O  O493  1  0.83170639  0.13579915  0.75733539  1
  O  O494  1  0.99322431  0.34233625  0.76750336  1
  O  O495  1  0.94881979  0.83303298  0.77297912  1
  O  O496  1  0.19957816  0.41573686  0.77289671  1
  O  O497  1  0.74396578  0.91688759  0.76747848  1
  O  O498  1  0.03457488  0.18705908  0.76482413  1
  O  O499  1  0.94870400  0.67953024  0.79315157  1
  O  O500  1  0.01425528  0.07862326  0.77309307  1
  O  O501  1  0.57456987  0.51429524  0.78970095  1
  O  O502  1  0.88016718  0.45222678  0.79234151  1
  O  O503  1  0.44782162  0.87746031  0.78357300  1
  O  O504  1  0.95689447  0.57873983  0.78228425  1
  O  O505  1  0.36444679  0.01328039  0.79131402  1
  O  O506  1  0.06745365  0.95313560  0.80709375  1
  O  O507  1  0.50866991  0.38105200  0.79112634  1
  O  O508  1  0.41980451  0.77043319  0.81971104  1
  O  O509  1  0.53052336  0.27756760  0.81065824  1
  O  O510  1  0.28844047  0.55846481  0.78183941  1
  O  O511  1  0.68846445  0.06138145  0.82447903  1
  O  O512  1  0.45344938  0.62746101  0.81860586  1
  O  O513  1  0.48435428  0.12461387  0.82254022  1
  O  O514  1  0.33127242  0.33899193  0.82904790  1
  O  O515  1  0.61625375  0.82640827  0.81172679  1
  O  O516  1  0.09806154  0.50576901  0.81913566  1
  O  O517  1  0.86160450  0.00376743  0.81561956  1
  O  O518  1  0.90452794  0.27056383  0.85497859  1
  O  O519  1  0.69378916  0.19825840  0.86612835  1
  O  O520  1  0.26315911  0.58680446  0.93861437  1
  O  O521  1  0.84732656  0.36791497  0.92871555  1
  O  O522  1  0.02646387  0.76449587  0.88791885  1
  O  O523  1  0.11110410  0.85530104  0.88484804  1
  O  O524  1  0.20067286  0.13531058  0.84962263  1
  O  O525  1  0.76213781  0.62581625  0.85496749  1
  O  O526  1  0.67299090  0.71857418  0.86924690  1
  O  O527  1  0.30716242  0.22856312  0.86465360  1
  O  O528  1  0.29514728  0.93335965  0.86782402  1
  O  O529  1  0.66139317  0.43437533  0.85829740  1
  O  O530  1  0.76179262  0.53140180  0.87539724  1
  O  O531  1  0.18848293  0.02939777  0.88858038  1
  O  O532  1  0.13332710  0.31684754  0.88335798  1
  O  O533  1  0.04437382  0.40268909  0.88903845  1
  O  O534  1  0.79813578  0.80799448  0.89995169  1
  O  O535  1  0.30384844  0.47246701  0.88515344  1
  O  O536  1  0.64839524  0.96961186  0.88994870  1
  O  O537  1  0.89837148  0.89810155  0.88563904  1
  O  O538  1  0.00442898  0.11255249  0.92212606  1
  O  O539  1  0.13680694  0.66816020  0.89465635  1
  O  O540  1  0.62635792  0.33505588  0.91582924  1
  O  O541  1  0.33791849  0.83701189  0.92661652  1
  O  O542  1  0.49128973  0.05331599  0.94897835  1
  O  O543  1  0.47325651  0.55268072  0.95298674  1
  O  O544  1  0.95116685  0.23767787  0.49355390  1
  O  O545  1  0.88292010  0.61278615  0.49533910  1
  O  O546  1  0.44029252  0.37727750  0.48319731  1
  O  O547  1  0.54465496  0.86932561  0.47961339  1
  O  O548  1  0.52737169  0.88789976  0.93785712  1
  O  O549  1  0.41926298  0.39189469  0.93937548  1
  O  O550  1  0.10203948  0.21806593  0.93486923  1
  O  O551  1  0.94803076  0.58682297  0.94095994  1
