# generated using pymatgen
data_Li39La17Zr10O65
_symmetry_space_group_name_H-M   'P 1'
_cell_length_a   11.27162600
_cell_length_b   12.64834664
_cell_length_c   53.82712248
_cell_angle_alpha   90.00000000
_cell_angle_beta   90.00000000
_cell_angle_gamma   124.12984495
_symmetry_Int_Tables_number   1
_chemical_formula_structural   Li39La17Zr10O65
_chemical_formula_sum   'Li156 La68 Zr40 O260'
_cell_volume   6352.28867478
_cell_formula_units_Z   4
loop_
 _symmetry_equiv_pos_site_id
 _symmetry_equiv_pos_as_xyz
  1  'x, y, z'
loop_
 _atom_site_type_symbol
 _atom_site_label
 _atom_site_symmetry_multiplicity
 _atom_site_fract_x
 _atom_site_fract_y
 _atom_site_fract_z
 _atom_site_occupancy
  Li  Li0  1  0.79021331  0.41933049  0.07744276  1
  Li  Li1  1  0.16056778  0.97712482  0.07048669  1
  Li  Li2  1  0.10103058  0.54715774  0.03907254  1
  Li  Li3  1  0.95067340  0.00379430  0.10565420  1
  Li  Li4  1  0.63657492  0.34137961  0.16292861  1
  Li  Li5  1  0.30171473  0.55728315  0.16561045  1
  Li  Li6  1  0.52598210  0.71594760  0.01618261  1
  Li  Li7  1  0.47529090  0.76066425  0.13447576  1
  Li  Li8  1  0.22232542  0.68435431  0.14584516  1
  Li  Li9  1  0.83858281  0.64045409  0.00840507  1
  Li  Li10  1  0.35850837  0.54124023  0.12022827  1
  Li  Li11  1  0.56784784  0.98603506  0.04450757  1
  Li  Li12  1  0.20432252  0.16873137  0.09741453  1
  Li  Li13  1  0.71053737  0.20187833  0.06423224  1
  Li  Li14  1  0.07291675  0.88406536  0.11648192  1
  Li  Li15  1  0.84116069  0.46467320  0.03261331  1
  Li  Li16  1  0.97596944  0.65246093  0.13330647  1
  Li  Li17  1  0.02847050  0.84156128  0.02609510  1
  Li  Li18  1  0.30363223  0.41126053  0.08080058  1
  Li  Li19  1  0.64718255  0.97884080  0.08253294  1
  Li  Li20  1  0.47354204  0.39709006  0.10603522  1
  Li  Li21  1  0.31792664  0.93984539  0.03978612  1
  Li  Li22  1  0.13548286  0.83857367  0.16289885  1
  Li  Li23  1  0.80243387  0.05916595  0.16195369  1
  Li  Li24  1  0.71852104  0.45315388  0.11923248  1
  Li  Li25  1  0.26338616  0.44864801  0.03440907  1
  Li  Li26  1  0.71320934  0.94378477  0.12082354  1
  Li  Li27  1  0.80113022  0.92070673  0.24981737  1
  Li  Li28  1  0.13397984  0.47561655  0.24854136  1
  Li  Li29  1  0.96862223  0.89585722  0.22065071  1
  Li  Li30  1  0.95914336  0.50546667  0.27924532  1
  Li  Li31  1  0.63630079  0.84048299  0.33646508  1
  Li  Li32  1  0.30285074  0.05991243  0.33822005  1
  Li  Li33  1  0.47285135  0.15101096  0.19255442  1
  Li  Li34  1  0.47646818  0.26302364  0.30731041  1
  Li  Li35  1  0.21845760  0.18708246  0.31753545  1
  Li  Li36  1  0.72050665  0.18857451  0.18242493  1
  Li  Li37  1  0.36253157  0.03120194  0.29368193  1
  Li  Li38  1  0.57672738  0.39550117  0.20693065  1
  Li  Li39  1  0.21591599  0.68821135  0.26867061  1
  Li  Li40  1  0.71624653  0.68537807  0.23141435  1
  Li  Li41  1  0.07699206  0.39450882  0.29332204  1
  Li  Li42  1  0.86238670  0.03386309  0.20604411  1
  Li  Li43  1  0.96844605  0.14635571  0.30753158  1
  Li  Li44  1  0.97815518  0.26474775  0.19237170  1
  Li  Li45  1  0.30095731  0.92077089  0.24995453  1
  Li  Li46  1  0.63515339  0.47524161  0.25187017  1
  Li  Li47  1  0.46874491  0.89581796  0.27927287  1
  Li  Li48  1  0.45935924  0.50557664  0.22079802  1
  Li  Li49  1  0.13541994  0.34005916  0.33662666  1
  Li  Li50  1  0.80392847  0.56189122  0.33570097  1
  Li  Li51  1  0.71858284  0.95081442  0.29336404  1
  Li  Li52  1  0.21783508  0.45051666  0.20678639  1
  Li  Li53  1  0.21877299  0.95097303  0.20661560  1
  Li  Li54  1  0.71865072  0.45126611  0.29360309  1
  Li  Li55  1  0.80467101  0.43021218  0.42339115  1
  Li  Li56  1  0.13851665  0.97512387  0.41861358  1
  Li  Li57  1  0.97334574  0.40093751  0.39444952  1
  Li  Li58  1  0.92581727  0.97485589  0.45327655  1
  Li  Li59  1  0.46283408  0.64027357  0.36586017  1
  Li  Li60  1  0.39436849  0.70775051  0.49269747  1
  Li  Li61  1  0.12930190  0.74064575  0.49004779  1
  Li  Li62  1  0.71775929  0.69409159  0.35400771  1
  Li  Li63  1  0.34541220  0.43076073  0.46098238  1
  Li  Li64  1  0.56831962  0.86042771  0.38173830  1
  Li  Li65  1  0.21082432  0.19413950  0.43677950  1
  Li  Li66  1  0.72001576  0.19741115  0.40288108  1
  Li  Li67  1  0.11406027  0.94210189  0.46179338  1
  Li  Li68  1  0.86311611  0.53507840  0.38121833  1
  Li  Li69  1  0.89625393  0.61944431  0.47595845  1
  Li  Li70  1  0.97319573  0.75861816  0.36642063  1
  Li  Li71  1  0.29108531  0.42233051  0.41946889  1
  Li  Li72  1  0.63417827  0.97745809  0.42213348  1
  Li  Li73  1  0.61240600  0.46048781  0.45484523  1
  Li  Li74  1  0.46267208  0.00477272  0.39403852  1
  Li  Li75  1  0.22128561  0.94819161  0.37986823  1
  Li  Li76  1  0.21820442  0.45334705  0.37996843  1
  Li  Li77  1  0.67880449  0.94928437  0.46569533  1
  Li  Li78  1  0.13329599  0.72967979  0.57727847  1
  Li  Li79  1  0.76177785  0.17403075  0.57037954  1
  Li  Li80  1  0.82100881  0.60394747  0.53911042  1
  Li  Li81  1  0.97653532  0.14677212  0.60580691  1
  Li  Li82  1  0.28975456  0.81082642  0.66325556  1
  Li  Li83  1  0.62462125  0.59205165  0.66536805  1
  Li  Li84  1  0.39751359  0.43602410  0.51616318  1
  Li  Li85  1  0.45275406  0.39114157  0.63449608  1
  Li  Li86  1  0.70611987  0.46292539  0.64622588  1
  Li  Li87  1  0.08689159  0.50935805  0.50834502  1
  Li  Li88  1  0.56599298  0.60864651  0.61972962  1
  Li  Li89  1  0.35314454  0.16222491  0.54404350  1
  Li  Li90  1  0.72292399  0.98461455  0.59757959  1
  Li  Li91  1  0.21378220  0.94633098  0.56444519  1
  Li  Li92  1  0.85147080  0.27025447  0.61620577  1
  Li  Li93  1  0.07937307  0.68258008  0.53233314  1
  Li  Li94  1  0.95404542  0.50082539  0.63319962  1
  Li  Li95  1  0.89345810  0.30884572  0.52606394  1
  Li  Li96  1  0.62045216  0.73759030  0.58080353  1
  Li  Li97  1  0.27606744  0.17020638  0.58222046  1
  Li  Li98  1  0.45319812  0.75425150  0.60592113  1
  Li  Li99  1  0.60315441  0.20941395  0.53995316  1
  Li  Li100  1  0.79040262  0.31183538  0.66287954  1
  Li  Li101  1  0.12290858  0.09192416  0.66205160  1
  Li  Li102  1  0.20838060  0.69816456  0.61947171  1
  Li  Li103  1  0.66147079  0.70268529  0.53401786  1
  Li  Li104  1  0.21214623  0.20635459  0.62073618  1
  Li  Li105  1  0.12567206  0.22944064  0.74958520  1
  Li  Li106  1  0.79173795  0.67504588  0.74821748  1
  Li  Li107  1  0.95745659  0.25460687  0.72048780  1
  Li  Li108  1  0.96789918  0.64531747  0.77917841  1
  Li  Li109  1  0.28799676  0.30969551  0.83642510  1
  Li  Li110  1  0.62213040  0.09123602  0.83854353  1
  Li  Li111  1  0.45642383  0.00325632  0.69299413  1
  Li  Li112  1  0.44754407  0.88543103  0.80712874  1
  Li  Li113  1  0.70647181  0.96493523  0.81749787  1
  Li  Li114  1  0.20434583  0.96407256  0.68254374  1
  Li  Li115  1  0.56514727  0.11759308  0.79381234  1
  Li  Li116  1  0.34973637  0.75704634  0.70674999  1
  Li  Li117  1  0.71064253  0.46482032  0.76886585  1
  Li  Li118  1  0.20978599  0.46380338  0.73143998  1
  Li  Li119  1  0.84948231  0.75643358  0.79312859  1
  Li  Li120  1  0.06368045  0.11693793  0.70589117  1
  Li  Li121  1  0.95946245  0.00578889  0.80722890  1
  Li  Li122  1  0.94637984  0.88400001  0.69266896  1
  Li  Li123  1  0.62582966  0.22999308  0.74999168  1
  Li  Li124  1  0.29173988  0.67507733  0.75178767  1
  Li  Li125  1  0.45825026  0.25425036  0.77935882  1
  Li  Li126  1  0.46724461  0.64507443  0.72087579  1
  Li  Li127  1  0.79068719  0.81274723  0.83618402  1
  Li  Li128  1  0.12219714  0.58898258  0.83559733  1
  Li  Li129  1  0.20789984  0.19945602  0.79333414  1
  Li  Li130  1  0.70827816  0.69920695  0.70669267  1
  Li  Li131  1  0.70760294  0.19932208  0.70654039  1
  Li  Li132  1  0.20776870  0.69872632  0.79350768  1
  Li  Li133  1  0.11892479  0.71888896  0.92349287  1
  Li  Li134  1  0.78637425  0.17289021  0.91913652  1
  Li  Li135  1  0.95111716  0.74926887  0.89441571  1
  Li  Li136  1  0.99574367  0.17430555  0.95332692  1
  Li  Li137  1  0.46126399  0.50773554  0.86608048  1
  Li  Li138  1  0.53079303  0.44383270  0.99278900  1
  Li  Li139  1  0.79589593  0.40916772  0.99011868  1
  Li  Li140  1  0.20839743  0.45706130  0.85419268  1
  Li  Li141  1  0.57807202  0.71746164  0.96077285  1
  Li  Li142  1  0.35480851  0.28737613  0.88164334  1
  Li  Li143  1  0.71264884  0.95371088  0.93698457  1
  Li  Li144  1  0.20497584  0.95142942  0.90302084  1
  Li  Li145  1  0.80968768  0.20811872  0.96208695  1
  Li  Li146  1  0.06028690  0.61387739  0.88122430  1
  Li  Li147  1  0.02745647  0.52933448  0.97574590  1
  Li  Li148  1  0.95357961  0.39042494  0.86635945  1
  Li  Li149  1  0.63274288  0.72809371  0.91915793  1
  Li  Li150  1  0.29070839  0.17200354  0.92211839  1
  Li  Li151  1  0.30995321  0.69183318  0.95493375  1
  Li  Li152  1  0.46209035  0.14596830  0.89400241  1
  Li  Li153  1  0.70521321  0.20203115  0.88002118  1
  Li  Li154  1  0.70670390  0.69674399  0.87981349  1
  Li  Li155  1  0.24543762  0.20144364  0.96555063  1
  La  La156  1  0.08542311  0.51460061  0.09757060  1
  La  La157  1  0.82533527  0.87671012  0.05677976  1
  La  La158  1  0.33820749  0.13312552  0.14242644  1
  La  La159  1  0.51717281  0.21178263  0.01421729  1
  La  La160  1  0.20084014  0.18758223  0.03799056  1
  La  La161  1  0.71584134  0.20073318  0.12159182  1
  La  La162  1  0.71189891  0.69474848  0.11772396  1
  La  La163  1  0.59610182  0.50783216  0.05032471  1
  La  La164  1  0.34689065  0.88318803  0.09995915  1
  La  La165  1  0.89511253  0.24346717  0.01498892  1
  La  La166  1  0.10176456  0.26971414  0.14150142  1
  La  La167  1  0.09492957  0.01309370  0.27182102  1
  La  La168  1  0.83870907  0.38649786  0.22744263  1
  La  La169  1  0.34248139  0.63927554  0.31473454  1
  La  La170  1  0.59979420  0.76542262  0.18565946  1
  La  La171  1  0.21849353  0.70090133  0.20696510  1
  La  La172  1  0.71814366  0.70126332  0.29290447  1
  La  La173  1  0.71895916  0.20112022  0.29319740  1
  La  La174  1  0.21776607  0.19987797  0.20651906  1
  La  La175  1  0.59495697  0.01323815  0.22828953  1
  La  La176  1  0.33691332  0.38530332  0.27212571  1
  La  La177  1  0.84295102  0.63880718  0.18467991  1
  La  La178  1  0.09858917  0.76545158  0.31458136  1
  La  La179  1  0.10629215  0.51846514  0.44569706  1
  La  La180  1  0.83672174  0.88015186  0.40187270  1
  La  La181  1  0.35546322  0.17287660  0.48378394  1
  La  La182  1  0.60051936  0.26885042  0.35815979  1
  La  La183  1  0.21603595  0.19926523  0.37842861  1
  La  La184  1  0.72402250  0.21271217  0.46333673  1
  La  La185  1  0.22159778  0.70079212  0.38181895  1
  La  La186  1  0.58310548  0.51278928  0.39987305  1
  La  La187  1  0.34068017  0.88596886  0.44555901  1
  La  La188  1  0.83630810  0.13319521  0.35794077  1
  La  La189  1  0.05036671  0.22996011  0.48596561  1
  La  La190  1  0.83966942  0.63512876  0.59792583  1
  La  La191  1  0.09735021  0.27323007  0.55672331  1
  La  La192  1  0.58735246  0.01722772  0.64243386  1
  La  La193  1  0.40665794  0.93808626  0.51423952  1
  La  La194  1  0.72315608  0.96243938  0.53821556  1
  La  La195  1  0.20906200  0.94920294  0.62168666  1
  La  La196  1  0.21276150  0.45510434  0.61763010  1
  La  La197  1  0.32764708  0.64252880  0.55037816  1
  La  La198  1  0.57669862  0.26688181  0.59981772  1
  La  La199  1  0.02881546  0.90612599  0.51484421  1
  La  La200  1  0.82348496  0.88002517  0.64153433  1
  La  La201  1  0.83189939  0.13705815  0.77172959  1
  La  La202  1  0.08788311  0.76354776  0.72749031  1
  La  La203  1  0.58304874  0.51086641  0.81484297  1
  La  La204  1  0.32637759  0.38502731  0.68559026  1
  La  La205  1  0.70763800  0.44913842  0.70710677  1
  La  La206  1  0.20764321  0.44875144  0.79294686  1
  La  La207  1  0.20721486  0.94900557  0.79323206  1
  La  La208  1  0.70821716  0.95009836  0.70643230  1
  La  La209  1  0.33136558  0.13703247  0.72837437  1
  La  La210  1  0.58920047  0.76472640  0.77218215  1
  La  La211  1  0.08345821  0.51132008  0.68475364  1
  La  La212  1  0.82684504  0.38435370  0.81460131  1
  La  La213  1  0.81756232  0.63123862  0.94562678  1
  La  La214  1  0.08798256  0.26935927  0.90194050  1
  La  La215  1  0.56818272  0.97704888  0.98391699  1
  La  La216  1  0.32420590  0.88087126  0.85814856  1
  La  La217  1  0.70829408  0.95041905  0.87843428  1
  La  La218  1  0.19977165  0.93744076  0.96339814  1
  La  La219  1  0.70310252  0.44870245  0.88175110  1
  La  La220  1  0.34070903  0.63699734  0.89998678  1
  La  La221  1  0.58343165  0.26394811  0.94558799  1
  La  La222  1  0.08820904  0.01613139  0.85795639  1
  La  La223  1  0.87272983  0.91938047  0.98592660  1
  Zr  Zr224  1  0.96858928  0.45289764  0.16328108  1
  Zr  Zr225  1  0.45451198  0.69287209  0.07455908  1
  Zr  Zr226  1  0.46338071  0.19315062  0.07914390  1
  Zr  Zr227  1  0.96792027  0.94956528  0.16234611  1
  Zr  Zr228  1  0.96463372  0.69716145  0.07268157  1
  Zr  Zr229  1  0.96163178  0.20786576  0.07742348  1
  Zr  Zr230  1  0.46887234  0.45125496  0.16281785  1
  Zr  Zr231  1  0.46720017  0.94821794  0.16417925  1
  Zr  Zr232  1  0.96710837  0.94785336  0.33681523  1
  Zr  Zr233  1  0.46763682  0.20023916  0.24995718  1
  Zr  Zr234  1  0.46816981  0.70054238  0.25004491  1
  Zr  Zr235  1  0.96942011  0.45191529  0.33744420  1
  Zr  Zr236  1  0.96762473  0.20011855  0.25009128  1
  Zr  Zr237  1  0.96831426  0.70063332  0.24993097  1
  Zr  Zr238  1  0.46884805  0.95093435  0.33727775  1
  Zr  Zr239  1  0.46714884  0.45151483  0.33578822  1
  Zr  Zr240  1  0.47786802  0.69949044  0.42785704  1
  Zr  Zr241  1  0.46644234  0.20494421  0.42131266  1
  Zr  Zr242  1  0.96866711  0.70092173  0.42556418  1
  Zr  Zr243  1  0.96623509  0.19785339  0.42183604  1
  Zr  Zr244  1  0.95773111  0.69734098  0.66345227  1
  Zr  Zr245  1  0.46866156  0.45638644  0.57422811  1
  Zr  Zr246  1  0.46136208  0.95686609  0.57925035  1
  Zr  Zr247  1  0.95724641  0.20049265  0.66216292  1
  Zr  Zr248  1  0.95885035  0.45295360  0.57262108  1
  Zr  Zr249  1  0.96269219  0.94115531  0.57742187  1
  Zr  Zr250  1  0.45686967  0.69873316  0.66276389  1
  Zr  Zr251  1  0.45837952  0.20203968  0.66415349  1
  Zr  Zr252  1  0.95813849  0.20169526  0.83682466  1
  Zr  Zr253  1  0.45894494  0.95003174  0.75000329  1
  Zr  Zr254  1  0.45793410  0.44959143  0.75008197  1
  Zr  Zr255  1  0.95539594  0.69769900  0.83735127  1
  Zr  Zr256  1  0.95878842  0.94995982  0.74995450  1
  Zr  Zr257  1  0.95762056  0.44923000  0.74998546  1
  Zr  Zr258  1  0.45582391  0.19882142  0.83724610  1
  Zr  Zr259  1  0.45837285  0.69836791  0.83588893  1
  Zr  Zr260  1  0.44665746  0.45034437  0.92766393  1
  Zr  Zr261  1  0.45818921  0.94551960  0.92131095  1
  Zr  Zr262  1  0.95483298  0.44801097  0.92553193  1
  Zr  Zr263  1  0.95818308  0.95214985  0.92184735  1
  O  O264  1  0.76739305  0.88461207  0.14726056  1
  O  O265  1  0.17061747  0.01814732  0.17894420  1
  O  O266  1  0.33709564  0.10161103  0.04644216  1
  O  O267  1  0.55650274  0.28040572  0.11296140  1
  O  O268  1  0.67055494  0.83469454  0.09221620  1
  O  O269  1  0.26472521  0.56135242  0.05762354  1
  O  O270  1  0.87740742  0.44670341  0.12903674  1
  O  O271  1  0.63859056  0.30704355  0.05443131  1
  O  O272  1  0.28052702  0.04862925  0.09885962  1
  O  O273  1  0.97299466  0.45247775  0.00897500  1
  O  O274  1  0.08845104  0.06656337  0.13142319  1
  O  O275  1  0.00069090  0.98164136  0.02331794  1
  O  O276  1  0.14823241  0.49119663  0.14265853  1
  O  O277  1  0.58429040  0.69518390  0.04554632  1
  O  O278  1  0.33974320  0.68422975  0.10758679  1
  O  O279  1  0.37993717  0.75081273  0.16801298  1
  O  O280  1  0.55981285  0.14835187  0.16073024  1
  O  O281  1  0.48715825  0.61467367  0.14828800  1
  O  O282  1  0.44949743  0.28845923  0.17939512  1
  O  O283  1  0.04378849  0.09140433  0.07397523  1
  O  O284  1  0.86947755  0.30923010  0.08440308  1
  O  O285  1  0.93051403  0.83491469  0.09048905  1
  O  O286  1  0.96648918  0.54441178  0.06100216  1
  O  O287  1  0.06271029  0.65202940  0.16664902  1
  O  O288  1  0.88044455  0.25370875  0.15957947  1
  O  O289  1  0.48345988  0.55640938  0.09299433  1
  O  O290  1  0.46300351  0.85262044  0.06574022  1
  O  O291  1  0.37420670  0.30288673  0.07527395  1
  O  O292  1  0.55695118  0.09062862  0.08519559  1
  O  O293  1  0.95309903  0.78966661  0.14660572  1
  O  O294  1  0.99075780  0.11568192  0.17829955  1
  O  O295  1  0.08847271  0.71368700  0.10394308  1
  O  O296  1  0.84489831  0.70287890  0.04169524  1
  O  O297  1  0.13412738  0.34497078  0.09847216  1
  O  O298  1  0.77772608  0.09549962  0.05183864  1
  O  O299  1  0.34312614  0.33170679  0.13325860  1
  O  O300  1  0.47555487  0.00500315  0.01801856  1
  O  O301  1  0.29562464  0.91697837  0.14277050  1
  O  O302  1  0.69160504  0.46167806  0.01102782  1
  O  O303  1  0.75153589  0.55546010  0.08892109  1
  O  O304  1  0.13829794  0.83613965  0.05378627  1
  O  O305  1  0.08044398  0.29186103  0.04224318  1
  O  O306  1  0.86011421  0.10898676  0.10949905  1
  O  O307  1  0.66738057  0.51745831  0.14647789  1
  O  O308  1  0.26590647  0.38514538  0.17929482  1
  O  O309  1  0.39098103  0.39303977  0.02180011  1
  O  O310  1  0.55754404  0.95337706  0.12955411  1
  O  O311  1  0.76716058  0.38570710  0.32108625  1
  O  O312  1  0.17006767  0.51892426  0.35328463  1
  O  O313  1  0.37554864  0.61762303  0.21537881  1
  O  O314  1  0.56022077  0.78107855  0.28498686  1
  O  O315  1  0.66843422  0.33572840  0.26645965  1
  O  O316  1  0.26660308  0.06635754  0.23386495  1
  O  O317  1  0.05956003  0.46189007  0.19855113  1
  O  O318  1  0.87507939  0.93643701  0.30198667  1
  O  O319  1  0.64294610  0.84330958  0.22869966  1
  O  O320  1  0.28718808  0.55955751  0.27123661  1
  O  O321  1  0.84688738  0.83371048  0.19315470  1
  O  O322  1  0.08969522  0.56334927  0.30593856  1
  O  O323  1  0.79289086  0.42073514  0.18474562  1
  O  O324  1  0.14812147  0.98848597  0.31577376  1
  O  O325  1  0.59300457  0.20671515  0.22000304  1
  O  O326  1  0.34496175  0.19006915  0.28110086  1
  O  O327  1  0.37865076  0.25341539  0.34005299  1
  O  O328  1  0.55923315  0.65056042  0.33276648  1
  O  O329  1  0.49000693  0.11558551  0.32139739  1
  O  O330  1  0.45061449  0.78783010  0.35290495  1
  O  O331  1  0.05545186  0.59054218  0.24655534  1
  O  O332  1  0.87560681  0.80756375  0.25327055  1
  O  O333  1  0.94671012  0.34349637  0.26551034  1
  O  O334  1  0.98686404  0.05650867  0.23393865  1
  O  O335  1  0.05908685  0.14824033  0.34005656  1
  O  O336  1  0.87994434  0.75139654  0.33319678  1
  O  O337  1  0.48745577  0.05663763  0.26602645  1
  O  O338  1  0.44702315  0.34385786  0.23478917  1
  O  O339  1  0.37557130  0.80707446  0.24691546  1
  O  O340  1  0.55643303  0.59099609  0.25380627  1
  O  O341  1  0.94942621  0.28863931  0.32100172  1
  O  O342  1  0.98733949  0.61426452  0.35259434  1
  O  O343  1  0.09127460  0.20472623  0.28030785  1
  O  O344  1  0.84694633  0.19156527  0.21890080  1
  O  O345  1  0.14337645  0.84357210  0.27150461  1
  O  O346  1  0.78773613  0.55971520  0.22890075  1
  O  O347  1  0.34565388  0.83476196  0.30660007  1
  O  O348  1  0.59117008  0.56283816  0.19435617  1
  O  O349  1  0.29116417  0.41966827  0.31495817  1
  O  O350  1  0.65048467  0.98961035  0.18485401  1
  O  O351  1  0.76704846  0.06647444  0.26632376  1
  O  O352  1  0.16893664  0.33602615  0.23405921  1
  O  O353  1  0.06055713  0.78079319  0.21513614  1
  O  O354  1  0.87533243  0.61939141  0.28495076  1
  O  O355  1  0.67084903  0.01670872  0.32110944  1
  O  O356  1  0.26831138  0.88382721  0.35307422  1
  O  O357  1  0.37665643  0.93687177  0.19919455  1
  O  O358  1  0.55866034  0.46060233  0.30124711  1
  O  O359  1  0.37676305  0.11850948  0.38747166  1
  O  O360  1  0.56139790  0.28621246  0.45779310  1
  O  O361  1  0.67369136  0.85494043  0.43818737  1
  O  O362  1  0.26633058  0.56354415  0.40970109  1
  O  O363  1  0.06163782  0.95805419  0.37178234  1
  O  O364  1  0.64519350  0.35119257  0.40177735  1
  O  O365  1  0.28528070  0.07117505  0.44292641  1
  O  O366  1  0.84516864  0.33299416  0.36764948  1
  O  O367  1  0.06023057  0.04151109  0.48200844  1
  O  O368  1  0.79179154  0.91308785  0.35838530  1
  O  O369  1  0.96487815  0.37748358  0.48350441  1
  O  O370  1  0.58688202  0.70868543  0.39364953  1
  O  O371  1  0.35295081  0.69465144  0.45708527  1
  O  O372  1  0.04805055  0.08780905  0.41800038  1
  O  O373  1  0.87779656  0.31200532  0.42710461  1
  O  O374  1  0.96602540  0.85314521  0.43737607  1
  O  O375  1  0.99796365  0.56033242  0.40793927  1
  O  O376  1  0.48450374  0.54549405  0.43803530  1
  O  O377  1  0.44309218  0.84065562  0.40948975  1
  O  O378  1  0.36787780  0.30377421  0.41583035  1
  O  O379  1  0.55787541  0.09682996  0.42597113  1
  O  O380  1  0.09118508  0.69815071  0.45586383  1
  O  O381  1  0.84328132  0.68430120  0.39429200  1
  O  O382  1  0.14997948  0.33171841  0.44498618  1
  O  O383  1  0.78987916  0.06533381  0.40097757  1
  O  O384  1  0.31388560  0.33476024  0.48950914  1
  O  O385  1  0.59115899  0.07006828  0.36734786  1
  O  O386  1  0.22960287  0.92706809  0.48880062  1
  O  O387  1  0.64563249  0.49156336  0.35709561  1
  O  O388  1  0.79744437  0.55502738  0.44459683  1
  O  O389  1  0.17880465  0.83814536  0.40891043  1
  O  O390  1  0.06506902  0.28636400  0.38891838  1
  O  O391  1  0.85779099  0.11138586  0.45729135  1
  O  O392  1  0.37601236  0.44357030  0.37084985  1
  O  O393  1  0.55089590  0.99687427  0.47694590  1
  O  O394  1  0.15745063  0.26486836  0.64713462  1
  O  O395  1  0.75469503  0.13237706  0.67876599  1
  O  O396  1  0.58679447  0.04874567  0.54651785  1
  O  O397  1  0.36958500  0.87000559  0.61313584  1
  O  O398  1  0.25221490  0.31430349  0.59206014  1
  O  O399  1  0.65632522  0.58791471  0.55698090  1
  O  O400  1  0.04908974  0.70359066  0.62923721  1
  O  O401  1  0.28632583  0.84241219  0.55458858  1
  O  O402  1  0.64427171  0.10205699  0.59888225  1
  O  O403  1  0.95035486  0.69707144  0.50896577  1
  O  O404  1  0.83664740  0.08234597  0.63137004  1
  O  O405  1  0.92162363  0.16833913  0.52333862  1
  O  O406  1  0.77826430  0.65779166  0.64269731  1
  O  O407  1  0.33743103  0.45442265  0.54548938  1
  O  O408  1  0.58434044  0.46587234  0.60712835  1
  O  O409  1  0.54672876  0.39962230  0.66805306  1
  O  O410  1  0.36587784  0.00225043  0.66086993  1
  O  O411  1  0.43899830  0.53551715  0.64812883  1
  O  O412  1  0.47700396  0.86218165  0.67935118  1
  O  O413  1  0.88204207  0.05850594  0.57405179  1
  O  O414  1  0.05515613  0.83996408  0.58462541  1
  O  O415  1  0.99312503  0.31544911  0.59033787  1
  O  O416  1  0.95595906  0.60534898  0.56102134  1
  O  O417  1  0.86459630  0.49830749  0.66692210  1
  O  O418  1  0.04486204  0.89622680  0.65968937  1
  O  O419  1  0.44007644  0.59321985  0.59280440  1
  O  O420  1  0.45925661  0.29610207  0.56542589  1
  O  O421  1  0.55123055  0.84776378  0.57531968  1
  O  O422  1  0.36725580  0.05892247  0.58534462  1
  O  O423  1  0.97283019  0.36069432  0.64648664  1
  O  O424  1  0.93416532  0.03429500  0.67827796  1
  O  O425  1  0.83632733  0.43609967  0.60426416  1
  O  O426  1  0.07733161  0.44732440  0.54164846  1
  O  O427  1  0.79014292  0.80330640  0.59848017  1
  O  O428  1  0.14586496  0.05222186  0.55178706  1
  O  O429  1  0.58238795  0.81833811  0.63324067  1
  O  O430  1  0.44712006  0.14408302  0.51788715  1
  O  O431  1  0.63031197  0.23462781  0.64272295  1
  O  O432  1  0.23228595  0.68817592  0.51097194  1
  O  O433  1  0.17195222  0.59453425  0.58893188  1
  O  O434  1  0.78349972  0.31436534  0.55393559  1
  O  O435  1  0.84381633  0.85784528  0.54221667  1
  O  O436  1  0.06481777  0.04038763  0.60949045  1
  O  O437  1  0.25775049  0.63178605  0.64658295  1
  O  O438  1  0.66004624  0.76445351  0.67919597  1
  O  O439  1  0.53298701  0.75797446  0.52173462  1
  O  O440  1  0.36805182  0.19725003  0.62958986  1
  O  O441  1  0.15817033  0.76386089  0.82105166  1
  O  O442  1  0.75499729  0.63041952  0.85323732  1
  O  O443  1  0.55114346  0.53241227  0.71544828  1
  O  O444  1  0.36570458  0.36914986  0.78503556  1
  O  O445  1  0.25841914  0.81443751  0.76653761  1
  O  O446  1  0.65970939  0.08348037  0.73375865  1
  O  O447  1  0.86675896  0.68814493  0.69871525  1
  O  O448  1  0.05054248  0.21301520  0.80200760  1
  O  O449  1  0.28356387  0.30743943  0.72861916  1
  O  O450  1  0.63920099  0.59098098  0.77118194  1
  O  O451  1  0.07886946  0.31583556  0.69304761  1
  O  O452  1  0.83579846  0.58643771  0.80579654  1
  O  O453  1  0.13336003  0.72900105  0.68491368  1
  O  O454  1  0.77682606  0.16107959  0.81584332  1
  O  O455  1  0.33380561  0.94355205  0.72010497  1
  O  O456  1  0.58156231  0.96008391  0.78121650  1
  O  O457  1  0.54614947  0.89626502  0.84010794  1
  O  O458  1  0.36603668  0.49927578  0.83286717  1
  O  O459  1  0.43481725  0.03407943  0.82137897  1
  O  O460  1  0.47395349  0.36171328  0.85293733  1
  O  O461  1  0.87056472  0.55935919  0.74652822  1
  O  O462  1  0.05045120  0.34217277  0.75327380  1
  O  O463  1  0.97993363  0.80672404  0.76537627  1
  O  O464  1  0.93950604  0.09359625  0.73387702  1
  O  O465  1  0.86576681  0.00139904  0.83992778  1
  O  O466  1  0.04588636  0.39826836  0.83323106  1
  O  O467  1  0.43928049  0.09352476  0.76607397  1
  O  O468  1  0.47938121  0.80634300  0.73476471  1
  O  O469  1  0.55054479  0.34308725  0.74706377  1
  O  O470  1  0.36992846  0.55924879  0.75383929  1
  O  O471  1  0.97621845  0.86135212  0.82087062  1
  O  O472  1  0.93751025  0.53510695  0.85250095  1
  O  O473  1  0.83524932  0.94485869  0.78017690  1
  O  O474  1  0.07992210  0.95870885  0.71877309  1
  O  O475  1  0.78301816  0.30579946  0.77159315  1
  O  O476  1  0.13818643  0.59000995  0.72899992  1
  O  O477  1  0.57991212  0.31541220  0.80675598  1
  O  O478  1  0.33527692  0.58717752  0.69435815  1
  O  O479  1  0.63375383  0.72969619  0.81496390  1
  O  O480  1  0.27512454  0.16098652  0.68488844  1
  O  O481  1  0.15926926  0.08382554  0.76622856  1
  O  O482  1  0.75774306  0.81423305  0.73384665  1
  O  O483  1  0.86517124  0.36862267  0.71525354  1
  O  O484  1  0.05069493  0.53075355  0.78497748  1
  O  O485  1  0.25397225  0.13281483  0.82105030  1
  O  O486  1  0.65581699  0.26501016  0.85320037  1
  O  O487  1  0.54867153  0.21254224  0.69924049  1
  O  O488  1  0.36696506  0.68905703  0.80129380  1
  O  O489  1  0.54807062  0.03145780  0.88747249  1
  O  O490  1  0.36234798  0.86457410  0.95786879  1
  O  O491  1  0.25106712  0.29495838  0.93799210  1
  O  O492  1  0.65800473  0.58600232  0.90953279  1
  O  O493  1  0.86388590  0.19194655  0.87178397  1
  O  O494  1  0.27902250  0.79927143  0.90188294  1
  O  O495  1  0.63859043  0.07861825  0.94312519  1
  O  O496  1  0.07930413  0.81621651  0.86760522  1
  O  O497  1  0.86296009  0.10806842  0.98215153  1
  O  O498  1  0.13289615  0.23555683  0.85843718  1
  O  O499  1  0.95879038  0.77267620  0.98354226  1
  O  O500  1  0.33662378  0.44089819  0.89354624  1
  O  O501  1  0.57131394  0.45610023  0.95706804  1
  O  O502  1  0.87561702  0.06176659  0.91820017  1
  O  O503  1  0.04625180  0.83782809  0.92712991  1
  O  O504  1  0.95834271  0.29658152  0.93762693  1
  O  O505  1  0.92597251  0.58906944  0.90794701  1
  O  O506  1  0.43976503  0.60407899  0.93771691  1
  O  O507  1  0.48139781  0.30909447  0.90939773  1
  O  O508  1  0.55617966  0.84628349  0.91584390  1
  O  O509  1  0.36677162  0.05357760  0.92596177  1
  O  O510  1  0.83247510  0.45101628  0.95587983  1
  O  O511  1  0.08079985  0.46509910  0.89436868  1
  O  O512  1  0.77380564  0.81782581  0.94484199  1
  O  O513  1  0.13450486  0.08467657  0.90100749  1
  O  O514  1  0.60899460  0.81452750  0.98923643  1
  O  O515  1  0.33307959  0.07970494  0.86735309  1
  O  O516  1  0.69423626  0.22252433  0.98899287  1
  O  O517  1  0.27938226  0.65810752  0.85713347  1
  O  O518  1  0.12613939  0.59464304  0.94454535  1
  O  O519  1  0.74549974  0.31117655  0.90903542  1
  O  O520  1  0.85970653  0.86392583  0.88887393  1
  O  O521  1  0.06587898  0.03851237  0.95734696  1
  O  O522  1  0.54895601  0.70654442  0.87099733  1
  O  O523  1  0.37306688  0.15333563  0.97689100  1
