# generated using pymatgen
data_Li40La18Zr10O67
_symmetry_space_group_name_H-M   'P 1'
_cell_length_a   11.27162600
_cell_length_b   12.64834664
_cell_length_c   54.21457082
_cell_angle_alpha   90.00000000
_cell_angle_beta   90.00000000
_cell_angle_gamma   124.12984495
_symmetry_Int_Tables_number   1
_chemical_formula_structural   Li40La18Zr10O67
_chemical_formula_sum   'Li160 La72 Zr40 O268'
_cell_volume   6398.01253292
_cell_formula_units_Z   4
loop_
 _symmetry_equiv_pos_site_id
 _symmetry_equiv_pos_as_xyz
  1  'x, y, z'
loop_
 _atom_site_type_symbol
 _atom_site_label
 _atom_site_symmetry_multiplicity
 _atom_site_fract_x
 _atom_site_fract_y
 _atom_site_fract_z
 _atom_site_occupancy
  Li  Li0  1  0.85847843  0.44444402  0.08087572  1
  Li  Li1  1  0.22709317  0.00962832  0.07228212  1
  Li  Li2  1  0.06010130  0.42489462  0.05280596  1
  Li  Li3  1  0.04923921  0.02468504  0.10474765  1
  Li  Li4  1  0.69336532  0.36721211  0.16111630  1
  Li  Li5  1  0.35807080  0.58433991  0.16401154  1
  Li  Li6  1  0.43087633  0.56606898  0.02756880  1
  Li  Li7  1  0.52535931  0.77588311  0.13416189  1
  Li  Li8  1  0.27467518  0.73566776  0.14692188  1
  Li  Li9  1  0.67912068  0.79031314  0.01253568  1
  Li  Li10  1  0.41783300  0.53558270  0.11969102  1
  Li  Li11  1  0.67717188  0.96970746  0.03915458  1
  Li  Li12  1  0.28184242  0.24171040  0.09694295  1
  Li  Li13  1  0.76352109  0.21138344  0.06217634  1
  Li  Li14  1  0.13221915  0.88719453  0.11994927  1
  Li  Li15  1  0.88502772  0.46566343  0.03864811  1
  Li  Li16  1  0.01943108  0.66418870  0.13525899  1
  Li  Li17  1  0.95804083  0.68810164  0.01602806  1
  Li  Li18  1  0.35725421  0.44747911  0.07638962  1
  Li  Li19  1  0.68854487  0.99330694  0.08285868  1
  Li  Li20  1  0.53662205  0.42505292  0.10602419  1
  Li  Li21  1  0.51360158  0.01628444  0.05156461  1
  Li  Li22  1  0.19320339  0.86625427  0.16562096  1
  Li  Li23  1  0.85992335  0.08898566  0.16464026  1
  Li  Li24  1  0.77738371  0.47532613  0.12009734  1
  Li  Li25  1  0.29977360  0.97384993  0.02675915  1
  Li  Li26  1  0.16731237  0.42404969  0.01576944  1
  Li  Li27  1  0.78395902  0.97354971  0.12125524  1
  Li  Li28  1  0.86066628  0.95025267  0.25195714  1
  Li  Li29  1  0.19483753  0.50523886  0.25047895  1
  Li  Li30  1  0.03815826  0.92077221  0.22127141  1
  Li  Li31  1  0.02725626  0.52917138  0.27947995  1
  Li  Li32  1  0.69314354  0.86610632  0.33433071  1
  Li  Li33  1  0.35959681  0.08823495  0.33552361  1
  Li  Li34  1  0.51601789  0.15987625  0.19266977  1
  Li  Li35  1  0.52389135  0.27724359  0.30665303  1
  Li  Li36  1  0.27174914  0.24061896  0.31702443  1
  Li  Li37  1  0.77189384  0.24113612  0.18283754  1
  Li  Li38  1  0.41890824  0.02981374  0.29253197  1
  Li  Li39  1  0.63449252  0.39270077  0.20598340  1
  Li  Li40  1  0.28115333  0.74219931  0.26852769  1
  Li  Li41  1  0.78115478  0.74225745  0.23144907  1
  Li  Li42  1  0.13428077  0.39226819  0.29402401  1
  Li  Li43  1  0.91891205  0.02976517  0.20746139  1
  Li  Li44  1  0.01592203  0.15975032  0.30732842  1
  Li  Li45  1  0.02411110  0.27747788  0.19333015  1
  Li  Li46  1  0.36067268  0.95025553  0.24803997  1
  Li  Li47  1  0.69494030  0.50532185  0.24952197  1
  Li  Li48  1  0.53815912  0.92077442  0.27872264  1
  Li  Li49  1  0.52727569  0.52918929  0.22051168  1
  Li  Li50  1  0.19385578  0.36739704  0.33871128  1
  Li  Li51  1  0.85779392  0.58416218  0.33595590  1
  Li  Li52  1  0.77633151  0.97308605  0.29317297  1
  Li  Li53  1  0.27586309  0.47337029  0.20708256  1
  Li  Li54  1  0.27632255  0.97313829  0.20681177  1
  Li  Li55  1  0.77576459  0.47311085  0.29288591  1
  Li  Li56  1  0.85723578  0.44738576  0.42360477  1
  Li  Li57  1  0.18856272  0.99326579  0.41714053  1
  Li  Li58  1  0.03649033  0.42494131  0.39399912  1
  Li  Li59  1  0.01358815  0.01621024  0.44842627  1
  Li  Li60  1  0.51898692  0.66355886  0.36475220  1
  Li  Li61  1  0.45825965  0.68817453  0.48400719  1
  Li  Li62  1  0.17915085  0.79030149  0.48745864  1
  Li  Li63  1  0.77449769  0.73551406  0.35305917  1
  Li  Li64  1  0.38630829  0.46549355  0.46141540  1
  Li  Li65  1  0.63396232  0.88619128  0.37991679  1
  Li  Li66  1  0.26355955  0.21139794  0.43780932  1
  Li  Li67  1  0.78191290  0.24180592  0.40304465  1
  Li  Li68  1  0.17714240  0.96960371  0.46080368  1
  Li  Li69  1  0.91814262  0.53559244  0.38024446  1
  Li  Li70  1  0.93086080  0.56567735  0.47240867  1
  Li  Li71  1  0.02551754  0.77569902  0.36581390  1
  Li  Li72  1  0.35863824  0.44433949  0.41915445  1
  Li  Li73  1  0.72790700  0.00917726  0.42790683  1
  Li  Li74  1  0.56136354  0.42460222  0.44717192  1
  Li  Li75  1  0.55187886  0.02363536  0.39531408  1
  Li  Li76  1  0.66713455  0.42297754  0.48446023  1
  Li  Li77  1  0.28410220  0.97353180  0.37876542  1
  Li  Li78  1  0.27708864  0.47501976  0.37988368  1
  Li  Li79  1  0.80011633  0.97290940  0.47332971  1
  Li  Li80  1  0.19224632  0.28167639  0.58065031  1
  Li  Li81  1  0.81926121  0.71563309  0.57166861  1
  Li  Li82  1  0.98937606  0.30006072  0.55286677  1
  Li  Li83  1  0.99134455  0.70113702  0.60433843  1
  Li  Li84  1  0.35768090  0.35710725  0.66098166  1
  Li  Li85  1  0.69257411  0.14035735  0.66401173  1
  Li  Li86  1  0.61786973  0.15801918  0.52760998  1
  Li  Li87  1  0.52502863  0.94939834  0.63421300  1
  Li  Li88  1  0.77540026  0.98769248  0.64696018  1
  Li  Li89  1  0.36979917  0.93575227  0.51268871  1
  Li  Li90  1  0.63317048  0.18860949  0.61978333  1
  Li  Li91  1  0.37148325  0.75504492  0.53903291  1
  Li  Li92  1  0.76673600  0.48101394  0.59689780  1
  Li  Li93  1  0.28684229  0.51699253  0.56212409  1
  Li  Li94  1  0.91696473  0.84268589  0.62029410  1
  Li  Li95  1  0.16426741  0.26002168  0.53851631  1
  Li  Li96  1  0.03247726  0.06319730  0.63508161  1
  Li  Li97  1  0.09061591  0.03671260  0.51617752  1
  Li  Li98  1  0.69389337  0.27705995  0.57626843  1
  Li  Li99  1  0.36164218  0.73352419  0.58288900  1
  Li  Li100  1  0.51484018  0.29961366  0.60609031  1
  Li  Li101  1  0.53430048  0.70895326  0.55160071  1
  Li  Li102  1  0.85660666  0.85788655  0.66598148  1
  Li  Li103  1  0.18979263  0.63290300  0.66525903  1
  Li  Li104  1  0.27357622  0.25038554  0.62004790  1
  Li  Li105  1  0.74866026  0.75235282  0.52662837  1
  Li  Li106  1  0.88099345  0.30031973  0.51574971  1
  Li  Li107  1  0.26585716  0.75157427  0.62146871  1
  Li  Li108  1  0.18989315  0.77407613  0.75210570  1
  Li  Li109  1  0.85540450  0.21901059  0.75075646  1
  Li  Li110  1  0.01115296  0.80311017  0.72124380  1
  Li  Li111  1  0.02238817  0.19610105  0.77941647  1
  Li  Li112  1  0.35860919  0.86064742  0.83455202  1
  Li  Li113  1  0.68979250  0.63298014  0.83477604  1
  Li  Li114  1  0.53387027  0.56488026  0.69240679  1
  Li  Li115  1  0.52330694  0.44500917  0.80646333  1
  Li  Li116  1  0.77895036  0.48380298  0.81702996  1
  Li  Li117  1  0.27893058  0.48373509  0.68296740  1
  Li  Li118  1  0.63136031  0.69548802  0.79257039  1
  Li  Li119  1  0.41459716  0.33404080  0.70592565  1
  Li  Li120  1  0.77004190  0.98074927  0.76850156  1
  Li  Li121  1  0.26982596  0.98055993  0.73148104  1
  Li  Li122  1  0.91461504  0.33407248  0.79408133  1
  Li  Li123  1  0.13079419  0.69548026  0.70751193  1
  Li  Li124  1  0.03377686  0.56493824  0.80759324  1
  Li  Li125  1  0.02343857  0.44511500  0.69354879  1
  Li  Li126  1  0.68989799  0.77413305  0.74793403  1
  Li  Li127  1  0.35541938  0.21897968  0.74923224  1
  Li  Li128  1  0.51187006  0.80341736  0.77879283  1
  Li  Li129  1  0.52238562  0.19573934  0.72056756  1
  Li  Li130  1  0.85772395  0.35714133  0.83901947  1
  Li  Li131  1  0.19249013  0.14053541  0.83596336  1
  Li  Li132  1  0.27312159  0.75093602  0.79343225  1
  Li  Li133  1  0.77375340  0.25085781  0.70720715  1
  Li  Li134  1  0.77304725  0.75063050  0.70668758  1
  Li  Li135  1  0.27375357  0.25086706  0.79279656  1
  Li  Li136  1  0.19311840  0.27690698  0.92392955  1
  Li  Li137  1  0.86156827  0.73338415  0.91711160  1
  Li  Li138  1  0.01364111  0.29938098  0.89400296  1
  Li  Li139  1  0.03427988  0.70886751  0.94837080  1
  Li  Li140  1  0.53248988  0.06323159  0.86495816  1
  Li  Li141  1  0.59036802  0.03625606  0.98386514  1
  Li  Li142  1  0.86941693  0.93558074  0.98732523  1
  Li  Li143  1  0.27563695  0.99136527  0.85312593  1
  Li  Li144  1  0.66397750  0.25979623  0.96146152  1
  Li  Li145  1  0.41617677  0.84195912  0.87976262  1
  Li  Li146  1  0.78704653  0.51570923  0.93777418  1
  Li  Li147  1  0.26646866  0.48063770  0.90306714  1
  Li  Li148  1  0.87141980  0.75494920  0.96090355  1
  Li  Li149  1  0.13316458  0.18927372  0.88029551  1
  Li  Li150  1  0.11698988  0.15749732  0.97241930  1
  Li  Li151  1  0.02435290  0.94928913  0.86585335  1
  Li  Li152  1  0.69190172  0.28102203  0.91929888  1
  Li  Li153  1  0.31924024  0.71556573  0.92832987  1
  Li  Li154  1  0.48925078  0.29994783  0.94714090  1
  Li  Li155  1  0.49122355  0.70100443  0.89566847  1
  Li  Li156  1  0.38082898  0.30020900  0.98423286  1
  Li  Li157  1  0.76568982  0.75145729  0.87858849  1
  Li  Li158  1  0.77351219  0.25041461  0.87992972  1
  Li  Li159  1  0.24877245  0.75204988  0.97339120  1
  La  La160  1  0.15185354  0.53806205  0.10143123  1
  La  La161  1  0.88124108  0.90688361  0.05658399  1
  La  La162  1  0.39354042  0.15539750  0.14213747  1
  La  La163  1  0.59996962  0.23482755  0.01504560  1
  La  La164  1  0.27906297  0.23371546  0.03625882  1
  La  La165  1  0.77496039  0.22056384  0.12203101  1
  La  La166  1  0.77445101  0.72115467  0.11959833  1
  La  La167  1  0.25414576  0.69651563  0.03389099  1
  La  La168  1  0.66912879  0.53396887  0.05300184  1
  La  La169  1  0.39773456  0.90491167  0.10040969  1
  La  La170  1  0.90060466  0.18699918  0.01499024  1
  La  La171  1  0.15297562  0.28653567  0.14263446  1
  La  La172  1  0.15758873  0.03851095  0.27238796  1
  La  La173  1  0.90044694  0.41107621  0.22865037  1
  La  La174  1  0.39733513  0.65967139  0.31371330  1
  La  La175  1  0.65257228  0.78473713  0.18525848  1
  La  La176  1  0.27737209  0.72354180  0.20730051  1
  La  La177  1  0.77729953  0.72340254  0.29268105  1
  La  La178  1  0.77612501  0.22364306  0.29309192  1
  La  La179  1  0.27614175  0.22370839  0.20689020  1
  La  La180  1  0.65764383  0.03861619  0.22759002  1
  La  La181  1  0.40042189  0.41108920  0.27131310  1
  La  La182  1  0.89731363  0.65968936  0.18625332  1
  La  La183  1  0.15259686  0.78469537  0.31472749  1
  La  La184  1  0.16941055  0.53367427  0.44697834  1
  La  La185  1  0.89811537  0.90461959  0.39959007  1
  La  La186  1  0.40063491  0.18680343  0.48496088  1
  La  La187  1  0.65297846  0.28644713  0.35732177  1
  La  La188  1  0.27498806  0.22056785  0.37790571  1
  La  La189  1  0.77903213  0.23337181  0.46371854  1
  La  La190  1  0.75400988  0.69566459  0.46613489  1
  La  La191  1  0.27493330  0.72120306  0.38038419  1
  La  La192  1  0.65190951  0.53778503  0.39854813  1
  La  La193  1  0.38135891  0.90668357  0.44339495  1
  La  La194  1  0.89375283  0.15550150  0.35786392  1
  La  La195  1  0.10001466  0.23485775  0.48493514  1
  La  La196  1  0.89891507  0.18753795  0.60149446  1
  La  La197  1  0.16808759  0.81813836  0.55672756  1
  La  La198  1  0.65739695  0.56981889  0.64203876  1
  La  La199  1  0.44994614  0.49033113  0.51501610  1
  La  La200  1  0.77088551  0.49135868  0.53625417  1
  La  La201  1  0.27566279  0.50477540  0.62206182  1
  La  La202  1  0.27543021  0.00385013  0.61964351  1
  La  La203  1  0.79563944  0.02916077  0.53384449  1
  La  La204  1  0.38087780  0.19163352  0.55297404  1
  La  La205  1  0.65188092  0.82051931  0.60034326  1
  La  La206  1  0.14810307  0.53762721  0.51491001  1
  La  La207  1  0.89796509  0.43875174  0.64268382  1
  La  La208  1  0.89270685  0.68624016  0.77244074  1
  La  La209  1  0.14944086  0.31369084  0.72870783  1
  La  La210  1  0.65347072  0.06530263  0.81370047  1
  La  La211  1  0.39791576  0.94011003  0.68522492  1
  La  La212  1  0.77319873  0.00131133  0.70732393  1
  La  La213  1  0.27319881  0.00129960  0.79266870  1
  La  La214  1  0.27396027  0.50124073  0.79315213  1
  La  La215  1  0.77383514  0.50103683  0.70687753  1
  La  La216  1  0.39263188  0.68617460  0.72760441  1
  La  La217  1  0.64942295  0.31367749  0.77128742  1
  La  La218  1  0.15322133  0.06513481  0.68629614  1
  La  La219  1  0.89798447  0.94024471  0.81478965  1
  La  La220  1  0.88049709  0.19139806  0.94702574  1
  La  La221  1  0.15173540  0.82055855  0.89960825  1
  La  La222  1  0.64801013  0.53761530  0.98502495  1
  La  La223  1  0.39783275  0.43862520  0.85733645  1
  La  La224  1  0.77566861  0.50477136  0.87792851  1
  La  La225  1  0.27054284  0.49117670  0.96377349  1
  La  La226  1  0.29536022  0.02886638  0.96618696  1
  La  La227  1  0.77511479  0.00370237  0.88036129  1
  La  La228  1  0.39867948  0.18753111  0.89859026  1
  La  La229  1  0.66789082  0.81798810  0.94326775  1
  La  La230  1  0.15743549  0.56992981  0.85794013  1
  La  La231  1  0.94979719  0.49040345  0.98498128  1
  Zr  Zr232  1  0.02548045  0.47390936  0.16446437  1
  Zr  Zr233  1  0.51920042  0.71484538  0.07540990  1
  Zr  Zr234  1  0.52465614  0.22109125  0.07985492  1
  Zr  Zr235  1  0.02405556  0.97144546  0.16346907  1
  Zr  Zr236  1  0.02888005  0.72874816  0.07552519  1
  Zr  Zr237  1  0.02408512  0.21989018  0.07935880  1
  Zr  Zr238  1  0.52511180  0.47241223  0.16324245  1
  Zr  Zr239  1  0.52786746  0.97140171  0.16410597  1
  Zr  Zr240  1  0.02767231  0.97121859  0.33587408  1
  Zr  Zr241  1  0.52798817  0.22457490  0.24969544  1
  Zr  Zr242  1  0.52764105  0.72395026  0.24984299  1
  Zr  Zr243  1  0.02522216  0.47241411  0.33673475  1
  Zr  Zr244  1  0.02798632  0.22455469  0.25028605  1
  Zr  Zr245  1  0.02761889  0.72389472  0.25013545  1
  Zr  Zr246  1  0.52421482  0.97144899  0.33652012  1
  Zr  Zr247  1  0.52535050  0.47369175  0.33549542  1
  Zr  Zr248  1  0.52911598  0.72842483  0.42448909  1
  Zr  Zr249  1  0.52390059  0.21934100  0.42054656  1
  Zr  Zr250  1  0.01937183  0.71460597  0.42456825  1
  Zr  Zr251  1  0.02459549  0.22077212  0.42012175  1
  Zr  Zr252  1  0.02519762  0.25110340  0.66452778  1
  Zr  Zr253  1  0.53048372  0.01053616  0.57545597  1
  Zr  Zr254  1  0.52531123  0.50411295  0.57982182  1
  Zr  Zr255  1  0.02675207  0.75366981  0.66344560  1
  Zr  Zr256  1  0.02121724  0.99710110  0.57547456  1
  Zr  Zr257  1  0.02655867  0.50584156  0.57951786  1
  Zr  Zr258  1  0.52571489  0.25254654  0.66328154  1
  Zr  Zr259  1  0.52290780  0.75370932  0.66407539  1
  Zr  Zr260  1  0.02327540  0.75411091  0.83594994  1
  Zr  Zr261  1  0.52215990  0.50025845  0.74971899  1
  Zr  Zr262  1  0.52301815  0.00068982  0.74988290  1
  Zr  Zr263  1  0.02572144  0.25258029  0.83676597  1
  Zr  Zr264  1  0.02212686  0.50022559  0.75031428  1
  Zr  Zr265  1  0.02304952  0.00075026  0.75012816  1
  Zr  Zr266  1  0.52666866  0.75367502  0.83657261  1
  Zr  Zr267  1  0.52543872  0.25122270  0.83548175  1
  Zr  Zr268  1  0.52092353  0.99686941  0.92453977  1
  Zr  Zr269  1  0.52629556  0.50567407  0.92049240  1
  Zr  Zr270  1  0.03025111  0.01039041  0.92453508  1
  Zr  Zr271  1  0.02536593  0.50410865  0.92015595  1
  O  O272  1  0.82202545  0.89951728  0.14779442  1
  O  O273  1  0.40372015  0.12553796  0.04688693  1
  O  O274  1  0.61776003  0.30410608  0.11365436  1
  O  O275  1  0.72314087  0.85393626  0.09205818  1
  O  O276  1  0.31967644  0.57389184  0.06049957  1
  O  O277  1  0.22958478  0.13779112  0.99702602  1
  O  O278  1  0.93399273  0.46366029  0.12939827  1
  O  O279  1  0.70329713  0.34424846  0.05802390  1
  O  O280  1  0.34543912  0.07385253  0.10025883  1
  O  O281  1  0.99187494  0.41488989  0.02129854  1
  O  O282  1  0.14880325  0.09102801  0.13399814  1
  O  O283  1  0.82392533  0.96503382  0.01829845  1
  O  O284  1  0.19968537  0.50599629  0.14310667  1
  O  O285  1  0.62573511  0.70571036  0.04401079  1
  O  O286  1  0.40060322  0.71208300  0.10665358  1
  O  O287  1  0.43353312  0.77198437  0.16745656  1
  O  O288  1  0.61446826  0.16876560  0.16011312  1
  O  O289  1  0.54182245  0.63394535  0.14772047  1
  O  O290  1  0.11702434  0.11138496  0.07318691  1
  O  O291  1  0.94123699  0.33368652  0.08242096  1
  O  O292  1  0.00074937  0.86126368  0.09363969  1
  O  O293  1  0.04559546  0.57906071  0.06265066  1
  O  O294  1  0.11372714  0.67149388  0.16797387  1
  O  O295  1  0.93212536  0.27487464  0.16147037  1
  O  O296  1  0.54947536  0.58079045  0.09262485  1
  O  O297  1  0.50751320  0.86258646  0.06036548  1
  O  O298  1  0.44375203  0.33596356  0.07468748  1
  O  O299  1  0.60770952  0.10621387  0.08453145  1
  O  O300  1  0.00752027  0.80950132  0.14864471  1
  O  O301  1  0.13005318  0.70779396  0.00268989  1
  O  O302  1  0.14679016  0.73508848  0.10782136  1
  O  O303  1  0.91429713  0.73883007  0.04629933  1
  O  O304  1  0.20872641  0.36391401  0.09961855  1
  O  O305  1  0.84417093  0.08213449  0.06184415  1
  O  O306  1  0.40342470  0.35829591  0.13273939  1
  O  O307  1  0.67544316  0.11375621  0.03105410  1
  O  O308  1  0.34689423  0.92987620  0.14337926  1
  O  O309  1  0.78336042  0.50438230  0.01627118  1
  O  O310  1  0.82433406  0.58337523  0.09111213  1
  O  O311  1  0.22974881  0.85820313  0.05870656  1
  O  O312  1  0.11877924  0.30040155  0.04338978  1
  O  O313  1  0.93634028  0.14693414  0.11440089  1
  O  O314  1  0.72676160  0.54000844  0.14683209  1
  O  O315  1  0.47002716  0.43155623  0.02104030  1
  O  O316  1  0.61957455  0.97961611  0.12941038  1
  O  O317  1  0.82533576  0.40644760  0.32011882  1
  O  O318  1  0.22681779  0.03772934  0.17972163  1
  O  O319  1  0.43465452  0.64312248  0.21530632  1
  O  O320  1  0.62021774  0.80544301  0.28450380  1
  O  O321  1  0.72850963  0.35795969  0.26582586  1
  O  O322  1  0.32686091  0.08821545  0.23368877  1
  O  O323  1  0.11751564  0.48602992  0.19899647  1
  O  O324  1  0.93501318  0.96208008  0.30134653  1
  O  O325  1  0.70868607  0.86530019  0.22908517  1
  O  O326  1  0.35375553  0.58082260  0.27125175  1
  O  O327  1  0.90496553  0.86078585  0.19502582  1
  O  O328  1  0.15019948  0.58932808  0.30651878  1
  O  O329  1  0.84374220  0.43498953  0.18471519  1
  O  O330  1  0.20146863  0.00177630  0.31465783  1
  O  O331  1  0.64982240  0.23365965  0.21868194  1
  O  O332  1  0.40327245  0.21838255  0.27950425  1
  O  O333  1  0.43195107  0.27473778  0.33848576  1
  O  O334  1  0.61357622  0.67129687  0.33199443  1
  O  O335  1  0.54375760  0.13477088  0.32013675  1
  O  O336  1  0.50488471  0.30822149  0.17865523  1
  O  O337  1  0.12067467  0.61754268  0.24704236  1
  O  O338  1  0.94015144  0.83407390  0.25379064  1
  O  O339  1  0.00838780  0.36807744  0.26621131  1
  O  O340  1  0.04902968  0.08114333  0.23502273  1
  O  O341  1  0.11435665  0.16859977  0.33983806  1
  O  O342  1  0.93336418  0.77183828  0.33251532  1
  O  O343  1  0.54900119  0.08114211  0.26495795  1
  O  O344  1  0.50842198  0.36812611  0.23377794  1
  O  O345  1  0.44014317  0.83408840  0.24618673  1
  O  O346  1  0.62069854  0.61756283  0.25293848  1
  O  O347  1  0.00498994  0.30819396  0.32132958  1
  O  O348  1  0.04377566  0.13485967  0.17985067  1
  O  O349  1  0.14970630  0.23352482  0.28130174  1
  O  O350  1  0.90337493  0.21842463  0.22047037  1
  O  O351  1  0.20863521  0.86527222  0.27089801  1
  O  O352  1  0.85374452  0.58077087  0.22871258  1
  O  O353  1  0.40501471  0.86078895  0.30496463  1
  O  O354  1  0.65016063  0.58927341  0.19345356  1
  O  O355  1  0.34381780  0.43489290  0.31518217  1
  O  O356  1  0.70151532  0.00178780  0.18534986  1
  O  O357  1  0.82687598  0.08820118  0.26628749  1
  O  O358  1  0.22852724  0.35803530  0.23415132  1
  O  O359  1  0.12025539  0.80547901  0.21547881  1
  O  O360  1  0.93455252  0.64296614  0.28465054  1
  O  O361  1  0.72687600  0.03768932  0.32024570  1
  O  O362  1  0.32528088  0.40654599  0.17986138  1
  O  O363  1  0.43514326  0.96224145  0.19863238  1
  O  O364  1  0.61757713  0.48591835  0.30098328  1
  O  O365  1  0.22712952  0.54011713  0.35309739  1
  O  O366  1  0.43580607  0.14725913  0.38549809  1
  O  O367  1  0.61878720  0.29990563  0.45657671  1
  O  O368  1  0.72998559  0.85773444  0.44132499  1
  O  O369  1  0.32441533  0.58312767  0.40888687  1
  O  O370  1  0.11935902  0.97931769  0.37056040  1
  O  O371  1  0.97018693  0.43117014  0.47895249  1
  O  O372  1  0.70880497  0.36345706  0.40036338  1
  O  O373  1  0.34418294  0.08185704  0.43813523  1
  O  O374  1  0.90370168  0.35843198  0.36723847  1
  O  O375  1  0.17553687  0.11372476  0.46892517  1
  O  O376  1  0.84656758  0.92962594  0.35662784  1
  O  O377  1  0.28370294  0.50405484  0.48371650  1
  O  O378  1  0.64697219  0.73461705  0.39214736  1
  O  O379  1  0.41446022  0.73860320  0.45369177  1
  O  O380  1  0.63036141  0.70782747  0.49729968  1
  O  O381  1  0.50771830  0.80951658  0.35134281  1
  O  O382  1  0.10774555  0.10603966  0.41545199  1
  O  O383  1  0.94373858  0.33564722  0.42532047  1
  O  O384  1  0.00774263  0.86245770  0.43959161  1
  O  O385  1  0.04966913  0.58061827  0.40735395  1
  O  O386  1  0.54571999  0.57872863  0.43733799  1
  O  O387  1  0.50128706  0.86068169  0.40629710  1
  O  O388  1  0.44159283  0.33359505  0.41759179  1
  O  O389  1  0.61689221  0.11082516  0.42677499  1
  O  O390  1  0.04186536  0.63390291  0.35223547  1
  O  O391  1  0.12569578  0.70535467  0.45598700  1
  O  O392  1  0.90079221  0.71182319  0.39332175  1
  O  O393  1  0.20332069  0.34392529  0.44195997  1
  O  O394  1  0.84524898  0.07338160  0.39975196  1
  O  O395  1  0.49298905  0.41519360  0.47871544  1
  O  O396  1  0.64913956  0.09143387  0.36594379  1
  O  O397  1  0.32418027  0.96489634  0.48166813  1
  O  O398  1  0.69951507  0.50579682  0.35687227  1
  O  O399  1  0.81968240  0.57350680  0.43944481  1
  O  O400  1  0.22328814  0.85371127  0.40792801  1
  O  O401  1  0.11747118  0.30389299  0.38633506  1
  O  O402  1  0.90359455  0.12505089  0.45311612  1
  O  O403  1  0.32213556  0.89958382  0.35218515  1
  O  O404  1  0.43370372  0.46339720  0.37054968  1
  O  O405  1  0.72983809  0.13790672  0.50300402  1
  O  O406  1  0.22908127  0.82686916  0.64787851  1
  O  O407  1  0.64679010  0.60012846  0.54685239  1
  O  O408  1  0.43310266  0.42149173  0.61364248  1
  O  O409  1  0.32688879  0.87156933  0.59214392  1
  O  O410  1  0.72981787  0.15145384  0.56038907  1
  O  O411  1  0.81910763  0.58613989  0.49693643  1
  O  O412  1  0.11675483  0.26157166  0.62944586  1
  O  O413  1  0.34733417  0.38127804  0.55789557  1
  O  O414  1  0.70505014  0.65162624  0.60013743  1
  O  O415  1  0.05655158  0.30972013  0.52124064  1
  O  O416  1  0.90172481  0.63328846  0.63412606  1
  O  O417  1  0.22484744  0.76033486  0.51841456  1
  O  O418  1  0.85124730  0.21962094  0.64313832  1
  O  O419  1  0.42375201  0.01981881  0.54409673  1
  O  O420  1  0.64970784  0.01372373  0.60665021  1
  O  O421  1  0.61711768  0.95290798  0.66745132  1
  O  O422  1  0.43626972  0.55648529  0.66006253  1
  O  O423  1  0.50905453  0.09116629  0.64777741  1
  O  O424  1  0.93299480  0.61381338  0.57319306  1
  O  O425  1  0.10914415  0.39177052  0.58231381  1
  O  O426  1  0.04840771  0.86503216  0.59376577  1
  O  O427  1  0.00449288  0.14671616  0.56261972  1
  O  O428  1  0.93685346  0.05372614  0.66806636  1
  O  O429  1  0.11826837  0.44987391  0.66167151  1
  O  O430  1  0.50098115  0.14455497  0.59273592  1
  O  O431  1  0.54138596  0.86235960  0.56043615  1
  O  O432  1  0.60593045  0.38882700  0.57462848  1
  O  O433  1  0.44271478  0.61941272  0.58446546  1
  O  O434  1  0.04286400  0.91588687  0.64875575  1
  O  O435  1  0.91910302  0.01710506  0.50266417  1
  O  O436  1  0.90331363  0.99090184  0.60788808  1
  O  O437  1  0.13501416  0.98609982  0.54630581  1
  O  O438  1  0.84173758  0.36135014  0.59961170  1
  O  O439  1  0.20626180  0.64336410  0.56189044  1
  O  O440  1  0.64746504  0.36689063  0.63276082  1
  O  O441  1  0.37391879  0.61157676  0.53087683  1
  O  O442  1  0.70444072  0.79565108  0.64332800  1
  O  O443  1  0.26582754  0.22073685  0.51622775  1
  O  O444  1  0.22549001  0.14216106  0.59104597  1
  O  O445  1  0.81957773  0.86770710  0.55863685  1
  O  O446  1  0.93128960  0.42512171  0.54344570  1
  O  O447  1  0.11540176  0.57686907  0.61456067  1
  O  O448  1  0.32424420  0.18544275  0.64677591  1
  O  O449  1  0.57939500  0.29357655  0.52095017  1
  O  O450  1  0.43166156  0.74619277  0.62937093  1
  O  O451  1  0.22555343  0.31849786  0.82012894  1
  O  O452  1  0.82370630  0.68729798  0.67968499  1
  O  O453  1  0.61568438  0.08133339  0.71532285  1
  O  O454  1  0.42987123  0.91895325  0.78450682  1
  O  O455  1  0.32146454  0.36716978  0.76586071  1
  O  O456  1  0.72339422  0.63646933  0.73370734  1
  O  O457  1  0.93278339  0.23906146  0.69903991  1
  O  O458  1  0.11523656  0.76268594  0.80139637  1
  O  O459  1  0.34167799  0.85945279  0.72911660  1
  O  O460  1  0.69615431  0.14421217  0.77128658  1
  O  O461  1  0.14524215  0.86385463  0.69510158  1
  O  O462  1  0.90041604  0.13540086  0.80661759  1
  O  O463  1  0.20725435  0.29014462  0.68474194  1
  O  O464  1  0.84950591  0.72330885  0.81465690  1
  O  O465  1  0.40065544  0.49124992  0.71860936  1
  O  O466  1  0.64656379  0.50622191  0.77953117  1
  O  O467  1  0.61808590  0.44979166  0.83833944  1
  O  O468  1  0.43698266  0.05382824  0.83200259  1
  O  O469  1  0.50670000  0.59028896  0.82008020  1
  O  O470  1  0.54573296  0.41691782  0.67861025  1
  O  O471  1  0.92975939  0.10721055  0.74707695  1
  O  O472  1  0.11017420  0.89047755  0.75381354  1
  O  O473  1  0.04117719  0.35656542  0.76626154  1
  O  O474  1  0.00113412  0.64369077  0.73510775  1
  O  O475  1  0.93633997  0.55667369  0.83992704  1
  O  O476  1  0.11705165  0.95322693  0.83251947  1
  O  O477  1  0.50129264  0.64378738  0.76493514  1
  O  O478  1  0.54120967  0.35658722  0.73375214  1
  O  O479  1  0.61025729  0.89046961  0.74618237  1
  O  O480  1  0.42974987  0.10715678  0.75290769  1
  O  O481  1  0.04587579  0.41700708  0.82139434  1
  O  O482  1  0.00666897  0.59021808  0.67994791  1
  O  O483  1  0.90056397  0.49118306  0.78140867  1
  O  O484  1  0.14660429  0.50627529  0.72050512  1
  O  O485  1  0.84171211  0.85959973  0.77090493  1
  O  O486  1  0.19610188  0.14426901  0.72871643  1
  O  O487  1  0.64539332  0.86407279  0.80495285  1
  O  O488  1  0.40030799  0.13524699  0.69338959  1
  O  O489  1  0.70737283  0.29019326  0.81525260  1
  O  O490  1  0.34952742  0.72312890  0.68537822  1
  O  O491  1  0.22328105  0.63647342  0.76635908  1
  O  O492  1  0.82144482  0.36704925  0.73416602  1
  O  O493  1  0.92978467  0.91885109  0.71548448  1
  O  O494  1  0.11579683  0.08141533  0.78466303  1
  O  O495  1  0.32381153  0.68747397  0.82039259  1
  O  O496  1  0.72539318  0.31849215  0.67993709  1
  O  O497  1  0.61553684  0.76258815  0.69857064  1
  O  O498  1  0.43280279  0.23902286  0.80097466  1
  O  O499  1  0.82415091  0.18547065  0.85320766  1
  O  O500  1  0.61514809  0.57655344  0.88542951  1
  O  O501  1  0.43096209  0.42494846  0.95654853  1
  O  O502  1  0.31948317  0.86753357  0.94140775  1
  O  O503  1  0.72526789  0.14203735  0.90892557  1
  O  O504  1  0.93154825  0.74628206  0.87062165  1
  O  O505  1  0.07891349  0.29310246  0.97896283  1
  O  O506  1  0.34119857  0.36093112  0.90041434  1
  O  O507  1  0.70591286  0.64338265  0.93807620  1
  O  O508  1  0.14718114  0.36669780  0.86730555  1
  O  O509  1  0.87359594  0.61117727  0.96901593  1
  O  O510  1  0.20435299  0.79584358  0.85673930  1
  O  O511  1  0.76554697  0.22056107  0.98373409  1
  O  O512  1  0.40324830  0.99090389  0.89216456  1
  O  O513  1  0.63483523  0.98590608  0.95371272  1
  O  O514  1  0.41889033  0.01708083  0.99739685  1
  O  O515  1  0.54302717  0.91600996  0.85136013  1
  O  O516  1  0.94257614  0.61922965  0.91547632  1
  O  O517  1  0.10572711  0.38874067  0.92539578  1
  O  O518  1  0.04114041  0.86215130  0.93953487  1
  O  O519  1  0.00057740  0.14443289  0.90732646  1
  O  O520  1  0.50425557  0.14647174  0.93741471  1
  O  O521  1  0.54819493  0.86483842  0.90625815  1
  O  O522  1  0.60874806  0.39147590  0.91770380  1
  O  O523  1  0.43258129  0.61350540  0.92680054  1
  O  O524  1  0.00899645  0.09124517  0.85226274  1
  O  O525  1  0.92352020  0.01951160  0.95589996  1
  O  O526  1  0.14957905  0.01364779  0.89333270  1
  O  O527  1  0.84701419  0.38116920  0.94203384  1
  O  O528  1  0.20512302  0.65169121  0.89984832  1
  O  O529  1  0.55633521  0.30959793  0.97876306  1
  O  O530  1  0.40166247  0.63308744  0.86588204  1
  O  O531  1  0.72475278  0.76024786  0.98159025  1
  O  O532  1  0.35097663  0.21864392  0.85686820  1
  O  O533  1  0.22959018  0.15115726  0.93962869  1
  O  O534  1  0.82675258  0.87148546  0.90783687  1
  O  O535  1  0.93321552  0.42140679  0.88633822  1
  O  O536  1  0.14658371  0.59994564  0.95314637  1
  O  O537  1  0.72901100  0.82682464  0.85215870  1
  O  O538  1  0.61695596  0.26182782  0.87057665  1
  O  O539  1  0.31877887  0.58652839  0.00305130  1
