# generated using pymatgen
data_Li40La18Zr10O67
_symmetry_space_group_name_H-M   'P 1'
_cell_length_a   11.27162600
_cell_length_b   12.64834664
_cell_length_c   54.13392682
_cell_angle_alpha   90.00000000
_cell_angle_beta   90.00000000
_cell_angle_gamma   124.12984495
_symmetry_Int_Tables_number   1
_chemical_formula_structural   Li40La18Zr10O67
_chemical_formula_sum   'Li160 La72 Zr40 O268'
_cell_volume   6388.49550937
_cell_formula_units_Z   4
loop_
 _symmetry_equiv_pos_site_id
 _symmetry_equiv_pos_as_xyz
  1  'x, y, z'
loop_
 _atom_site_type_symbol
 _atom_site_label
 _atom_site_symmetry_multiplicity
 _atom_site_fract_x
 _atom_site_fract_y
 _atom_site_fract_z
 _atom_site_occupancy
  Li  Li0  1  0.85727160  0.47423047  0.08225651  1
  Li  Li1  1  0.20928956  0.03331850  0.07547635  1
  Li  Li2  1  0.02966471  0.44667477  0.05144113  1
  Li  Li3  1  0.04106577  0.05564651  0.10547635  1
  Li  Li4  1  0.69382676  0.39674781  0.16151157  1
  Li  Li5  1  0.35879692  0.61419773  0.16390137  1
  Li  Li6  1  0.46617938  0.62894483  0.02592093  1
  Li  Li7  1  0.52497698  0.80484461  0.13424608  1
  Li  Li8  1  0.27541262  0.76785018  0.14660596  1
  Li  Li9  1  0.69366609  0.82341942  0.01251001  1
  Li  Li10  1  0.41876225  0.56514890  0.11941970  1
  Li  Li11  1  0.68018065  0.99411474  0.03874421  1
  Li  Li12  1  0.28244856  0.26946769  0.09652130  1
  Li  Li13  1  0.77078999  0.23561129  0.06100354  1
  Li  Li14  1  0.13628507  0.91999642  0.12023559  1
  Li  Li15  1  0.88371687  0.51015007  0.03963765  1
  Li  Li16  1  0.02126627  0.69385702  0.13451985  1
  Li  Li17  1  0.94491120  0.70881160  0.01554473  1
  Li  Li18  1  0.35950958  0.47805875  0.07525432  1
  Li  Li19  1  0.69204427  0.02414757  0.08262088  1
  Li  Li20  1  0.53635129  0.45270919  0.10600535  1
  Li  Li21  1  0.51711014  0.04733199  0.05066696  1
  Li  Li22  1  0.19416354  0.89582216  0.16568978  1
  Li  Li23  1  0.86196877  0.11977596  0.16446131  1
  Li  Li24  1  0.77798331  0.50487833  0.12063766  1
  Li  Li25  1  0.30401555  0.00687300  0.02633951  1
  Li  Li26  1  0.24802483  0.48864705  0.02925456  1
  Li  Li27  1  0.78392078  0.00237792  0.12124589  1
  Li  Li28  1  0.86270247  0.98063919  0.25175566  1
  Li  Li29  1  0.19660236  0.53564351  0.25051268  1
  Li  Li30  1  0.04019601  0.95131405  0.22120917  1
  Li  Li31  1  0.02823353  0.55969203  0.27947288  1
  Li  Li32  1  0.69443294  0.89635694  0.33430169  1
  Li  Li33  1  0.36199616  0.11979648  0.33554131  1
  Li  Li34  1  0.51833824  0.19042040  0.19254027  1
  Li  Li35  1  0.52747807  0.31013218  0.30676357  1
  Li  Li36  1  0.27399744  0.27036424  0.31738759  1
  Li  Li37  1  0.77393167  0.27038353  0.18261295  1
  Li  Li38  1  0.42111987  0.06188690  0.29272725  1
  Li  Li39  1  0.63538596  0.42201115  0.20612290  1
  Li  Li40  1  0.28170286  0.77087552  0.26854188  1
  Li  Li41  1  0.78169986  0.77087414  0.23145889  1
  Li  Li42  1  0.13541204  0.42196468  0.29389420  1
  Li  Li43  1  0.92116828  0.06186989  0.20728317  1
  Li  Li44  1  0.01837278  0.19045669  0.30749255  1
  Li  Li45  1  0.02735568  0.31018179  0.19323758  1
  Li  Li46  1  0.36268417  0.98064747  0.24824220  1
  Li  Li47  1  0.69659517  0.53565773  0.24949084  1
  Li  Li48  1  0.53994240  0.95167752  0.27875854  1
  Li  Li49  1  0.52804254  0.55964503  0.22053524  1
  Li  Li50  1  0.19389364  0.39678966  0.33850189  1
  Li  Li51  1  0.85886941  0.61418053  0.33611487  1
  Li  Li52  1  0.77956737  0.00447276  0.29309881  1
  Li  Li53  1  0.27830340  0.50407471  0.20711092  1
  Li  Li54  1  0.27966756  0.00448884  0.20688628  1
  Li  Li55  1  0.77835310  0.50405302  0.29289838  1
  Li  Li56  1  0.85948539  0.47806063  0.42473730  1
  Li  Li57  1  0.19225423  0.02438894  0.41753776  1
  Li  Li58  1  0.03638681  0.45272911  0.39400311  1
  Li  Li59  1  0.01641475  0.04706445  0.44943479  1
  Li  Li60  1  0.52097727  0.69363754  0.36547251  1
  Li  Li61  1  0.44523069  0.70891345  0.48440250  1
  Li  Li62  1  0.19450544  0.82333235  0.48740085  1
  Li  Li63  1  0.77537531  0.76784505  0.35339915  1
  Li  Li64  1  0.38393123  0.51023578  0.46036536  1
  Li  Li65  1  0.63788542  0.91893124  0.37970285  1
  Li  Li66  1  0.27085943  0.23556584  0.43901866  1
  Li  Li67  1  0.78250699  0.26937017  0.40344206  1
  Li  Li68  1  0.18024475  0.99413800  0.46132619  1
  Li  Li69  1  0.91878436  0.56513263  0.38058590  1
  Li  Li70  1  0.96566204  0.62840171  0.47408887  1
  Li  Li71  1  0.02513207  0.80471196  0.36577117  1
  Li  Li72  1  0.35742882  0.47408117  0.41776006  1
  Li  Li73  1  0.70928370  0.03320830  0.42450284  1
  Li  Li74  1  0.53001375  0.44682900  0.44857221  1
  Li  Li75  1  0.54139050  0.05531745  0.39443808  1
  Li  Li76  1  0.74772322  0.48846241  0.47076610  1
  Li  Li77  1  0.28390779  0.00240101  0.37878177  1
  Li  Li78  1  0.27797351  0.50467717  0.37946750  1
  Li  Li79  1  0.80372501  0.00746544  0.47388510  1
  Li  Li80  1  0.19234725  0.30078274  0.58098285  1
  Li  Li81  1  0.80810887  0.73485167  0.56979143  1
  Li  Li82  1  0.99299813  0.31556967  0.55296965  1
  Li  Li83  1  0.97513058  0.71872845  0.60335275  1
  Li  Li84  1  0.35704317  0.37790061  0.66101634  1
  Li  Li85  1  0.69163575  0.15939703  0.66323313  1
  Li  Li86  1  0.60863640  0.17008546  0.52725471  1
  Li  Li87  1  0.52357515  0.96831239  0.63362203  1
  Li  Li88  1  0.77666919  0.00793789  0.64663746  1
  Li  Li89  1  0.37238530  0.95576514  0.51316566  1
  Li  Li90  1  0.63274525  0.21360045  0.61907095  1
  Li  Li91  1  0.36804709  0.77219637  0.53867459  1
  Li  Li92  1  0.76327701  0.50031629  0.59570826  1
  Li  Li93  1  0.28467252  0.53428849  0.56199848  1
  Li  Li94  1  0.91778757  0.86584210  0.62047784  1
  Li  Li95  1  0.15947481  0.27547417  0.53849848  1
  Li  Li96  1  0.03472082  0.08635159  0.63518538  1
  Li  Li97  1  0.08167376  0.04611746  0.51319488  1
  Li  Li98  1  0.69379188  0.29747663  0.57455900  1
  Li  Li99  1  0.35829798  0.75135119  0.58271429  1
  Li  Li100  1  0.51286660  0.32005687  0.60542350  1
  Li  Li101  1  0.53239863  0.72632207  0.55133322  1
  Li  Li102  1  0.85825445  0.88059129  0.66568187  1
  Li  Li103  1  0.19148480  0.65705414  0.66485222  1
  Li  Li104  1  0.27346741  0.27094982  0.62013793  1
  Li  Li105  1  0.75526064  0.78453135  0.52182998  1
  Li  Li106  1  0.86425336  0.30178599  0.52026276  1
  Li  Li107  1  0.26124103  0.77085397  0.62114226  1
  Li  Li108  1  0.18909978  0.79609957  0.75185876  1
  Li  Li109  1  0.85408072  0.24163307  0.75013092  1
  Li  Li110  1  0.01216279  0.82586945  0.72131769  1
  Li  Li111  1  0.02161990  0.21726683  0.77923648  1
  Li  Li112  1  0.35814923  0.88067240  0.83424666  1
  Li  Li113  1  0.69128204  0.65651991  0.83513514  1
  Li  Li114  1  0.53359494  0.58609944  0.69237505  1
  Li  Li115  1  0.52454719  0.46838667  0.80676748  1
  Li  Li116  1  0.77818213  0.50524845  0.81706189  1
  Li  Li117  1  0.27811073  0.50521385  0.68293685  1
  Li  Li118  1  0.63089824  0.71717518  0.79267485  1
  Li  Li119  1  0.41530880  0.35568611  0.70590162  1
  Li  Li120  1  0.77055461  0.00523528  0.76846429  1
  Li  Li121  1  0.27037737  0.00510802  0.73156737  1
  Li  Li122  1  0.91490791  0.35540473  0.79399429  1
  Li  Li123  1  0.13098916  0.71679886  0.70734109  1
  Li  Li124  1  0.03359848  0.58607652  0.80762923  1
  Li  Li125  1  0.02456280  0.46838225  0.69322276  1
  Li  Li126  1  0.68912414  0.79609497  0.74815136  1
  Li  Li127  1  0.35427495  0.24165354  0.74978975  1
  Li  Li128  1  0.51216141  0.82586901  0.77869047  1
  Li  Li129  1  0.52155497  0.21725081  0.72076775  1
  Li  Li130  1  0.85704546  0.37790250  0.83897092  1
  Li  Li131  1  0.19180385  0.15957927  0.83679422  1
  Li  Li132  1  0.27339616  0.77223065  0.79324226  1
  Li  Li133  1  0.77336331  0.27207727  0.70678970  1
  Li  Li134  1  0.77337241  0.77221852  0.70676160  1
  Li  Li135  1  0.27334374  0.27216334  0.79318454  1
  Li  Li136  1  0.19387631  0.29764423  0.92547265  1
  Li  Li137  1  0.85834565  0.75155333  0.91725818  1
  Li  Li138  1  0.01262052  0.32018726  0.89461440  1
  Li  Li139  1  0.03245306  0.72643796  0.94874097  1
  Li  Li140  1  0.53529523  0.08705781  0.86480570  1
  Li  Li141  1  0.58161070  0.04612971  0.98679602  1
  Li  Li142  1  0.87218549  0.95521559  0.98687849  1
  Li  Li143  1  0.27685661  0.00805488  0.85338393  1
  Li  Li144  1  0.65901539  0.27574671  0.96138486  1
  Li  Li145  1  0.41659821  0.86770614  0.87918243  1
  Li  Li146  1  0.78476183  0.53489442  0.93793909  1
  Li  Li147  1  0.26320967  0.50030503  0.90420266  1
  Li  Li148  1  0.86651949  0.77121006  0.96119354  1
  Li  Li149  1  0.13252420  0.21394212  0.88097621  1
  Li  Li150  1  0.10705397  0.16924522  0.97287492  1
  Li  Li151  1  0.02351542  0.96835940  0.86643655  1
  Li  Li152  1  0.69262903  0.30111402  0.91896834  1
  Li  Li153  1  0.30790752  0.73504837  0.93024297  1
  Li  Li154  1  0.49406398  0.31584102  0.94687242  1
  Li  Li155  1  0.47345412  0.72082974  0.89679067  1
  Li  Li156  1  0.36096221  0.29985128  0.97885230  1
  Li  Li157  1  0.76113297  0.77091182  0.87886256  1
  Li  Li158  1  0.77354013  0.27107372  0.87986229  1
  Li  Li159  1  0.25520156  0.78447649  0.97819565  1
  La  La160  1  0.15299548  0.56684131  0.10088877  1
  La  La161  1  0.88722375  0.93769696  0.05634005  1
  La  La162  1  0.39626841  0.18625920  0.14195726  1
  La  La163  1  0.63636616  0.28168754  0.01628039  1
  La  La164  1  0.28674345  0.26143941  0.03522577  1
  La  La165  1  0.77715617  0.25078093  0.12157367  1
  La  La166  1  0.77776820  0.75150815  0.11982238  1
  La  La167  1  0.26870492  0.74386978  0.03351307  1
  La  La168  1  0.66567244  0.56453388  0.05382144  1
  La  La169  1  0.40025847  0.93612382  0.09993994  1
  La  La170  1  0.90924438  0.21480027  0.01399553  1
  La  La171  1  0.15482877  0.31668640  0.14237806  1
  La  La172  1  0.15909604  0.06883212  0.27245556  1
  La  La173  1  0.90207426  0.44126118  0.22853304  1
  La  La174  1  0.39862943  0.68953199  0.31390145  1
  La  La175  1  0.65452159  0.81550584  0.18523973  1
  La  La176  1  0.27879025  0.75365914  0.20720538  1
  La  La177  1  0.77876462  0.75363985  0.29280808  1
  La  La178  1  0.77798143  0.25404251  0.29312338  1
  La  La179  1  0.27794275  0.25402392  0.20688724  1
  La  La180  1  0.65913367  0.06885764  0.22754687  1
  La  La181  1  0.40208201  0.44126347  0.27147849  1
  La  La182  1  0.89843283  0.68940337  0.18608915  1
  La  La183  1  0.15453399  0.81548527  0.31477169  1
  La  La184  1  0.16581495  0.56451515  0.44619235  1
  La  La185  1  0.90069135  0.93614007  0.40009839  1
  La  La186  1  0.40949613  0.21484398  0.48601421  1
  La  La187  1  0.65489501  0.31675807  0.35760927  1
  La  La188  1  0.27717536  0.25072617  0.37841651  1
  La  La189  1  0.78654383  0.26124897  0.46462476  1
  La  La190  1  0.76893448  0.74408640  0.46650249  1
  La  La191  1  0.27798659  0.75151598  0.38018820  1
  La  La192  1  0.65305274  0.56689760  0.39911064  1
  La  La193  1  0.38745076  0.93784399  0.44362177  1
  La  La194  1  0.89632029  0.18632885  0.35806139  1
  La  La195  1  0.13676734  0.28192556  0.48368037  1
  La  La196  1  0.89834664  0.20753520  0.60161057  1
  La  La197  1  0.16425075  0.83697387  0.55672894  1
  La  La198  1  0.65648637  0.59011520  0.64180279  1
  La  La199  1  0.44829036  0.51126246  0.51485959  1
  La  La200  1  0.76505961  0.51063611  0.53428716  1
  La  La201  1  0.27468886  0.52555558  0.62200299  1
  La  La202  1  0.27472049  0.02348977  0.61968715  1
  La  La203  1  0.78923513  0.03866601  0.53410307  1
  La  La204  1  0.37610812  0.20927240  0.55301688  1
  La  La205  1  0.65263460  0.84117927  0.59994400  1
  La  La206  1  0.13762651  0.55477216  0.51514791  1
  La  La207  1  0.89698856  0.45972374  0.64241514  1
  La  La208  1  0.89251166  0.70743323  0.77242662  1
  La  La209  1  0.14950582  0.33497531  0.72869275  1
  La  La210  1  0.65338348  0.08623662  0.81367254  1
  La  La211  1  0.39804791  0.96120208  0.68516667  1
  La  La212  1  0.77313582  0.02227665  0.70721553  1
  La  La213  1  0.27315108  0.02240279  0.79279327  1
  La  La214  1  0.27368825  0.52243305  0.79319843  1
  La  La215  1  0.77378460  0.52243745  0.70679903  1
  La  La216  1  0.39257689  0.70743760  0.72758949  1
  La  La217  1  0.64945560  0.33500464  0.77130169  1
  La  La218  1  0.15344541  0.08626504  0.68631705  1
  La  La219  1  0.89804618  0.96122150  0.81487436  1
  La  La220  1  0.87587208  0.20945443  0.94699008  1
  La  La221  1  0.15241904  0.84143037  0.90010340  1
  La  La222  1  0.63643665  0.55387040  0.98487401  1
  La  La223  1  0.39697190  0.45989349  0.85755781  1
  La  La224  1  0.77470694  0.52562438  0.87798285  1
  La  La225  1  0.26482368  0.51089496  0.96569692  1
  La  La226  1  0.28928876  0.03880221  0.96597507  1
  La  La227  1  0.77472915  0.02367178  0.88031808  1
  La  La228  1  0.39845890  0.20788952  0.89833480  1
  La  La229  1  0.66406983  0.83713915  0.94329592  1
  La  La230  1  0.15656841  0.59021037  0.85820976  1
  La  La231  1  0.94787878  0.51115725  0.98514486  1
  Zr  Zr232  1  0.02726233  0.50424064  0.16414690  1
  Zr  Zr233  1  0.52406511  0.74762337  0.07575001  1
  Zr  Zr234  1  0.52719838  0.25085792  0.07933380  1
  Zr  Zr235  1  0.02642472  0.00217402  0.16350489  1
  Zr  Zr236  1  0.03163367  0.75839914  0.07550989  1
  Zr  Zr237  1  0.02796756  0.25172946  0.07883948  1
  Zr  Zr238  1  0.52642368  0.50292874  0.16334746  1
  Zr  Zr239  1  0.52915718  0.00176022  0.16395179  1
  Zr  Zr240  1  0.02910687  0.00170721  0.33605998  1
  Zr  Zr241  1  0.52970335  0.25490647  0.24980798  1
  Zr  Zr242  1  0.52926385  0.75443436  0.24994023  1
  Zr  Zr243  1  0.02655526  0.50295368  0.33668110  1
  Zr  Zr244  1  0.02970458  0.25490107  0.25020541  1
  Zr  Zr245  1  0.02924961  0.75438746  0.25007422  1
  Zr  Zr246  1  0.52651152  0.00221597  0.33651924  1
  Zr  Zr247  1  0.52729589  0.50426848  0.33585731  1
  Zr  Zr248  1  0.53177220  0.75846006  0.42450159  1
  Zr  Zr249  1  0.52794244  0.25173759  0.42111987  1
  Zr  Zr250  1  0.02413355  0.74752585  0.42427964  1
  Zr  Zr251  1  0.02724156  0.25074492  0.42067913  1
  Zr  Zr252  1  0.02503873  0.27248146  0.66457234  1
  Zr  Zr253  1  0.52824587  0.02984061  0.57502568  1
  Zr  Zr254  1  0.52320196  0.52370215  0.57947178  1
  Zr  Zr255  1  0.02610343  0.77432541  0.66341785  1
  Zr  Zr256  1  0.01941773  0.01635029  0.57564500  1
  Zr  Zr257  1  0.02210490  0.52417463  0.57921976  1
  Zr  Zr258  1  0.52533050  0.27316537  0.66312892  1
  Zr  Zr259  1  0.52267145  0.77451895  0.66389643  1
  Zr  Zr260  1  0.02285728  0.77469740  0.83612934  1
  Zr  Zr261  1  0.52231645  0.52175421  0.74978736  1
  Zr  Zr262  1  0.52295054  0.02209939  0.74980441  1
  Zr  Zr263  1  0.02526848  0.27321509  0.83686377  1
  Zr  Zr264  1  0.02230997  0.52176389  0.75020923  1
  Zr  Zr265  1  0.02291223  0.02207826  0.75020902  1
  Zr  Zr266  1  0.52606520  0.77436608  0.83662740  1
  Zr  Zr267  1  0.52508964  0.27259309  0.83539498  1
  Zr  Zr268  1  0.51939345  0.01681084  0.92430864  1
  Zr  Zr269  1  0.52215552  0.52479755  0.92066256  1
  Zr  Zr270  1  0.02805462  0.02998045  0.92505569  1
  Zr  Zr271  1  0.02327036  0.52396309  0.92053533  1
  O  O272  1  0.82459320  0.93043176  0.14772986  1
  O  O273  1  0.42367396  0.16413634  0.04463215  1
  O  O274  1  0.62014884  0.33381832  0.11359039  1
  O  O275  1  0.72801741  0.88500326  0.09227625  1
  O  O276  1  0.33144384  0.60819006  0.05815660  1
  O  O277  1  0.22343785  0.15162453  0.99781984  1
  O  O278  1  0.93636377  0.49441089  0.12898106  1
  O  O279  1  0.70648532  0.38380093  0.05925721  1
  O  O280  1  0.34885016  0.10452540  0.10005165  1
  O  O281  1  0.91529912  0.39873451  0.02364156  1
  O  O282  1  0.15123240  0.12084385  0.13384764  1
  O  O283  1  0.83650405  0.99378708  0.01796956  1
  O  O284  1  0.20092251  0.53506397  0.14285917  1
  O  O285  1  0.63745676  0.74798792  0.04424853  1
  O  O286  1  0.40221757  0.73999157  0.10638774  1
  O  O287  1  0.61568846  0.19885091  0.16011518  1
  O  O288  1  0.54403242  0.66438419  0.14754664  1
  O  O289  1  0.12061938  0.14256693  0.07298324  1
  O  O290  1  0.94086785  0.36213983  0.08289321  1
  O  O291  1  0.01011154  0.89636644  0.09320562  1
  O  O292  1  0.05004843  0.60923469  0.06229709  1
  O  O293  1  0.93379240  0.30497062  0.16109929  1
  O  O294  1  0.55187682  0.61030364  0.09223589  1
  O  O295  1  0.51060474  0.89474871  0.06140009  1
  O  O296  1  0.44310646  0.36304820  0.07462353  1
  O  O297  1  0.61246441  0.13825757  0.08372199  1
  O  O298  1  0.00871865  0.83952152  0.14844736  1
  O  O299  1  0.10481609  0.70431798  0.00538588  1
  O  O300  1  0.15121300  0.76492252  0.10768022  1
  O  O301  1  0.91456720  0.76503708  0.04659294  1
  O  O302  1  0.21180404  0.39662085  0.09912691  1
  O  O303  1  0.84650441  0.11454728  0.06107791  1
  O  O304  1  0.40512347  0.38874481  0.13276120  1
  O  O305  1  0.66468954  0.12414597  0.02799404  1
  O  O306  1  0.34795749  0.96033517  0.14331549  1
  O  O307  1  0.76713398  0.53138171  0.01698153  1
  O  O308  1  0.82994168  0.61771876  0.09228153  1
  O  O309  1  0.23306375  0.89263872  0.05906922  1
  O  O310  1  0.12038457  0.33265352  0.04354825  1
  O  O311  1  0.93995019  0.17477502  0.11395905  1
  O  O312  1  0.72860774  0.56996674  0.14726978  1
  O  O313  1  0.46025133  0.47271460  0.02317585  1
  O  O314  1  0.62070993  0.00992581  0.12911326  1
  O  O315  1  0.82696322  0.43703340  0.32014032  1
  O  O316  1  0.22851315  0.06806578  0.17979730  1
  O  O317  1  0.43629193  0.67354580  0.21533961  1
  O  O318  1  0.62234316  0.83597962  0.28459657  1
  O  O319  1  0.73049129  0.38858813  0.26583141  1
  O  O320  1  0.32847527  0.11855441  0.23384419  1
  O  O321  1  0.11954326  0.51593370  0.19872523  1
  O  O322  1  0.93702471  0.99245221  0.30142715  1
  O  O323  1  0.70982680  0.89535130  0.22904760  1
  O  O324  1  0.35521789  0.61106647  0.27137585  1
  O  O325  1  0.90674911  0.89109703  0.19494501  1
  O  O326  1  0.15159919  0.62020205  0.30648170  1
  O  O327  1  0.84564005  0.46459736  0.18465281  1
  O  O328  1  0.20327514  0.03245595  0.31482208  1
  O  O329  1  0.65112480  0.26363694  0.21873011  1
  O  O330  1  0.40522552  0.24855131  0.27973602  1
  O  O331  1  0.43461407  0.80214885  0.16723756  1
  O  O332  1  0.61495600  0.70148246  0.33219099  1
  O  O333  1  0.54603752  0.16568574  0.32030844  1
  O  O334  1  0.50631556  0.33855804  0.17875998  1
  O  O335  1  0.12206336  0.64759459  0.24693359  1
  O  O336  1  0.94172892  0.86438335  0.25375206  1
  O  O337  1  0.00999934  0.39831367  0.26614780  1
  O  O338  1  0.05083397  0.11155618  0.23491569  1
  O  O339  1  0.11496572  0.70148783  0.16780023  1
  O  O340  1  0.93462011  0.80212514  0.33277347  1
  O  O341  1  0.55081491  0.11154346  0.26509618  1
  O  O342  1  0.50999641  0.39831399  0.23387686  1
  O  O343  1  0.44169910  0.86441191  0.24625355  1
  O  O344  1  0.62206339  0.64761797  0.25308010  1
  O  O345  1  0.00642039  0.33858227  0.32127122  1
  O  O346  1  0.04605737  0.16570174  0.17968323  1
  O  O347  1  0.15109770  0.26358882  0.28129012  1
  O  O348  1  0.90525406  0.24857534  0.22028057  1
  O  O349  1  0.20983786  0.89534475  0.27096409  1
  O  O350  1  0.85521342  0.61103878  0.22862986  1
  O  O351  1  0.40675312  0.89117662  0.30507374  1
  O  O352  1  0.65147233  0.62017673  0.19354943  1
  O  O353  1  0.34567246  0.46463706  0.31535472  1
  O  O354  1  0.70333018  0.03249116  0.18519720  1
  O  O355  1  0.82843303  0.11856752  0.26616489  1
  O  O356  1  0.23050292  0.38862828  0.23419233  1
  O  O357  1  0.12239929  0.83600441  0.21540992  1
  O  O358  1  0.93633841  0.67353015  0.28467134  1
  O  O359  1  0.72857162  0.06802554  0.32022336  1
  O  O360  1  0.32686199  0.43701100  0.17988135  1
  O  O361  1  0.43713482  0.99249135  0.19859230  1
  O  O362  1  0.61963051  0.51592479  0.30129160  1
  O  O363  1  0.22860785  0.56985709  0.35280206  1
  O  O364  1  0.43986941  0.17483184  0.38602501  1
  O  O365  1  0.62056170  0.33268106  0.45640962  1
  O  O366  1  0.73318052  0.89263543  0.44093799  1
  O  O367  1  0.32982960  0.61761840  0.40778009  1
  O  O368  1  0.12066599  0.00987458  0.37089106  1
  O  O369  1  0.95992011  0.47188380  0.47696557  1
  O  O370  1  0.71183504  0.39664743  0.40086139  1
  O  O371  1  0.34673602  0.11476762  0.43896578  1
  O  O372  1  0.90521782  0.38879460  0.36726249  1
  O  O373  1  0.16473650  0.12414311  0.47202395  1
  O  O374  1  0.84786907  0.96030692  0.35672895  1
  O  O375  1  0.26767839  0.53176909  0.48298216  1
  O  O376  1  0.65132204  0.76495461  0.39229712  1
  O  O377  1  0.41476867  0.76528688  0.45340046  1
  O  O378  1  0.43382746  0.30499816  0.33890784  1
  O  O379  1  0.60505613  0.70443161  0.49461102  1
  O  O380  1  0.50898036  0.83961641  0.35155738  1
  O  O381  1  0.11250587  0.13815194  0.41631493  1
  O  O382  1  0.94305672  0.36295571  0.42538909  1
  O  O383  1  0.01071402  0.89465407  0.43867615  1
  O  O384  1  0.05189229  0.61027349  0.40777240  1
  O  O385  1  0.11571026  0.19881255  0.33989888  1
  O  O386  1  0.55016061  0.60925204  0.43770066  1
  O  O387  1  0.51061583  0.89634323  0.40673132  1
  O  O388  1  0.44089996  0.36215865  0.41710665  1
  O  O389  1  0.62050730  0.14239076  0.42696712  1
  O  O390  1  0.04412437  0.66441031  0.35247268  1
  O  O391  1  0.13732860  0.74747644  0.45576675  1
  O  O392  1  0.90234562  0.74006377  0.39364679  1
  O  O393  1  0.20656162  0.38375336  0.44075223  1
  O  O394  1  0.84896782  0.10449686  0.39995323  1
  O  O395  1  0.41566007  0.39888630  0.47636335  1
  O  O396  1  0.65147157  0.12143599  0.36610346  1
  O  O397  1  0.33685697  0.99383225  0.48199141  1
  O  O398  1  0.70100807  0.53524489  0.35714967  1
  O  O399  1  0.83150623  0.60809007  0.44186428  1
  O  O400  1  0.22811941  0.88508514  0.40777385  1
  O  O401  1  0.12019232  0.33369687  0.38643660  1
  O  O402  1  0.92373283  0.16408982  0.45537094  1
  O  O403  1  0.32475359  0.93041402  0.35232312  1
  O  O404  1  0.43640227  0.49445043  0.37103321  1
  O  O405  1  0.72449993  0.15185296  0.50214818  1
  O  O406  1  0.22875167  0.84682302  0.64793203  1
  O  O407  1  0.64428474  0.62258164  0.54575568  1
  O  O408  1  0.43159982  0.44158278  0.61325623  1
  O  O409  1  0.32638910  0.89060855  0.59190405  1
  O  O410  1  0.72536957  0.16964874  0.55861661  1
  O  O411  1  0.82077529  0.62114954  0.49609607  1
  O  O412  1  0.11694259  0.28299071  0.62937712  1
  O  O413  1  0.34407405  0.40281481  0.55782976  1
  O  O414  1  0.70495324  0.67002382  0.59960719  1
  O  O415  1  0.04946779  0.32347341  0.51990711  1
  O  O416  1  0.90059092  0.65367936  0.63409996  1
  O  O417  1  0.22326245  0.77934834  0.51784022  1
  O  O418  1  0.85161568  0.24084205  0.64290880  1
  O  O419  1  0.41745586  0.03644564  0.54415786  1
  O  O420  1  0.64892849  0.03301182  0.60588075  1
  O  O421  1  0.43578126  0.57702580  0.65997771  1
  O  O422  1  0.50858509  0.11201853  0.64739158  1
  O  O423  1  0.92899297  0.63217442  0.57233550  1
  O  O424  1  0.10572013  0.41026566  0.58188311  1
  O  O425  1  0.04961503  0.88670453  0.59407882  1
  O  O426  1  0.00167330  0.16503982  0.56225673  1
  O  O427  1  0.11801054  0.47120110  0.66153483  1
  O  O428  1  0.49948913  0.16415919  0.59221799  1
  O  O429  1  0.54101349  0.88298030  0.55903365  1
  O  O430  1  0.60295035  0.40946994  0.57393293  1
  O  O431  1  0.44162839  0.64043057  0.58424079  1
  O  O432  1  0.04354810  0.93722940  0.64878993  1
  O  O433  1  0.86955124  0.96808736  0.50370767  1
  O  O434  1  0.90351971  0.01313524  0.60850888  1
  O  O435  1  0.12431562  0.99910767  0.54609697  1
  O  O436  1  0.83747078  0.37943147  0.59913919  1
  O  O437  1  0.20206453  0.66121734  0.56142261  1
  O  O438  1  0.64529512  0.38652244  0.63238924  1
  O  O439  1  0.36826298  0.62739838  0.53051947  1
  O  O440  1  0.70413341  0.81538769  0.64307664  1
  O  O441  1  0.26214156  0.23522397  0.51785855  1
  O  O442  1  0.22312008  0.16226015  0.59113688  1
  O  O443  1  0.81159665  0.88802373  0.56092501  1
  O  O444  1  0.92407785  0.44197627  0.54318355  1
  O  O445  1  0.11265508  0.59476797  0.61418037  1
  O  O446  1  0.32306793  0.20582465  0.64684958  1
  O  O447  1  0.57369406  0.30795135  0.52234778  1
  O  O448  1  0.42859213  0.76556189  0.62945151  1
  O  O449  1  0.22564608  0.34034912  0.82038883  1
  O  O450  1  0.82345690  0.70818578  0.67968277  1
  O  O451  1  0.61600681  0.10249579  0.71523372  1
  O  O452  1  0.43053874  0.94031370  0.78452653  1
  O  O453  1  0.32147305  0.38793456  0.76593280  1
  O  O454  1  0.72337065  0.65772867  0.73376665  1
  O  O455  1  0.93235069  0.25985802  0.69900150  1
  O  O456  1  0.11594918  0.78426465  0.80154705  1
  O  O457  1  0.34191297  0.88106734  0.72906595  1
  O  O458  1  0.69681078  0.16555480  0.77121927  1
  O  O459  1  0.14515317  0.88486786  0.69503448  1
  O  O460  1  0.90050727  0.15586399  0.80661864  1
  O  O461  1  0.20685782  0.31135672  0.68476512  1
  O  O462  1  0.84994228  0.74428563  0.81467719  1
  O  O463  1  0.40074170  0.51268073  0.71864163  1
  O  O464  1  0.64654891  0.52742506  0.77963717  1
  O  O465  1  0.61736418  0.97375722  0.66703749  1
  O  O466  1  0.43704031  0.07509740  0.83194214  1
  O  O467  1  0.50673636  0.61137371  0.82022907  1
  O  O468  1  0.54531208  0.43755825  0.67849234  1
  O  O469  1  0.92999858  0.12872025  0.74698397  1
  O  O470  1  0.11048851  0.91199515  0.75384973  1
  O  O471  1  0.04118599  0.37796304  0.76616570  1
  O  O472  1  0.00099890  0.66502843  0.73498573  1
  O  O473  1  0.93710506  0.07493246  0.66802699  1
  O  O474  1  0.11742059  0.97385881  0.83301585  1
  O  O475  1  0.50097892  0.66502334  0.76501447  1
  O  O476  1  0.54119433  0.37796267  0.73381125  1
  O  O477  1  0.61056962  0.91207289  0.74617583  1
  O  O478  1  0.42995724  0.12872137  0.75303029  1
  O  O479  1  0.04514343  0.43747808  0.82147961  1
  O  O480  1  0.00664582  0.61125023  0.67978966  1
  O  O481  1  0.90073187  0.51273318  0.78135451  1
  O  O482  1  0.14656247  0.52746339  0.72035943  1
  O  O483  1  0.84190580  0.88103914  0.77096553  1
  O  O484  1  0.19671495  0.16541890  0.72878118  1
  O  O485  1  0.64513390  0.88476606  0.80497555  1
  O  O486  1  0.40053018  0.15593060  0.69338336  1
  O  O487  1  0.70685813  0.31138238  0.81521913  1
  O  O488  1  0.34980111  0.74429717  0.68536810  1
  O  O489  1  0.22329692  0.65773004  0.76625277  1
  O  O490  1  0.82147395  0.38791337  0.73406409  1
  O  O491  1  0.93042872  0.94027494  0.71549246  1
  O  O492  1  0.11601010  0.10246471  0.78478532  1
  O  O493  1  0.32336940  0.70806945  0.82033524  1
  O  O494  1  0.72566591  0.34030849  0.67961973  1
  O  O495  1  0.61565100  0.78400902  0.69850460  1
  O  O496  1  0.43239774  0.26001752  0.80098466  1
  O  O497  1  0.82296363  0.20589606  0.85315602  1
  O  O498  1  0.61288563  0.59467617  0.88570355  1
  O  O499  1  0.42370988  0.44259560  0.95665536  1
  O  O500  1  0.31156644  0.88841272  0.93904743  1
  O  O501  1  0.72328908  0.16284022  0.90890150  1
  O  O502  1  0.92894109  0.76590696  0.87059690  1
  O  O503  1  0.07338514  0.30811534  0.97766170  1
  O  O504  1  0.33736222  0.37966835  0.90083496  1
  O  O505  1  0.70203493  0.66139876  0.93849633  1
  O  O506  1  0.14516473  0.38667606  0.86761257  1
  O  O507  1  0.86751997  0.62699211  0.96947861  1
  O  O508  1  0.20455673  0.81563505  0.85697731  1
  O  O509  1  0.76140125  0.23532634  0.98212847  1
  O  O510  1  0.40330463  0.01373286  0.89140436  1
  O  O511  1  0.62392155  0.99919603  0.95387044  1
  O  O512  1  0.61808980  0.47124366  0.83842304  1
  O  O513  1  0.36951520  0.96807601  0.99632332  1
  O  O514  1  0.54325010  0.93741884  0.85111027  1
  O  O515  1  0.94184386  0.64075335  0.91577931  1
  O  O516  1  0.10305948  0.40977932  0.92607767  1
  O  O517  1  0.04067920  0.88298940  0.94100143  1
  O  O518  1  0.99937857  0.16437958  0.90784442  1
  O  O519  1  0.93595442  0.57718821  0.84003994  1
  O  O520  1  0.50165362  0.16554502  0.93764817  1
  O  O521  1  0.54970431  0.88808212  0.90573982  1
  O  O522  1  0.60590892  0.41077173  0.91805509  1
  O  O523  1  0.42942886  0.63323682  0.92761663  1
  O  O524  1  0.00861108  0.11217977  0.85263632  1
  O  O525  1  0.91675675  0.03624837  0.95590130  1
  O  O526  1  0.14883459  0.03336749  0.89423430  1
  O  O527  1  0.84405547  0.40296126  0.94216476  1
  O  O528  1  0.20514392  0.67017256  0.90041766  1
  O  O529  1  0.54765336  0.32256867  0.98004515  1
  O  O530  1  0.40078195  0.65377509  0.86594598  1
  O  O531  1  0.72228751  0.77882083  0.98212594  1
  O  O532  1  0.35175922  0.24099333  0.85707946  1
  O  O533  1  0.22499691  0.17004548  0.94162650  1
  O  O534  1  0.82640079  0.89085850  0.90812399  1
  O  O535  1  0.93164892  0.44170603  0.88677126  1
  O  O536  1  0.14425981  0.62285017  0.95427104  1
  O  O537  1  0.72890315  0.84732089  0.85209987  1
  O  O538  1  0.61710202  0.28318578  0.87060942  1
  O  O539  1  0.32093313  0.62147972  0.00391860  1
