# generated using pymatgen
data_Li39La15Zr10O62
_symmetry_space_group_name_H-M   'P 1'
_cell_length_a   11.27162600
_cell_length_b   12.64834664
_cell_length_c   49.10550558
_cell_angle_alpha   90.00000000
_cell_angle_beta   90.00000000
_cell_angle_gamma   124.12984495
_symmetry_Int_Tables_number   1
_chemical_formula_structural   Li39La15Zr10O62
_chemical_formula_sum   'Li156 La60 Zr40 O248'
_cell_volume   5795.07751063
_cell_formula_units_Z   4
loop_
 _symmetry_equiv_pos_site_id
 _symmetry_equiv_pos_as_xyz
  1  'x, y, z'
loop_
 _atom_site_type_symbol
 _atom_site_label
 _atom_site_symmetry_multiplicity
 _atom_site_fract_x
 _atom_site_fract_y
 _atom_site_fract_z
 _atom_site_occupancy
  Li  Li0  1  0.90730888  0.42677890  0.06376162  1
  Li  Li1  1  0.21673312  0.02286664  0.08082813  1
  Li  Li2  1  0.29707685  0.68471129  0.03437995  1
  Li  Li3  1  0.03577101  0.01914375  0.09646587  1
  Li  Li4  1  0.74099276  0.34707852  0.15326668  1
  Li  Li5  1  0.40616683  0.56276649  0.15542249  1
  Li  Li6  1  0.49791728  0.60358277  0.01448978  1
  Li  Li7  1  0.57243792  0.75533488  0.12468216  1
  Li  Li8  1  0.32274058  0.70344260  0.13578855  1
  Li  Li9  1  0.81851165  0.21393184  0.17681208  1
  Li  Li10  1  0.46750695  0.50782892  0.10402742  1
  Li  Li11  1  0.71311947  0.91987997  0.01567945  1
  Li  Li12  1  0.34180975  0.26653086  0.08107383  1
  Li  Li13  1  0.82997135  0.22310510  0.04136008  1
  Li  Li14  1  0.17885881  0.85424898  0.10800993  1
  Li  Li15  1  0.93506507  0.49782761  0.01938245  1
  Li  Li16  1  0.06403203  0.63663671  0.12339675  1
  Li  Li17  1  0.14603341  0.81858687  0.00930158  1
  Li  Li18  1  0.34928903  0.43446716  0.04633053  1
  Li  Li19  1  0.74570984  0.99500114  0.06072235  1
  Li  Li20  1  0.59386418  0.39503357  0.09288369  1
  Li  Li21  1  0.47957863  0.94819316  0.02677525  1
  Li  Li22  1  0.24086955  0.84296569  0.15693341  1
  Li  Li23  1  0.90783880  0.06707095  0.15542995  1
  Li  Li24  1  0.82411816  0.45369843  0.10772160  1
  Li  Li25  1  0.30737309  0.97843754  0.04126926  1
  Li  Li26  1  0.13802839  0.45701327  0.02042612  1
  Li  Li27  1  0.81442221  0.95571902  0.10894049  1
  Li  Li28  1  0.90829358  0.92770651  0.25183365  1
  Li  Li29  1  0.24089004  0.48160910  0.25033406  1
  Li  Li30  1  0.08188900  0.89975773  0.21879984  1
  Li  Li31  1  0.07764671  0.50737675  0.28272747  1
  Li  Li32  1  0.74369616  0.84774164  0.34235862  1
  Li  Li33  1  0.40908394  0.06767846  0.34462955  1
  Li  Li34  1  0.56010506  0.13913673  0.18692973  1
  Li  Li35  1  0.57562727  0.25903324  0.31254887  1
  Li  Li36  1  0.31954763  0.21527992  0.32407412  1
  Li  Li37  1  0.82142508  0.72081473  0.36569228  1
  Li  Li38  1  0.46830971  0.00889700  0.29765448  1
  Li  Li39  1  0.68131983  0.36731772  0.20173324  1
  Li  Li40  1  0.32716796  0.71591580  0.27071984  1
  Li  Li41  1  0.82575658  0.71117390  0.23039607  1
  Li  Li42  1  0.18075180  0.36606336  0.29933688  1
  Li  Li43  1  0.96854129  0.01214949  0.20260328  1
  Li  Li44  1  0.05815850  0.13556799  0.31412126  1
  Li  Li45  1  0.07403825  0.25956621  0.18789758  1
  Li  Li46  1  0.40804515  0.92807661  0.24829181  1
  Li  Li47  1  0.74055858  0.48106197  0.25051996  1
  Li  Li48  1  0.58355169  0.89811681  0.28218260  1
  Li  Li49  1  0.57410652  0.50683676  0.21799547  1
  Li  Li50  1  0.24075190  0.34609004  0.34757377  1
  Li  Li51  1  0.90629543  0.56359271  0.34635836  1
  Li  Li52  1  0.82289613  0.95275913  0.29754680  1
  Li  Li53  1  0.32306470  0.45358526  0.20312860  1
  Li  Li54  1  0.32111316  0.95229654  0.20273714  1
  Li  Li55  1  0.82548954  0.45484663  0.29806062  1
  Li  Li56  1  0.85276165  0.43496264  0.45445268  1
  Li  Li57  1  0.25626066  0.99210509  0.43733160  1
  Li  Li58  1  0.09980719  0.39289359  0.40834600  1
  Li  Li59  1  0.94307975  0.92664825  0.48542758  1
  Li  Li60  1  0.56162081  0.63451227  0.37635613  1
  Li  Li61  1  0.65792275  0.81280711  0.48933745  1
  Li  Li62  1  0.44293242  0.49876644  0.48003707  1
  Li  Li63  1  0.68651173  0.85350214  0.39093504  1
  Li  Li64  1  0.33914212  0.21946144  0.45819323  1
  Li  Li65  1  0.84845969  0.26522563  0.41966561  1
  Li  Li66  1  0.23327815  0.96532567  0.48266784  1
  Li  Li67  1  0.97041839  0.50239301  0.39782143  1
  Li  Li68  1  0.00214547  0.59929840  0.48701075  1
  Li  Li69  1  0.06839400  0.75148953  0.37686833  1
  Li  Li70  1  0.41111495  0.42478531  0.43593525  1
  Li  Li71  1  0.71780486  0.01990212  0.41946345  1
  Li  Li72  1  0.79614934  0.68240786  0.46667810  1
  Li  Li73  1  0.53712049  0.01690809  0.40399103  1
  Li  Li74  1  0.63217606  0.45296738  0.47880912  1
  Li  Li75  1  0.31535552  0.95342569  0.39122591  1
  Li  Li76  1  0.32602915  0.45237473  0.39265183  1
  Li  Li77  1  0.81307953  0.97935899  0.45801041  1
  Li  Li78  1  0.23053910  0.17795515  0.56527216  1
  Li  Li79  1  0.90765996  0.60219253  0.56219764  1
  Li  Li80  1  0.96129654  0.11855584  0.52196446  1
  Li  Li81  1  0.06033099  0.57079224  0.59355579  1
  Li  Li82  1  0.38612613  0.25736786  0.65356215  1
  Li  Li83  1  0.71663015  0.04181794  0.65604400  1
  Li  Li84  1  0.63309098  0.99878734  0.51472333  1
  Li  Li85  1  0.54239683  0.84228792  0.62474795  1
  Li  Li86  1  0.79247921  0.91192509  0.63584460  1
  Li  Li87  1  0.30108963  0.38423496  0.67654297  1
  Li  Li88  1  0.66056394  0.09543172  0.60441112  1
  Li  Li89  1  0.43020073  0.70832095  0.51465118  1
  Li  Li90  1  0.79229837  0.34701981  0.58079030  1
  Li  Li91  1  0.29416265  0.37221866  0.54098413  1
  Li  Li92  1  0.95066914  0.73368602  0.60226341  1
  Li  Li93  1  0.20086145  0.12873826  0.51852493  1
  Li  Li94  1  0.04567258  0.95044662  0.62094487  1
  Li  Li95  1  0.02481584  0.79840542  0.50123474  1
  Li  Li96  1  0.78104744  0.17128847  0.54648931  1
  Li  Li97  1  0.37901049  0.61393762  0.56094710  1
  Li  Li98  1  0.53270442  0.20841222  0.59255381  1
  Li  Li99  1  0.55228538  0.59640700  0.53078564  1
  Li  Li100  1  0.88397920  0.75874580  0.65417711  1
  Li  Li101  1  0.21795099  0.53549354  0.65493640  1
  Li  Li102  1  0.29740265  0.14403818  0.60776838  1
  Li  Li103  1  0.80514027  0.65232750  0.52321167  1
  Li  Li104  1  0.77453134  0.87533813  0.53525256  1
  Li  Li105  1  0.30141083  0.64382915  0.60842803  1
  Li  Li106  1  0.21431261  0.67073040  0.75178808  1
  Li  Li107  1  0.88124727  0.11565153  0.75005892  1
  Li  Li108  1  0.03970142  0.70048823  0.71786145  1
  Li  Li109  1  0.04676487  0.09051702  0.78221803  1
  Li  Li110  1  0.38366377  0.75512641  0.84309247  1
  Li  Li111  1  0.71648619  0.53057705  0.84459829  1
  Li  Li112  1  0.55993203  0.45694076  0.68679246  1
  Li  Li113  1  0.54977351  0.33949473  0.81238020  1
  Li  Li114  1  0.80605150  0.38340053  0.82326294  1
  Li  Li115  1  0.30196126  0.89369716  0.86433953  1
  Li  Li116  1  0.65523442  0.58586500  0.79744622  1
  Li  Li117  1  0.44188321  0.22524327  0.70144244  1
  Li  Li118  1  0.79674786  0.88131374  0.76978100  1
  Li  Li119  1  0.29558221  0.88646898  0.72971682  1
  Li  Li120  1  0.94138285  0.23087935  0.79858257  1
  Li  Li121  1  0.15656462  0.58807063  0.70244668  1
  Li  Li122  1  0.06476456  0.46055589  0.81299746  1
  Li  Li123  1  0.05003443  0.34221997  0.68714097  1
  Li  Li124  1  0.71476215  0.66897632  0.74780662  1
  Li  Li125  1  0.38081024  0.11603687  0.75004664  1
  Li  Li126  1  0.54102866  0.69956937  0.78181603  1
  Li  Li127  1  0.54842426  0.09057637  0.71747597  1
  Li  Li128  1  0.88519768  0.25459127  0.84687735  1
  Li  Li129  1  0.21832442  0.03674025  0.84482556  1
  Li  Li130  1  0.30133485  0.64554955  0.79732318  1
  Li  Li131  1  0.80027739  0.14529725  0.70262396  1
  Li  Li132  1  0.80040735  0.64733305  0.70172902  1
  Li  Li133  1  0.29985515  0.14462555  0.79734149  1
  Li  Li134  1  0.27520071  0.16680970  0.95402735  1
  Li  Li135  1  0.87588364  0.60447884  0.93931069  1
  Li  Li136  1  0.02772196  0.20435778  0.90712395  1
  Li  Li137  1  0.14556008  0.65363625  0.97361455  1
  Li  Li138  1  0.55963630  0.96110767  0.87665745  1
  Li  Li139  1  0.47784676  0.78299746  0.99102217  1
  Li  Li140  1  0.68990787  0.10143966  0.98072479  1
  Li  Li141  1  0.44617975  0.74496016  0.89235272  1
  Li  Li142  1  0.79469639  0.37756995  0.95890936  1
  Li  Li143  1  0.28152611  0.33287963  0.91884698  1
  Li  Li144  1  0.91095289  0.67855466  0.98441423  1
  Li  Li145  1  0.15503907  0.09053469  0.89620814  1
  Li  Li146  1  0.12474243  0.99881597  0.98551182  1
  Li  Li147  1  0.05335051  0.84553738  0.87542058  1
  Li  Li148  1  0.71667178  0.17290900  0.93626868  1
  Li  Li149  1  0.40835768  0.57786873  0.91959057  1
  Li  Li150  1  0.33040453  0.91908849  0.96633737  1
  Li  Li151  1  0.58879427  0.57945582  0.90374989  1
  Li  Li152  1  0.49322910  0.14747675  0.98033500  1
  Li  Li153  1  0.81049270  0.64421551  0.89114331  1
  Li  Li154  1  0.79858492  0.14529884  0.89236330  1
  Li  Li155  1  0.31549029  0.62252396  0.95891067  1
  La  La156  1  0.20213797  0.51936843  0.08529372  1
  La  La157  1  0.95058555  0.90020219  0.03760557  1
  La  La158  1  0.44497998  0.13992126  0.12942521  1
  La  La159  1  0.69986290  0.76660658  0.17956862  1
  La  La160  1  0.32966449  0.20071266  0.01924007  1
  La  La161  1  0.82446409  0.20664334  0.10923661  1
  La  La162  1  0.82540489  0.70528722  0.10712272  1
  La  La163  1  0.68431035  0.51524004  0.03619263  1
  La  La164  1  0.45750526  0.89557153  0.08608417  1
  La  La165  1  0.94441165  0.63978500  0.18018526  1
  La  La166  1  0.19771143  0.27159018  0.13115167  1
  La  La167  1  0.20428330  0.01820294  0.27502155  1
  La  La168  1  0.94676347  0.39085293  0.22705153  1
  La  La169  1  0.44414262  0.63854805  0.32047655  1
  La  La170  1  0.70021687  0.26997109  0.36925542  1
  La  La171  1  0.32385472  0.70314960  0.20326096  1
  La  La172  1  0.82387680  0.70285507  0.29781071  1
  La  La173  1  0.82461434  0.20379215  0.29852701  1
  La  La174  1  0.32401551  0.20409177  0.20223658  1
  La  La175  1  0.70479164  0.01866132  0.22605881  1
  La  La176  1  0.44678125  0.39037267  0.27379047  1
  La  La177  1  0.94804158  0.13885862  0.37187049  1
  La  La178  1  0.19914625  0.76560534  0.32154262  1
  La  La179  1  0.19044087  0.51502787  0.46501304  1
  La  La180  1  0.95978714  0.89568717  0.41763036  1
  La  La181  1  0.32675439  0.20568158  0.39114622  1
  La  La182  1  0.83818516  0.20048789  0.48133704  1
  La  La183  1  0.32579351  0.70415441  0.39365633  1
  La  La184  1  0.70676509  0.52078272  0.41460794  1
  La  La185  1  0.45607398  0.90220560  0.46343413  1
  La  La186  1  0.92886045  0.08317661  0.58429946  1
  La  La187  1  0.18566467  0.70422913  0.53610972  1
  La  La188  1  0.68454782  0.46279870  0.62946342  1
  La  La189  1  0.42201798  0.83370426  0.67926312  1
  La  La190  1  0.79204012  0.39969460  0.51822487  1
  La  La191  1  0.29753287  0.39542607  0.60921351  1
  La  La192  1  0.29567807  0.89522647  0.60598369  1
  La  La193  1  0.44416292  0.09066790  0.53629630  1
  La  La194  1  0.66274923  0.70269983  0.58817360  1
  La  La195  1  0.17744175  0.95936289  0.67905439  1
  La  La196  1  0.92679140  0.32955438  0.63072480  1
  La  La197  1  0.91862759  0.58011120  0.77414595  1
  La  La198  1  0.17573790  0.20726323  0.72637789  1
  La  La199  1  0.67979195  0.95945500  0.82008391  1
  La  La200  1  0.42622254  0.32747895  0.86911512  1
  La  La201  1  0.79798905  0.89502174  0.70279275  1
  La  La202  1  0.29982329  0.89573833  0.79707659  1
  La  La203  1  0.29931178  0.39374965  0.79810440  1
  La  La204  1  0.80014873  0.39549631  0.70185735  1
  La  La205  1  0.41727798  0.57946267  0.72595695  1
  La  La206  1  0.67577756  0.20768861  0.77329079  1
  La  La207  1  0.17953082  0.45992923  0.87080521  1
  La  La208  1  0.92392301  0.83229990  0.82075366  1
  La  La209  1  0.93923169  0.08506031  0.96369800  1
  La  La210  1  0.16616878  0.70435675  0.91416078  1
  La  La211  1  0.79942891  0.39274866  0.89101014  1
  La  La212  1  0.29409634  0.40016268  0.98081641  1
  La  La213  1  0.79820829  0.89363815  0.89318864  1
  La  La214  1  0.42114408  0.08012716  0.91501984  1
  La  La215  1  0.67330132  0.69989809  0.96272625  1
  Zr  Zr216  1  0.07226513  0.45486723  0.15659260  1
  Zr  Zr217  1  0.58028358  0.71817029  0.06124150  1
  Zr  Zr218  1  0.58878090  0.20449854  0.05825115  1
  Zr  Zr219  1  0.07557198  0.95323390  0.15451213  1
  Zr  Zr220  1  0.07269751  0.69962132  0.05901913  1
  Zr  Zr221  1  0.06402126  0.21391521  0.05873371  1
  Zr  Zr222  1  0.57254763  0.45475019  0.15457307  1
  Zr  Zr223  1  0.57185159  0.95360325  0.15612953  1
  Zr  Zr224  1  0.07229230  0.95205608  0.34538592  1
  Zr  Zr225  1  0.57363545  0.20294308  0.25019375  1
  Zr  Zr226  1  0.57419857  0.70326013  0.25008321  1
  Zr  Zr227  1  0.07324363  0.45362031  0.34643962  1
  Zr  Zr228  1  0.07400430  0.20306066  0.25058583  1
  Zr  Zr229  1  0.07452930  0.70383239  0.25077697  1
  Zr  Zr230  1  0.57609491  0.95208047  0.34597611  1
  Zr  Zr231  1  0.57408911  0.45410035  0.34406448  1
  Zr  Zr232  1  0.57457482  0.69844722  0.44008619  1
  Zr  Zr233  1  0.57298350  0.21683709  0.44075295  1
  Zr  Zr234  1  0.08461944  0.71742834  0.44069565  1
  Zr  Zr235  1  0.09552778  0.20240619  0.44324142  1
  Zr  Zr236  1  0.04956758  0.14207225  0.65562779  1
  Zr  Zr237  1  0.55092960  0.88965369  0.56218471  1
  Zr  Zr238  1  0.54333147  0.40167817  0.55881955  1
  Zr  Zr239  1  0.04911166  0.64635874  0.65391964  1
  Zr  Zr240  1  0.05931108  0.90901825  0.55379369  1
  Zr  Zr241  1  0.06345011  0.38873274  0.55817874  1
  Zr  Zr242  1  0.55046250  0.14561028  0.65402127  1
  Zr  Zr243  1  0.54787918  0.64396635  0.65659609  1
  Zr  Zr244  1  0.05216220  0.64538609  0.84402357  1
  Zr  Zr245  1  0.54865809  0.39462181  0.74960654  1
  Zr  Zr246  1  0.54820379  0.89492196  0.74973289  1
  Zr  Zr247  1  0.05119218  0.14431952  0.84576094  1
  Zr  Zr248  1  0.04878624  0.39461251  0.75008049  1
  Zr  Zr249  1  0.04875248  0.89514689  0.75000884  1
  Zr  Zr250  1  0.54883515  0.64561577  0.84568795  1
  Zr  Zr251  1  0.55193480  0.14435597  0.84377874  1
  Zr  Zr252  1  0.55098707  0.90037155  0.94116261  1
  Zr  Zr253  1  0.56001608  0.38584708  0.94156056  1
  Zr  Zr254  1  0.04336463  0.88136042  0.93904423  1
  Zr  Zr255  1  0.03522862  0.39586658  0.94190086  1
  O  O256  1  0.87735490  0.89166545  0.13663505  1
  O  O257  1  0.27660230  0.02059617  0.17227779  1
  O  O258  1  0.48339747  0.10718126  0.02169072  1
  O  O259  1  0.66331941  0.28179933  0.09912781  1
  O  O260  1  0.78466002  0.85325285  0.07817722  1
  O  O261  1  0.37767562  0.59339551  0.04390514  1
  O  O262  1  0.16705761  0.96924635  0.01870808  1
  O  O263  1  0.97996596  0.44762287  0.11898033  1
  O  O264  1  0.76588974  0.34855794  0.03623107  1
  O  O265  1  0.39550546  0.04871556  0.07961225  1
  O  O266  1  0.19462973  0.06346964  0.11965983  1
  O  O267  1  0.89059153  0.41717127  0.17932558  1
  O  O268  1  0.24635132  0.48896652  0.13300692  1
  O  O269  1  0.69599634  0.72161944  0.02547035  1
  O  O270  1  0.45488666  0.70320036  0.09470531  1
  O  O271  1  0.48147480  0.75378801  0.15975753  1
  O  O272  1  0.65814091  0.15038852  0.15219123  1
  O  O273  1  0.59211190  0.61687160  0.13749370  1
  O  O274  1  0.54914210  0.28870496  0.17113570  1
  O  O275  1  0.15973494  0.11428444  0.06133586  1
  O  O276  1  0.97277841  0.31313857  0.06873559  1
  O  O277  1  0.05023419  0.84284782  0.07619911  1
  O  O278  1  0.08959124  0.55188308  0.04422185  1
  O  O279  1  0.16393449  0.65353867  0.16013670  1
  O  O280  1  0.98273718  0.25738383  0.15333309  1
  O  O281  1  0.61419154  0.57727044  0.07654942  1
  O  O282  1  0.56661682  0.86294997  0.04281424  1
  O  O283  1  0.49963642  0.31073972  0.05814438  1
  O  O284  1  0.67726521  0.10216111  0.06663965  1
  O  O285  1  0.05183358  0.78655217  0.13854980  1
  O  O286  1  0.09527300  0.11711909  0.17206385  1
  O  O287  1  0.19543290  0.71591081  0.09325733  1
  O  O288  1  0.95505335  0.67037422  0.02151672  1
  O  O289  1  0.25684230  0.36148746  0.08320682  1
  O  O290  1  0.89483849  0.06533785  0.03494728  1
  O  O291  1  0.44830441  0.34233318  0.11962028  1
  O  O292  1  0.39305599  0.91735879  0.13213890  1
  O  O293  1  0.74871095  0.98570606  0.17885984  1
  O  O294  1  0.87621517  0.56868270  0.07751910  1
  O  O295  1  0.27511963  0.81989721  0.03707497  1
  O  O296  1  0.17266073  0.32695944  0.02651171  1
  O  O297  1  0.97882252  0.13236029  0.10082076  1
  O  O298  1  0.77047367  0.51730022  0.13673489  1
  O  O299  1  0.37092084  0.38805563  0.17242158  1
  O  O300  1  0.46756017  0.44059675  0.01560652  1
  O  O301  1  0.66066768  0.96372965  0.11811230  1
  O  O302  1  0.87157776  0.38656657  0.32860891  1
  O  O303  1  0.27213927  0.51657162  0.36393006  1
  O  O304  1  0.48253978  0.62359269  0.21182301  1
  O  O305  1  0.66523900  0.78521465  0.28840810  1
  O  O306  1  0.77494910  0.33717119  0.26817795  1
  O  O307  1  0.37265358  0.06797681  0.23244919  1
  O  O308  1  0.16414834  0.46667543  0.19502793  1
  O  O309  1  0.97832683  0.93985628  0.30718228  1
  O  O310  1  0.75457611  0.84519932  0.22702169  1
  O  O311  1  0.39889469  0.56169448  0.27344007  1
  O  O312  1  0.95340296  0.84302711  0.18892746  1
  O  O313  1  0.19642308  0.57031588  0.31317765  1
  O  O314  1  0.89130997  0.91411582  0.36904813  1
  O  O315  1  0.24743667  0.98313293  0.32209031  1
  O  O316  1  0.69513062  0.21271694  0.21591941  1
  O  O317  1  0.44958719  0.19762035  0.28314048  1
  O  O318  1  0.48336789  0.25604552  0.34710105  1
  O  O319  1  0.66408801  0.65269494  0.34022132  1
  O  O320  1  0.59594208  0.11603307  0.32836632  1
  O  O321  1  0.55281600  0.78561598  0.36155207  1
  O  O322  1  0.16572409  0.59628276  0.24730040  1
  O  O323  1  0.98614505  0.81353705  0.25453597  1
  O  O324  1  0.05601286  0.34702237  0.26849999  1
  O  O325  1  0.09496844  0.06021337  0.23344922  1
  O  O326  1  0.15842672  0.14915337  0.34883115  1
  O  O327  1  0.97995623  0.75253390  0.34188507  1
  O  O328  1  0.59538841  0.06005935  0.26705841  1
  O  O329  1  0.55561584  0.34691183  0.23234136  1
  O  O330  1  0.48613211  0.81315859  0.24624623  1
  O  O331  1  0.66508185  0.59558683  0.25361943  1
  O  O332  1  0.04974553  0.28777879  0.32980639  1
  O  O333  1  0.09178930  0.61506970  0.36386331  1
  O  O334  1  0.19371353  0.21081972  0.28493308  1
  O  O335  1  0.95033649  0.19856245  0.21763303  1
  O  O336  1  0.25568429  0.84556001  0.27373210  1
  O  O337  1  0.89872131  0.56258305  0.22743216  1
  O  O338  1  0.45260196  0.84180341  0.31155024  1
  O  O339  1  0.69672827  0.57111712  0.18790610  1
  O  O340  1  0.39086378  0.41516571  0.32145033  1
  O  O341  1  0.74477304  0.48269078  0.36785254  1
  O  O342  1  0.87270530  0.06770676  0.26811486  1
  O  O343  1  0.27521225  0.33726751  0.23277649  1
  O  O344  1  0.16503914  0.78498679  0.21239668  1
  O  O345  1  0.98389550  0.62501256  0.28918701  1
  O  O346  1  0.77671379  0.01892991  0.32807667  1
  O  O347  1  0.37792049  0.88946190  0.36401657  1
  O  O348  1  0.47900183  0.94098877  0.19421657  1
  O  O349  1  0.66537050  0.46638325  0.30558158  1
  O  O350  1  0.48300425  0.13124833  0.39962538  1
  O  O351  1  0.67437140  0.32891545  0.47379861  1
  O  O352  1  0.77908477  0.81956259  0.46020294  1
  O  O353  1  0.37536650  0.56604920  0.42292371  1
  O  O354  1  0.16243276  0.96322322  0.38313478  1
  O  O355  1  0.96834636  0.43712340  0.48542018  1
  O  O356  1  0.76507697  0.36273493  0.41751169  1
  O  O357  1  0.40305956  0.07315052  0.46425005  1
  O  O358  1  0.95239248  0.34057139  0.38157956  1
  O  O359  1  0.69590007  0.71335836  0.40587990  1
  O  O360  1  0.46322164  0.66925221  0.47891324  1
  O  O361  1  0.18389109  0.10121033  0.43367679  1
  O  O362  1  0.00735802  0.31031379  0.44308407  1
  O  O363  1  0.07682989  0.86284588  0.45967108  1
  O  O364  1  0.11787951  0.57703069  0.42486071  1
  O  O365  1  0.59362321  0.55186573  0.45483492  1
  O  O366  1  0.55014869  0.84156451  0.42405346  1
  O  O367  1  0.48002765  0.31460090  0.43084983  1
  O  O368  1  0.66522024  0.11357721  0.43945486  1
  O  O369  1  0.20041224  0.71258445  0.47631143  1
  O  O370  1  0.95906953  0.70500963  0.40776423  1
  O  O371  1  0.27404993  0.34525391  0.46464251  1
  O  O372  1  0.89993883  0.05073685  0.42104051  1
  O  O373  1  0.69626840  0.06182813  0.38075437  1
  O  O374  1  0.88323524  0.59460556  0.45835267  1
  O  O375  1  0.28858188  0.85431803  0.42312790  1
  O  O376  1  0.16841192  0.28080816  0.40198764  1
  O  O377  1  0.98432587  0.10420675  0.47928354  1
  O  O378  1  0.48190608  0.44774591  0.38145376  1
  O  O379  1  0.67154915  0.96413357  0.48172529  1
  O  O380  1  0.25174829  0.71408493  0.63708919  1
  O  O381  1  0.84881688  0.58110361  0.67170802  1
  O  O382  1  0.63074398  0.49733612  0.51987977  1
  O  O383  1  0.45843956  0.32011162  0.59808140  1
  O  O384  1  0.34885281  0.75117501  0.57756435  1
  O  O385  1  0.75586569  0.01067322  0.54408994  1
  O  O386  1  0.95802743  0.63786530  0.51988684  1
  O  O387  1  0.13790029  0.14656157  0.61751929  1
  O  O388  1  0.36797199  0.25841896  0.53655953  1
  O  O389  1  0.73298591  0.55733042  0.57989934  1
  O  O390  1  0.92732099  0.52731501  0.62114648  1
  O  O391  1  0.23075448  0.18059403  0.67840990  1
  O  O392  1  0.87375653  0.10688837  0.63267517  1
  O  O393  1  0.43746955  0.87672634  0.52502749  1
  O  O394  1  0.67173648  0.89882464  0.59565706  1
  O  O395  1  0.63664216  0.84406289  0.65998668  1
  O  O396  1  0.46193909  0.44758719  0.65221695  1
  O  O397  1  0.53261257  0.98500015  0.63731241  1
  O  O398  1  0.57516401  0.31215949  0.67094878  1
  O  O399  1  0.96387790  0.48599247  0.55944824  1
  O  O400  1  0.15923515  0.29470893  0.56944201  1
  O  O401  1  0.08419600  0.76246875  0.57306754  1
  O  O402  1  0.05682494  0.06540343  0.54531874  1
  O  O403  1  0.95567470  0.94330632  0.65835903  1
  O  O404  1  0.14007323  0.34107613  0.65222919  1
  O  O405  1  0.51627717  0.02697977  0.57626970  1
  O  O406  1  0.57172612  0.74573781  0.54298617  1
  O  O407  1  0.63152156  0.29606480  0.55799276  1
  O  O408  1  0.45287039  0.50608605  0.56422517  1
  O  O409  1  0.06809055  0.80915171  0.63576431  1
  O  O410  1  0.03125197  0.48405151  0.67200081  1
  O  O411  1  0.92264366  0.87336654  0.58746020  1
  O  O412  1  0.19689467  0.94694659  0.51971669  1
  O  O413  1  0.87176626  0.24238291  0.58295757  1
  O  O414  1  0.23473920  0.54033513  0.53445151  1
  O  O415  1  0.67469328  0.25838222  0.61941156  1
  O  O416  1  0.72277154  0.67693970  0.63246328  1
  O  O417  1  0.37158332  0.61243930  0.67908119  1
  O  O418  1  0.25303228  0.03260085  0.57609455  1
  O  O419  1  0.89185181  0.82537408  0.52169012  1
  O  O420  1  0.95870540  0.27019658  0.52663250  1
  O  O421  1  0.14307044  0.47214674  0.59996951  1
  O  O422  1  0.35279639  0.08231437  0.63612425  1
  O  O423  1  0.75241679  0.21160212  0.67208405  1
  O  O424  1  0.66284935  0.16230751  0.51573055  1
  O  O425  1  0.45630588  0.63335922  0.61833746  1
  O  O426  1  0.25296126  0.21096531  0.82787405  1
  O  O427  1  0.85371587  0.08204852  0.86364552  1
  O  O428  1  0.63983708  0.97630425  0.71155959  1
  O  O429  1  0.45831498  0.81312044  0.78805434  1
  O  O430  1  0.34799418  0.26021721  0.76750396  1
  O  O431  1  0.74981711  0.53044955  0.73167432  1
  O  O432  1  0.95739704  0.12960653  0.69405589  1
  O  O433  1  0.14431902  0.65761284  0.80580458  1
  O  O434  1  0.36720778  0.75367919  0.72673647  1
  O  O435  1  0.72343768  0.03705298  0.77308593  1
  O  O436  1  0.16943387  0.75945183  0.68844837  1
  O  O437  1  0.92679645  0.02771842  0.81250060  1
  O  O438  1  0.23105456  0.68227339  0.86791831  1
  O  O439  1  0.87554833  0.61407293  0.82123840  1
  O  O440  1  0.42604851  0.38484036  0.71564681  1
  O  O441  1  0.67317760  0.40106064  0.78259441  1
  O  O442  1  0.64188471  0.34193931  0.84684470  1
  O  O443  1  0.46063218  0.94565589  0.84008271  1
  O  O444  1  0.52868348  0.48154915  0.82816120  1
  O  O445  1  0.57197361  0.81220806  0.86166062  1
  O  O446  1  0.95682897  0.00224313  0.74667420  1
  O  O447  1  0.13591197  0.78502470  0.75380168  1
  O  O448  1  0.06699550  0.25086424  0.76793700  1
  O  O449  1  0.02814541  0.53818567  0.73304718  1
  O  O450  1  0.96655583  0.44899468  0.84787421  1
  O  O451  1  0.14321461  0.84562073  0.84037150  1
  O  O452  1  0.52800714  0.53784555  0.76676269  1
  O  O453  1  0.56785270  0.25099723  0.73200160  1
  O  O454  1  0.63651920  0.78537557  0.74578788  1
  O  O455  1  0.45632965  0.00195240  0.75326015  1
  O  O456  1  0.07502605  0.31039124  0.82901630  1
  O  O457  1  0.03235869  0.98241606  0.86268956  1
  O  O458  1  0.92806613  0.38636685  0.78432967  1
  O  O459  1  0.17193870  0.39877156  0.71707503  1
  O  O460  1  0.86776005  0.75364519  0.77298729  1
  O  O461  1  0.22425808  0.03607186  0.72643494  1
  O  O462  1  0.67088642  0.75609459  0.81127379  1
  O  O463  1  0.42571425  0.03099418  0.68749999  1
  O  O464  1  0.73397206  0.18281749  0.82105563  1
  O  O465  1  0.37792843  0.11105421  0.86729825  1
  O  O466  1  0.25024142  0.52984590  0.76776777  1
  O  O467  1  0.84825507  0.26126466  0.73222339  1
  O  O468  1  0.95654566  0.81482818  0.71163552  1
  O  O469  1  0.14086148  0.97501292  0.78823168  1
  O  O470  1  0.34762528  0.57851534  0.82787507  1
  O  O471  1  0.74710816  0.70791078  0.86350319  1
  O  O472  1  0.64030574  0.65615446  0.69433407  1
  O  O473  1  0.45953541  0.13219829  0.80534161  1
  O  O474  1  0.64559740  0.46717391  0.89945827  1
  O  O475  1  0.45222234  0.27292123  0.97385320  1
  O  O476  1  0.34861172  0.78144316  0.96311809  1
  O  O477  1  0.74784375  0.03146534  0.92274913  1
  O  O478  1  0.96345863  0.63566141  0.88195560  1
  O  O479  1  0.15690526  0.16156517  0.98432750  1
  O  O480  1  0.36753078  0.23876309  0.91708208  1
  O  O481  1  0.72889105  0.53438081  0.96549194  1
  O  O482  1  0.17530776  0.25709708  0.88061881  1
  O  O483  1  0.42845358  0.88354143  0.90687639  1
  O  O484  1  0.66899000  0.93008759  0.97866632  1
  O  O485  1  0.94626079  0.49770330  0.93340094  1
  O  O486  1  0.12404243  0.28960710  0.94178615  1
  O  O487  1  0.05589134  0.73607988  0.95723270  1
  O  O488  1  0.00877463  0.02186294  0.92349822  1
  O  O489  1  0.53503080  0.04867468  0.95606766  1
  O  O490  1  0.57415029  0.75760681  0.92397469  1
  O  O491  1  0.65121845  0.28676192  0.93157201  1
  O  O492  1  0.46474670  0.48587639  0.93897043  1
  O  O493  1  0.92766154  0.87960888  0.97457586  1
  O  O494  1  0.16878731  0.89645868  0.90554063  1
  O  O495  1  0.85828417  0.25151566  0.96384922  1
  O  O496  1  0.22903117  0.55176333  0.92056476  1
  O  O497  1  0.42969033  0.53567927  0.88056311  1
  O  O498  1  0.24512837  0.00660951  0.95621486  1
  O  O499  1  0.83817513  0.74545785  0.92209183  1
  O  O500  1  0.96022659  0.31816905  0.90091780  1
  O  O501  1  0.14055426  0.49331293  0.97845561  1
  O  O502  1  0.64310162  0.15134705  0.88141634  1
  O  O503  1  0.45636509  0.63229047  0.98124488  1
