# generated using pymatgen
data_Li36La14Zr8O55
_symmetry_space_group_name_H-M   'P 1'
_cell_length_a   11.27162600
_cell_length_b   12.64834664
_cell_length_c   44.74121384
_cell_angle_alpha   90.00000000
_cell_angle_beta   90.00000000
_cell_angle_gamma   124.12984495
_symmetry_Int_Tables_number   1
_chemical_formula_structural   Li36La14Zr8O55
_chemical_formula_sum   'Li144 La56 Zr32 O220'
_cell_volume   5280.03528497
_cell_formula_units_Z   4
loop_
 _symmetry_equiv_pos_site_id
 _symmetry_equiv_pos_as_xyz
  1  'x, y, z'
loop_
 _atom_site_type_symbol
 _atom_site_label
 _atom_site_symmetry_multiplicity
 _atom_site_fract_x
 _atom_site_fract_y
 _atom_site_fract_z
 _atom_site_occupancy
  Li  Li0  1  0.76748137  0.33026459  0.02981299  1
  Li  Li1  1  0.09108499  0.92099432  0.06190223  1
  Li  Li2  1  0.88275175  0.87985105  0.08731627  1
  Li  Li3  1  0.61168150  0.23602337  0.13722673  1
  Li  Li4  1  0.26222105  0.44086157  0.14787768  1
  Li  Li5  1  0.41549956  0.01616774  0.18000654  1
  Li  Li6  1  0.43688704  0.63088366  0.10791294  1
  Li  Li7  1  0.17931309  0.55731709  0.12156511  1
  Li  Li8  1  0.67464996  0.09211807  0.16593404  1
  Li  Li9  1  0.30451186  0.38979915  0.09264717  1
  Li  Li10  1  0.78912193  0.11818715  0.00117661  1
  Li  Li11  1  0.24099511  0.19257972  0.06427372  1
  Li  Li12  1  0.44940169  0.13444266  0.04840659  1
  Li  Li13  1  0.06532177  0.74490780  0.09543958  1
  Li  Li14  1  0.90761280  0.40962988  0.94832745  1
  Li  Li15  1  0.92548393  0.52039219  0.11288975  1
  Li  Li16  1  0.93315980  0.13916496  0.18098765  1
  Li  Li17  1  0.21187180  0.30900992  0.02863661  1
  Li  Li18  1  0.48529403  0.88045295  0.01045866  1
  Li  Li19  1  0.47551081  0.30147952  0.08472620  1
  Li  Li20  1  0.28971037  0.93921194  0.03099400  1
  Li  Li21  1  0.10538947  0.72348431  0.14680258  1
  Li  Li22  1  0.76791461  0.94758171  0.14599109  1
  Li  Li23  1  0.69620332  0.34332361  0.08879559  1
  Li  Li24  1  0.05406601  0.83447489  0.01290409  1
  Li  Li25  1  0.24536407  0.43021598  0.98138289  1
  Li  Li26  1  0.65710119  0.82867280  0.09296658  1
  Li  Li27  1  0.76679466  0.81025530  0.25147304  1
  Li  Li28  1  0.09869652  0.36215326  0.25073460  1
  Li  Li29  1  0.94185278  0.78180616  0.21568700  1
  Li  Li30  1  0.93617113  0.38881271  0.28535183  1
  Li  Li31  1  0.61061413  0.73022934  0.35135733  1
  Li  Li32  1  0.27315544  0.95168047  0.35277142  1
  Li  Li33  1  0.42218768  0.51887221  0.38647720  1
  Li  Li34  1  0.43639847  0.14205549  0.31770902  1
  Li  Li35  1  0.17643816  0.08725014  0.33380279  1
  Li  Li36  1  0.67276160  0.56297766  0.37758730  1
  Li  Li37  1  0.33414670  0.89615278  0.30099686  1
  Li  Li38  1  0.54575902  0.24208857  0.19477233  1
  Li  Li39  1  0.18267712  0.59360167  0.27186423  1
  Li  Li40  1  0.68281901  0.59725898  0.22732708  1
  Li  Li41  1  0.04642866  0.24200019  0.30491134  1
  Li  Li42  1  0.83191269  0.89532009  0.19807485  1
  Li  Li43  1  0.91542309  0.01474013  0.31981754  1
  Li  Li44  1  0.93721645  0.63019652  0.39289794  1
  Li  Li45  1  0.26552944  0.80889490  0.24728020  1
  Li  Li46  1  0.59934141  0.36195098  0.24931215  1
  Li  Li47  1  0.44194057  0.78174670  0.28380178  1
  Li  Li48  1  0.43744223  0.38763071  0.21455235  1
  Li  Li49  1  0.11053486  0.23382321  0.36087456  1
  Li  Li50  1  0.77033153  0.44925900  0.35392189  1
  Li  Li51  1  0.68067408  0.83435213  0.30109538  1
  Li  Li52  1  0.18053571  0.33509918  0.19862595  1
  Li  Li53  1  0.17940010  0.83379660  0.19772199  1
  Li  Li54  1  0.68359212  0.33707868  0.30194314  1
  Li  Li55  1  0.72229066  0.31070284  0.47282004  1
  Li  Li56  1  0.97541594  0.87796285  0.49073886  1
  Li  Li57  1  0.98075003  0.30786629  0.41802357  1
  Li  Li58  1  0.77458270  0.93083175  0.46926378  1
  Li  Li59  1  0.40455968  0.40423237  0.55163410  1
  Li  Li60  1  0.57339756  0.74160356  0.40311842  1
  Li  Li61  1  0.94565057  0.13258753  0.45148311  1
  Li  Li62  1  0.73805987  0.18615705  0.43569140  1
  Li  Li63  1  0.28175294  0.11625484  0.49893071  1
  Li  Li64  1  0.81570280  0.39142059  0.40991264  1
  Li  Li65  1  0.27169743  0.31390210  0.47013950  1
  Li  Li66  1  0.59007078  0.92118244  0.43522541  1
  Li  Li67  1  0.38893023  0.89349259  0.41089364  1
  Li  Li68  1  0.73797331  0.42054327  0.51991195  1
  Li  Li69  1  0.15923402  0.83072118  0.40460971  1
  Li  Li70  1  0.19691523  0.34352278  0.40871161  1
  Li  Li71  1  0.49097283  0.80998336  0.47799705  1
  Li  Li72  1  0.55330303  0.20976188  0.52991270  1
  Li  Li73  1  0.23441411  0.60424316  0.56481378  1
  Li  Li74  1  0.43578592  0.62982586  0.58890475  1
  Li  Li75  1  0.71095516  0.28867533  0.63911626  1
  Li  Li76  1  0.05445880  0.07550881  0.64696636  1
  Li  Li77  1  0.90585548  0.50621638  0.68000335  1
  Li  Li78  1  0.88642081  0.89436227  0.60732026  1
  Li  Li79  1  0.15056654  0.96129411  0.62210135  1
  Li  Li80  1  0.64663388  0.43688915  0.66629397  1
  Li  Li81  1  0.00762002  0.13179331  0.59059095  1
  Li  Li82  1  0.54234160  0.40714916  0.50113022  1
  Li  Li83  1  0.08980184  0.34106811  0.56456458  1
  Li  Li84  1  0.88013531  0.39229489  0.54832437  1
  Li  Li85  1  0.24922667  0.78286995  0.59705813  1
  Li  Li86  1  0.41825606  0.11906883  0.44798985  1
  Li  Li87  1  0.40334856  0.00697224  0.61338127  1
  Li  Li88  1  0.38860816  0.38286084  0.68201878  1
  Li  Li89  1  0.10198206  0.21390843  0.52729511  1
  Li  Li90  1  0.84832144  0.64606266  0.50899981  1
  Li  Li91  1  0.84556325  0.21632153  0.58104926  1
  Li  Li92  1  0.04974798  0.59351229  0.53058520  1
  Li  Li93  1  0.21339172  0.79594103  0.64821693  1
  Li  Li94  1  0.55099036  0.57252836  0.64666721  1
  Li  Li95  1  0.62851317  0.18047359  0.59108121  1
  Li  Li96  1  0.33307793  0.71370105  0.52185745  1
  Li  Li97  1  0.08864938  0.10426124  0.47999296  1
  Li  Li98  1  0.66532468  0.69307303  0.59528888  1
  Li  Li99  1  0.55825345  0.71565690  0.75180710  1
  Li  Li100  1  0.22610454  0.16007280  0.75123915  1
  Li  Li101  1  0.38234028  0.74211483  0.71639660  1
  Li  Li102  1  0.38720042  0.13515918  0.78595315  1
  Li  Li103  1  0.71543747  0.79758892  0.85282850  1
  Li  Li104  1  0.05411806  0.57510440  0.85310122  1
  Li  Li105  1  0.89941802  0.00683687  0.88681724  1
  Li  Li106  1  0.88995001  0.38412633  0.81845293  1
  Li  Li107  1  0.15007609  0.43999232  0.83421778  1
  Li  Li108  1  0.65031038  0.96607932  0.87771917  1
  Li  Li109  1  0.99299830  0.63019021  0.80060741  1
  Li  Li110  1  0.77599937  0.27902545  0.69515909  1
  Li  Li111  1  0.14041489  0.92348279  0.77281153  1
  Li  Li112  1  0.64151474  0.93075998  0.72803813  1
  Li  Li113  1  0.28091078  0.28428343  0.80489303  1
  Li  Li114  1  0.48926734  0.62633600  0.69848005  1
  Li  Li115  1  0.40995496  0.51106373  0.82045674  1
  Li  Li116  1  0.38490844  0.89134370  0.89367227  1
  Li  Li117  1  0.06034435  0.71470886  0.74745080  1
  Li  Li118  1  0.72500292  0.16157859  0.74962478  1
  Li  Li119  1  0.88240217  0.74255583  0.78345984  1
  Li  Li120  1  0.88754599  0.13491771  0.71457760  1
  Li  Li121  1  0.22071885  0.29498655  0.85991226  1
  Li  Li122  1  0.55671513  0.07834352  0.85401030  1
  Li  Li123  1  0.64542874  0.69076975  0.80181025  1
  Li  Li124  1  0.14126216  0.18761095  0.69851567  1
  Li  Li125  1  0.14281058  0.68888030  0.69840262  1
  Li  Li126  1  0.64181601  0.18818327  0.80228073  1
  Li  Li127  1  0.60940446  0.21326498  0.97324103  1
  Li  Li128  1  0.37700391  0.65715381  0.99076983  1
  Li  Li129  1  0.34121269  0.21869204  0.91988217  1
  Li  Li130  1  0.56144366  0.60379564  0.97253589  1
  Li  Li131  1  0.91482872  0.11502935  0.05100782  1
  Li  Li132  1  0.77971070  0.78367548  0.90338893  1
  Li  Li133  1  0.38981029  0.40782191  0.95092203  1
  Li  Li134  1  0.58367627  0.33330824  0.93690781  1
  Li  Li135  1  0.03798091  0.40565273  0.99921731  1
  Li  Li136  1  0.50771071  0.13141456  0.90935931  1
  Li  Li137  1  0.07561773  0.22326806  0.96696037  1
  Li  Li138  1  0.74008420  0.58632436  0.93453400  1
  Li  Li139  1  0.94337141  0.65109738  0.91114046  1
  Li  Li140  1  0.60092876  0.10927756  0.02064246  1
  Li  Li141  1  0.16343553  0.69572740  0.90495200  1
  Li  Li142  1  0.12990637  0.18436494  0.90804127  1
  Li  Li143  1  0.85492775  0.72985514  0.97641935  1
  La  La144  1  0.03243463  0.39098067  0.06634466  1
  La  La145  1  0.73977792  0.80658525  0.02920783  1
  La  La146  1  0.31214200  0.03371353  0.11883304  1
  La  La147  1  0.55722536  0.65184935  0.17181608  1
  La  La148  1  0.65370903  0.07678228  0.08525988  1
  La  La149  1  0.69321523  0.59381843  0.09542113  1
  La  La150  1  0.54664730  0.40423236  0.01117297  1
  La  La151  1  0.31355198  0.76128923  0.06819546  1
  La  La152  1  0.80764365  0.52338149  0.17357700  1
  La  La153  1  0.06294061  0.15626644  0.11910860  1
  La  La154  1  0.06376661  0.90104727  0.27703007  1
  La  La155  1  0.80764944  0.27168794  0.22319206  1
  La  La156  1  0.30830313  0.52441307  0.32608874  1
  La  La157  1  0.57102590  0.16261158  0.37934314  1
  La  La158  1  0.18123605  0.58391081  0.19690171  1
  La  La159  1  0.68062507  0.58344858  0.30236850  1
  La  La160  1  0.68843028  0.09011341  0.30150688  1
  La  La161  1  0.18562317  0.08827749  0.19765878  1
  La  La162  1  0.56334919  0.90085948  0.22227236  1
  La  La163  1  0.30673989  0.27108683  0.27624039  1
  La  La164  1  0.81811549  0.03803299  0.38127018  1
  La  La165  1  0.05948895  0.65413836  0.32754588  1
  La  La166  1  0.09998211  0.43698229  0.48855570  1
  La  La167  1  0.81918244  0.76146207  0.43179557  1
  La  La168  1  0.15670373  0.07765033  0.41455497  1
  La  La169  1  0.20167402  0.60506556  0.40353686  1
  La  La170  1  0.54175963  0.38912329  0.43206014  1
  La  La171  1  0.23517510  0.82208837  0.46743603  1
  La  La172  1  0.28203504  0.13447679  0.56781027  1
  La  La173  1  0.58928164  0.70202803  0.53235276  1
  La  La174  1  0.00502591  0.48512978  0.61858635  1
  La  La175  1  0.76373481  0.86934804  0.67232815  1
  La  La176  1  0.66694041  0.44587655  0.58518304  1
  La  La177  1  0.62195204  0.91843982  0.59625186  1
  La  La178  1  0.72380782  0.08643622  0.51119244  1
  La  La179  1  0.00443177  0.76244386  0.56809903  1
  La  La180  1  0.51507897  0.99857033  0.67379562  1
  La  La181  1  0.25277607  0.36085328  0.62068478  1
  La  La182  1  0.26092908  0.62315864  0.77754431  1
  La  La183  1  0.51657284  0.25189923  0.72366442  1
  La  La184  1  0.01834153  0.00211865  0.82635475  1
  La  La185  1  0.75779736  0.36620559  0.88058342  1
  La  La186  1  0.14231897  0.93986845  0.69752638  1
  La  La187  1  0.64454213  0.94106967  0.80302567  1
  La  La188  1  0.63680114  0.43448986  0.80189374  1
  La  La189  1  0.13484393  0.43339281  0.69817185  1
  La  La190  1  0.76056001  0.62290467  0.72269142  1
  La  La191  1  0.01757582  0.25323937  0.77666568  1
  La  La192  1  0.51147175  0.48894550  0.88151693  1
  La  La193  1  0.26629992  0.87103384  0.82855902  1
  La  La194  1  0.22767691  0.09057695  0.98865519  1
  La  La195  1  0.51900553  0.77054300  0.93301747  1
  La  La196  1  0.17619498  0.45097301  0.91419612  1
  La  La197  1  0.12324660  0.92790402  0.90448947  1
  La  La198  1  0.78511952  0.13705167  0.93250819  1
  La  La199  1  0.11661349  0.68717770  0.97071614  1
  Zr  Zr200  1  0.92583327  0.32823535  0.14581738  1
  Zr  Zr201  1  0.40592011  0.56003707  0.04453893  1
  Zr  Zr202  1  0.94359782  0.84104041  0.14590684  1
  Zr  Zr203  1  0.93707561  0.60768451  0.04280842  1
  Zr  Zr204  1  0.43440916  0.34078578  0.14622457  1
  Zr  Zr205  1  0.42626479  0.83483911  0.14461307  1
  Zr  Zr206  1  0.92655642  0.83470639  0.35510682  1
  Zr  Zr207  1  0.43334494  0.08458873  0.24931399  1
  Zr  Zr208  1  0.43137813  0.58433193  0.24908722  1
  Zr  Zr209  1  0.94135194  0.34561740  0.35421213  1
  Zr  Zr210  1  0.93336295  0.08459646  0.25013597  1
  Zr  Zr211  1  0.93156695  0.58441396  0.25039321  1
  Zr  Zr212  1  0.44929239  0.84559964  0.35314529  1
  Zr  Zr213  1  0.42583790  0.32833304  0.35340612  1
  Zr  Zr214  1  0.44453536  0.59561252  0.45518705  1
  Zr  Zr215  1  0.91395968  0.56249657  0.45777819  1
  Zr  Zr216  1  0.39758644  0.19497788  0.64660923  1
  Zr  Zr217  1  0.91054586  0.96186168  0.54225772  1
  Zr  Zr218  1  0.37396912  0.67797608  0.64660413  1
  Zr  Zr219  1  0.37957595  0.92811403  0.54483422  1
  Zr  Zr220  1  0.88173795  0.17796963  0.64579662  1
  Zr  Zr221  1  0.89684812  0.68841913  0.64481903  1
  Zr  Zr222  1  0.40019445  0.69125547  0.85629930  1
  Zr  Zr223  1  0.89041858  0.43913740  0.74967280  1
  Zr  Zr224  1  0.89307390  0.94017069  0.74946950  1
  Zr  Zr225  1  0.38574174  0.18070215  0.85486681  1
  Zr  Zr226  1  0.39087732  0.43984309  0.75052068  1
  Zr  Zr227  1  0.39272412  0.93941970  0.75105098  1
  Zr  Zr228  1  0.87997447  0.68166617  0.85230959  1
  Zr  Zr229  1  0.89941765  0.19755658  0.85388371  1
  Zr  Zr230  1  0.88732131  0.93765631  0.95678397  1
  Zr  Zr231  1  0.41123958  0.96374975  0.95855501  1
  O  O232  1  0.75586451  0.79683051  0.12437229  1
  O  O233  1  0.14255346  0.90854680  0.16511413  1
  O  O234  1  0.52132922  0.17300115  0.08826776  1
  O  O235  1  0.57607080  0.67209079  0.07347144  1
  O  O236  1  0.21067923  0.45726846  0.02061270  1
  O  O237  1  0.01865618  0.34362744  0.18867372  1
  O  O238  1  0.83342084  0.32075998  0.10459337  1
  O  O239  1  0.57630703  0.24232788  0.01341478  1
  O  O240  1  0.25080075  0.07166853  0.04079174  1
  O  O241  1  0.81447442  0.72801779  0.18237453  1
  O  O242  1  0.06191820  0.95263870  0.10659854  1
  O  O243  1  0.74614561  0.29576472  0.17080106  1
  O  O244  1  0.10464696  0.36747509  0.12178824  1
  O  O245  1  0.56497036  0.59434026  0.01410454  1
  O  O246  1  0.28242699  0.55518626  0.08045260  1
  O  O247  1  0.33879191  0.63571551  0.14933600  1
  O  O248  1  0.51202446  0.02961073  0.14162716  1
  O  O249  1  0.45105166  0.50022966  0.12769363  1
  O  O250  1  0.40732120  0.17174785  0.16306680  1
  O  O251  1  0.87014213  0.74729457  0.05980267  1
  O  O252  1  0.96117194  0.47684789  0.02142800  1
  O  O253  1  0.02132138  0.53044491  0.15054998  1
  O  O254  1  0.84388887  0.13309571  0.14170934  1
  O  O255  1  0.40037096  0.38962354  0.05456654  1
  O  O256  1  0.44731717  0.73220643  0.02902479  1
  O  O257  1  0.46920812  0.97353016  0.04645382  1
  O  O258  1  0.91684526  0.67300402  0.12799460  1
  O  O259  1  0.96113019  0.00259084  0.16545934  1
  O  O260  1  0.03955092  0.58333545  0.07955592  1
  O  O261  1  0.93008284  0.66396185  0.99962355  1
  O  O262  1  0.09399288  0.23153692  0.06765284  1
  O  O263  1  0.80396517  0.19154347  0.04101077  1
  O  O264  1  0.30827153  0.23156186  0.10801919  1
  O  O265  1  0.56150569  0.45831672  0.18177305  1
  O  O266  1  0.25068496  0.80957366  0.11757336  1
  O  O267  1  0.60313283  0.86713684  0.17023004  1
  O  O268  1  0.73155541  0.46915696  0.05720069  1
  O  O269  1  0.13250983  0.79382097  0.04882390  1
  O  O270  1  0.79827466  0.95737804  0.06743981  1
  O  O271  1  0.62632405  0.39869272  0.12324898  1
  O  O272  1  0.23200870  0.27267586  0.16519344  1
  O  O273  1  0.33177875  0.81904516  0.18678857  1
  O  O274  1  0.51466177  0.85007509  0.10284859  1
  O  O275  1  0.73734250  0.27646094  0.33538269  1
  O  O276  1  0.13932881  0.40753285  0.37466117  1
  O  O277  1  0.34092336  0.50738384  0.20675506  1
  O  O278  1  0.52237886  0.66691660  0.29133634  1
  O  O279  1  0.63476644  0.22019029  0.26903145  1
  O  O280  1  0.23143703  0.94830408  0.23055095  1
  O  O281  1  0.01284586  0.84803481  0.39709266  1
  O  O282  1  0.83048102  0.81783354  0.31323572  1
  O  O283  1  0.61321189  0.72681719  0.22395132  1
  O  O284  1  0.25891812  0.44375263  0.27528099  1
  O  O285  1  0.81756667  0.24009194  0.39284671  1
  O  O286  1  0.06211731  0.46148274  0.31779335  1
  O  O287  1  0.75309638  0.81163715  0.38186747  1
  O  O288  1  0.10463768  0.86959059  0.32942215  1
  O  O289  1  0.55313440  0.09256941  0.21163134  1
  O  O290  1  0.30904313  0.07746098  0.28570013  1
  O  O291  1  0.34861737  0.13506423  0.35700847  1
  O  O292  1  0.51961424  0.53093738  0.34857326  1
  O  O293  1  0.46588537  0.00600841  0.33336631  1
  O  O294  1  0.42335016  0.67964008  0.37220118  1
  O  O295  1  0.02250414  0.47647178  0.24639179  1
  O  O296  1  0.84385379  0.69466531  0.25439331  1
  O  O297  1  0.91567794  0.22826211  0.27007124  1
  O  O298  1  0.95558628  0.94197206  0.23192520  1
  O  O299  1  0.01481051  0.03066274  0.35825727  1
  O  O300  1  0.83965219  0.63615630  0.35095928  1
  O  O301  1  0.45635170  0.94192871  0.26725046  1
  O  O302  1  0.41592383  0.22841191  0.22984665  1
  O  O303  1  0.34334238  0.69395836  0.24499710  1
  O  O304  1  0.52317146  0.47711294  0.25326079  1
  O  O305  1  0.91298130  0.17558796  0.33749063  1
  O  O306  1  0.96002102  0.50609558  0.37294298  1
  O  O307  1  0.05158436  0.09086235  0.28799244  1
  O  O308  1  0.80968669  0.07813869  0.21375562  1
  O  O309  1  0.11386362  0.72758732  0.27552635  1
  O  O310  1  0.75929171  0.44270065  0.22447985  1
  O  O311  1  0.31731224  0.73062800  0.31735430  1
  O  O312  1  0.56799593  0.96277272  0.39190318  1
  O  O313  1  0.24732381  0.29610220  0.32841233  1
  O  O314  1  0.60590991  0.37113684  0.37797154  1
  O  O315  1  0.73145233  0.94854082  0.26875438  1
  O  O316  1  0.13524575  0.22067060  0.23126959  1
  O  O317  1  0.02169256  0.66609036  0.20804624  1
  O  O318  1  0.84198053  0.50875292  0.29280220  1
  O  O319  1  0.64661007  0.91030556  0.33400915  1
  O  O320  1  0.25994461  0.80060535  0.37459195  1
  O  O321  1  0.33396321  0.31698732  0.39510108  1
  O  O322  1  0.51975658  0.34403947  0.31076557  1
  O  O323  1  0.29850289  0.97012615  0.42806759  1
  O  O324  1  0.62309816  0.78457364  0.45023170  1
  O  O325  1  0.24335514  0.47876231  0.43834961  1
  O  O326  1  0.60282162  0.23463552  0.43261757  1
  O  O327  1  0.30164360  0.18372784  0.45896584  1
  O  O328  1  0.55227683  0.58087533  0.41772297  1
  O  O329  1  0.38969450  0.63457967  0.49580284  1
  O  O330  1  0.96195943  0.97119888  0.45339229  1
  O  O331  1  0.95075184  0.73635669  0.47181634  1
  O  O332  1  0.91706475  0.39815118  0.44808086  1
  O  O333  1  0.46125697  0.46480325  0.47578034  1
  O  O334  1  0.37539215  0.77375366  0.44024112  1
  O  O335  1  0.07974452  0.61335632  0.48871658  1
  O  O336  1  0.79057825  0.55241911  0.42136309  1
  O  O337  1  0.08138164  0.24860394  0.48581986  1
  O  O338  1  0.74234242  0.06440742  0.45891961  1
  O  O339  1  0.72055008  0.46260069  0.48122631  1
  O  O340  1  0.08139305  0.67871317  0.42724832  1
  O  O341  1  0.02245013  0.17658638  0.41185959  1
  O  O342  1  0.56367686  0.72286560  0.62526143  1
  O  O343  1  0.17678553  0.61268076  0.66578628  1
  O  O344  1  0.80230807  0.34699580  0.58797740  1
  O  O345  1  0.74299557  0.84540934  0.57282067  1
  O  O346  1  0.10444894  0.06216241  0.51902991  1
  O  O347  1  0.30404844  0.17923971  0.68946238  1
  O  O348  1  0.49062990  0.20630675  0.60517958  1
  O  O349  1  0.74358033  0.27534421  0.51427625  1
  O  O350  1  0.08269706  0.46013316  0.54108145  1
  O  O351  1  0.50579609  0.79257963  0.68259106  1
  O  O352  1  0.25593658  0.56061391  0.60794045  1
  O  O353  1  0.57575689  0.22664944  0.67180693  1
  O  O354  1  0.21742588  0.15243975  0.62226623  1
  O  O355  1  0.74521053  0.91085380  0.51126268  1
  O  O356  1  0.03346745  0.97134059  0.57883140  1
  O  O357  1  0.98414187  0.88717395  0.64919484  1
  O  O358  1  0.80797209  0.49232289  0.64174115  1
  O  O359  1  0.86393731  0.01770267  0.62734239  1
  O  O360  1  0.91041746  0.34788659  0.66266385  1
  O  O361  1  0.44904410  0.75018618  0.55975918  1
  O  O362  1  0.36288938  0.05913519  0.52444154  1
  O  O363  1  0.30364259  0.99232805  0.65143419  1
  O  O364  1  0.47480815  0.38826167  0.64300842  1
  O  O365  1  0.90638436  0.12515524  0.55211084  1
  O  O366  1  0.87368714  0.78775833  0.52821388  1
  O  O367  1  0.86239504  0.55267706  0.54669920  1
  O  O368  1  0.39992652  0.84396997  0.62782429  1
  O  O369  1  0.35760563  0.51734269  0.66642865  1
  O  O370  1  0.27166779  0.94320941  0.58238572  1
  O  O371  1  0.43523464  0.88958599  0.50430041  1
  O  O372  1  0.22156341  0.28959128  0.56756486  1
  O  O373  1  0.52176923  0.33910290  0.54118203  1
  O  O374  1  0.00599390  0.28328799  0.60727368  1
  O  O375  1  0.76085449  0.06209413  0.68233982  1
  O  O376  1  0.07011324  0.71183233  0.61819712  1
  O  O377  1  0.71808318  0.65344868  0.67047085  1
  O  O378  1  0.58066164  0.04513726  0.56173623  1
  O  O379  1  0.20079306  0.73940406  0.54992196  1
  O  O380  1  0.52598640  0.55344347  0.57173973  1
  O  O381  1  0.68300725  0.11512873  0.62570992  1
  O  O382  1  0.08591818  0.24736033  0.66491234  1
  O  O383  1  0.99188027  0.70479606  0.68691899  1
  O  O384  1  0.81080043  0.67520647  0.60293505  1
  O  O385  1  0.58910853  0.25027843  0.83586779  1
  O  O386  1  0.18705119  0.12008200  0.87467969  1
  O  O387  1  0.98234064  0.01570862  0.70701898  1
  O  O388  1  0.80293262  0.85794881  0.79162446  1
  O  O389  1  0.68922701  0.30354930  0.76927666  1
  O  O390  1  0.09262522  0.57516240  0.73111875  1
  O  O391  1  0.31328306  0.68078245  0.89807949  1
  O  O392  1  0.49796455  0.70823008  0.81477071  1
  O  O393  1  0.71103307  0.79711447  0.72427384  1
  O  O394  1  0.06526686  0.08221471  0.77543946  1
  O  O395  1  0.50802135  0.28589977  0.89368342  1
  O  O396  1  0.26396902  0.06324548  0.81864504  1
  O  O397  1  0.57473545  0.71014187  0.88374568  1
  O  O398  1  0.22316145  0.65504732  0.83028054  1
  O  O399  1  0.77112866  0.43132736  0.71203257  1
  O  O400  1  0.01565585  0.44713550  0.78611475  1
  O  O401  1  0.97818045  0.39144354  0.85797762  1
  O  O402  1  0.80330896  0.99473384  0.84921072  1
  O  O403  1  0.86330806  0.52088743  0.83338839  1
  O  O404  1  0.90724718  0.85021921  0.87002033  1
  O  O405  1  0.30128259  0.04650765  0.74724759  1
  O  O406  1  0.48117370  0.82946353  0.75512889  1
  O  O407  1  0.40830457  0.29585507  0.77052710  1
  O  O408  1  0.36833570  0.58239762  0.73259820  1
  O  O409  1  0.31115234  0.49512428  0.85906613  1
  O  O410  1  0.48535767  0.88912520  0.85173617  1
  O  O411  1  0.86782638  0.58214067  0.76736504  1
  O  O412  1  0.90765343  0.29515959  0.73000903  1
  O  O413  1  0.98112022  0.83007042  0.74525402  1
  O  O414  1  0.80167798  0.04770344  0.75371180  1
  O  O415  1  0.41228720  0.34994749  0.83782585  1
  O  O416  1  0.36647318  0.02038545  0.87387920  1
  O  O417  1  0.27362114  0.43390840  0.78852992  1
  O  O418  1  0.51446907  0.44568607  0.71425085  1
  O  O419  1  0.21041647  0.79512784  0.77618393  1
  O  O420  1  0.56482402  0.07954756  0.72493882  1
  O  O421  1  0.00973317  0.79429336  0.81643488  1
  O  O422  1  0.76247176  0.56425360  0.89155657  1
  O  O423  1  0.07760579  0.22966204  0.82885112  1
  O  O424  1  0.71887754  0.15493703  0.87848728  1
  O  O425  1  0.59290620  0.57603085  0.76918595  1
  O  O426  1  0.18903810  0.30460488  0.73122366  1
  O  O427  1  0.30017056  0.85608538  0.70901939  1
  O  O428  1  0.48302230  0.01540982  0.79350678  1
  O  O429  1  0.67946652  0.61309328  0.83435353  1
  O  O430  1  0.06951000  0.73072121  0.87452360  1
  O  O431  1  0.98721776  0.20462004  0.89575937  1
  O  O432  1  0.80550350  0.18156832  0.81129970  1
  O  O433  1  0.01570706  0.56258015  0.92885377  1
  O  O434  1  0.69044378  0.78293764  0.97063900  1
  O  O435  1  0.09839837  0.06256438  0.93908171  1
  O  O436  1  0.72533646  0.29120477  0.93333180  1
  O  O437  1  0.03998745  0.35772222  0.95818576  1
  O  O438  1  0.77475085  0.93714860  0.91887669  1
  O  O439  1  0.96769254  0.91328675  0.99638396  1
  O  O440  1  0.37412119  0.56037647  0.95396258  1
  O  O441  1  0.37537369  0.78826489  0.97271489  1
  O  O442  1  0.41393280  0.12839707  0.94854301  1
  O  O443  1  0.88731827  0.08475011  0.97417738  1
  O  O444  1  0.90266060  0.77474206  0.93468375  1
  O  O445  1  0.24326451  0.90900195  0.98946667  1
  O  O446  1  0.53261392  0.97091649  0.92186539  1
  O  O447  1  0.27299084  0.29384742  0.98744709  1
  O  O448  1  0.58695928  0.46836531  0.95770859  1
  O  O449  1  0.60760145  0.05988489  0.98121386  1
  O  O450  1  0.23271928  0.84282654  0.92954871  1
  O  O451  1  0.30300483  0.35190370  0.91229790  1
