# generated using pymatgen
data_Li37La15Zr10O61
_symmetry_space_group_name_H-M   'P 1'
_cell_length_a   11.27162600
_cell_length_b   12.64834664
_cell_length_c   49.37095410
_cell_angle_alpha   90.00000000
_cell_angle_beta   90.00000000
_cell_angle_gamma   124.12984495
_symmetry_Int_Tables_number   1
_chemical_formula_structural   Li37La15Zr10O61
_chemical_formula_sum   'Li148 La60 Zr40 O244'
_cell_volume   5826.40383024
_cell_formula_units_Z   4
loop_
 _symmetry_equiv_pos_site_id
 _symmetry_equiv_pos_as_xyz
  1  'x, y, z'
loop_
 _atom_site_type_symbol
 _atom_site_label
 _atom_site_symmetry_multiplicity
 _atom_site_fract_x
 _atom_site_fract_y
 _atom_site_fract_z
 _atom_site_occupancy
  Li  Li0  1  0.84934143  0.35037965  0.04513496  1
  Li  Li1  1  0.20317630  0.92216640  0.05121219  1
  Li  Li2  1  0.21302817  0.62017485  0.03224525  1
  Li  Li3  1  0.98885908  0.94542817  0.09111410  1
  Li  Li4  1  0.67521632  0.29260631  0.15240915  1
  Li  Li5  1  0.33287131  0.49534472  0.16041006  1
  Li  Li6  1  0.50531937  0.09452476  0.18768586  1
  Li  Li7  1  0.51915649  0.71673709  0.12513276  1
  Li  Li8  1  0.26400431  0.62359145  0.13567325  1
  Li  Li9  1  0.75821246  0.16230288  0.17552068  1
  Li  Li10  1  0.38702182  0.49584376  0.11181347  1
  Li  Li11  1  0.69964851  0.92466986  0.99602324  1
  Li  Li12  1  0.23610327  0.09449982  0.08101590  1
  Li  Li13  1  0.74443081  0.12099010  0.04247659  1
  Li  Li14  1  0.10177335  0.82642227  0.10449149  1
  Li  Li15  1  0.83450707  0.57879894  0.99336965  1
  Li  Li16  1  0.01342537  0.59997528  0.12360316  1
  Li  Li17  1  0.00672293  0.19884733  0.18617080  1
  Li  Li18  1  0.35313997  0.33540751  0.08019598  1
  Li  Li19  1  0.64472141  0.91136735  0.05691462  1
  Li  Li20  1  0.54345961  0.34359754  0.10100821  1
  Li  Li21  1  0.37410304  0.87499296  0.03118971  1
  Li  Li22  1  0.17125553  0.78278029  0.15493669  1
  Li  Li23  1  0.83462202  0.00560832  0.15414457  1
  Li  Li24  1  0.76781475  0.39874616  0.10457227  1
  Li  Li25  1  0.32583542  0.99859974  0.99146810  1
  Li  Li26  1  0.24794489  0.39392389  0.02157258  1
  Li  Li27  1  0.74992668  0.89709328  0.10631325  1
  Li  Li28  1  0.84650477  0.87695108  0.25196833  1
  Li  Li29  1  0.17674612  0.43067737  0.25125448  1
  Li  Li30  1  0.02083794  0.84659118  0.21758457  1
  Li  Li31  1  0.01099606  0.45365614  0.28233903  1
  Li  Li32  1  0.67382869  0.79140766  0.34153794  1
  Li  Li33  1  0.34273697  0.01543598  0.34436031  1
  Li  Li34  1  0.49736073  0.58583067  0.37589088  1
  Li  Li35  1  0.50932615  0.20383084  0.31216840  1
  Li  Li36  1  0.25399066  0.16751864  0.32324315  1
  Li  Li37  1  0.75298310  0.66177162  0.36202616  1
  Li  Li38  1  0.40120797  0.95948516  0.29744494  1
  Li  Li39  1  0.61866560  0.32821278  0.20184619  1
  Li  Li40  1  0.26228657  0.66838972  0.26951881  1
  Li  Li41  1  0.76338119  0.66674129  0.22975848  1
  Li  Li42  1  0.11891705  0.31415371  0.29966673  1
  Li  Li43  1  0.90128691  0.95962384  0.20257395  1
  Li  Li44  1  0.99718107  0.08476051  0.31270253  1
  Li  Li45  1  0.99995740  0.69451006  0.37749087  1
  Li  Li46  1  0.34511853  0.87730635  0.24747015  1
  Li  Li47  1  0.67898055  0.43010860  0.25033345  1
  Li  Li48  1  0.51653642  0.84742239  0.28200212  1
  Li  Li49  1  0.51058230  0.45451984  0.21794165  1
  Li  Li50  1  0.17864547  0.29703919  0.34924516  1
  Li  Li51  1  0.84165429  0.51085986  0.34557578  1
  Li  Li52  1  0.75841475  0.89899010  0.29691271  1
  Li  Li53  1  0.25569401  0.39627639  0.20426318  1
  Li  Li54  1  0.25912668  0.89912419  0.20188487  1
  Li  Li55  1  0.76041470  0.40137066  0.29779276  1
  Li  Li56  1  0.81999007  0.38907975  0.46762003  1
  Li  Li57  1  0.16492883  0.93050751  0.44663048  1
  Li  Li58  1  0.03346983  0.33577659  0.40487922  1
  Li  Li59  1  0.89022033  0.89344401  0.47290423  1
  Li  Li60  1  0.36968623  0.61750542  0.50625081  1
  Li  Li61  1  0.62040417  0.80247423  0.39179992  1
  Li  Li62  1  0.25867086  0.14921713  0.45646666  1
  Li  Li63  1  0.78954469  0.22785277  0.41952755  1
  Li  Li64  1  0.24378995  0.97726692  0.50397768  1
  Li  Li65  1  0.90196930  0.46348941  0.39983549  1
  Li  Li66  1  0.37431979  0.36873891  0.45055929  1
  Li  Li67  1  0.65185779  0.97921406  0.41474222  1
  Li  Li68  1  0.74702432  0.65013875  0.46576012  1
  Li  Li69  1  0.46179591  0.95699220  0.39788262  1
  Li  Li70  1  0.66371087  0.43686561  0.49028000  1
  Li  Li71  1  0.24247863  0.89953370  0.39414662  1
  Li  Li72  1  0.26731207  0.39913106  0.39470021  1
  Li  Li73  1  0.72847889  0.92157407  0.44973687  1
  Li  Li74  1  0.44903037  0.37417616  0.54469186  1
  Li  Li75  1  0.09606530  0.80206149  0.55100735  1
  Li  Li76  1  0.08811014  0.10602849  0.53219796  1
  Li  Li77  1  0.31012842  0.77975989  0.59106679  1
  Li  Li78  1  0.62379095  0.43117397  0.65242433  1
  Li  Li79  1  0.96843012  0.22905698  0.66027602  1
  Li  Li80  1  0.79439073  0.62999907  0.68763163  1
  Li  Li81  1  0.78151765  0.00751302  0.62495582  1
  Li  Li82  1  0.03637342  0.10122354  0.63556811  1
  Li  Li83  1  0.54120667  0.56134859  0.67547268  1
  Li  Li84  1  0.91361568  0.22927951  0.61157558  1
  Li  Li85  1  0.59910545  0.80021819  0.49593798  1
  Li  Li86  1  0.06281549  0.62981749  0.58091274  1
  Li  Li87  1  0.55514997  0.60362049  0.54208208  1
  Li  Li88  1  0.19601962  0.89662807  0.60451714  1
  Li  Li89  1  0.46601436  0.14471334  0.49343363  1
  Li  Li90  1  0.28670416  0.12425523  0.62369743  1
  Li  Li91  1  0.29098201  0.52368282  0.68621921  1
  Li  Li92  1  0.94761885  0.38937573  0.57981240  1
  Li  Li93  1  0.65616265  0.81320158  0.55668632  1
  Li  Li94  1  0.75733422  0.38149251  0.60060902  1
  Li  Li95  1  0.92659995  0.85043439  0.53094363  1
  Li  Li96  1  0.12824367  0.94191833  0.65517008  1
  Li  Li97  1  0.46489871  0.71839700  0.65473263  1
  Li  Li98  1  0.53151802  0.32614545  0.60442807  1
  Li  Li99  1  0.97338082  0.72541544  0.49110553  1
  Li  Li100  1  0.05374432  0.33266051  0.52133149  1
  Li  Li101  1  0.54966138  0.82726789  0.60641792  1
  Li  Li102  1  0.45176095  0.84663826  0.75207613  1
  Li  Li103  1  0.12309434  0.29433839  0.75150025  1
  Li  Li104  1  0.28086888  0.87931592  0.71741519  1
  Li  Li105  1  0.28807223  0.27187721  0.78251413  1
  Li  Li106  1  0.62685554  0.93313637  0.84143956  1
  Li  Li107  1  0.95824961  0.71212127  0.84467960  1
  Li  Li108  1  0.80333454  0.13923782  0.87578322  1
  Li  Li109  1  0.79209085  0.52283625  0.81237610  1
  Li  Li110  1  0.04563179  0.55860214  0.82322376  1
  Li  Li111  1  0.54730752  0.06125019  0.86201952  1
  Li  Li112  1  0.90040806  0.76704785  0.79750326  1
  Li  Li113  1  0.68198354  0.39719171  0.70190964  1
  Li  Li114  1  0.03813302  0.05693053  0.76932992  1
  Li  Li115  1  0.53649593  0.05617604  0.72986739  1
  Li  Li116  1  0.18223270  0.41204518  0.79982873  1
  Li  Li117  1  0.39859212  0.76397604  0.70269600  1
  Li  Li118  1  0.30308407  0.64144848  0.81279916  1
  Li  Li119  1  0.30155639  0.03181132  0.87764369  1
  Li  Li120  1  0.95542603  0.84753022  0.74737844  1
  Li  Li121  1  0.62106140  0.29421010  0.75076314  1
  Li  Li122  1  0.78523419  0.87898037  0.78203710  1
  Li  Li123  1  0.78724271  0.26880827  0.71801109  1
  Li  Li124  1  0.12246351  0.42939634  0.84898665  1
  Li  Li125  1  0.45868533  0.21450882  0.84604463  1
  Li  Li126  1  0.54132463  0.82516805  0.79690030  1
  Li  Li127  1  0.04312331  0.32739146  0.70432596  1
  Li  Li128  1  0.04102188  0.82521344  0.70193360  1
  Li  Li129  1  0.54020075  0.32443711  0.79802104  1
  Li  Li130  1  0.47835097  0.33590158  0.96779790  1
  Li  Li131  1  0.13352011  0.79518915  0.94666083  1
  Li  Li132  1  0.26611388  0.38926812  0.90469507  1
  Li  Li133  1  0.40925150  0.83127376  0.97312647  1
  Li  Li134  1  0.93025744  0.10867351  0.00633937  1
  Li  Li135  1  0.68014744  0.92317045  0.89193260  1
  Li  Li136  1  0.04069494  0.57636412  0.95649270  1
  Li  Li137  1  0.51089454  0.49845431  0.91944774  1
  Li  Li138  1  0.05534006  0.74923121  0.00396322  1
  Li  Li139  1  0.39869155  0.26377101  0.90030884  1
  Li  Li140  1  0.92399576  0.35641305  0.95134365  1
  Li  Li141  1  0.64716183  0.74515453  0.91478911  1
  Li  Li142  1  0.55307951  0.07499884  0.96603166  1
  Li  Li143  1  0.83968451  0.77010551  0.89809024  1
  Li  Li144  1  0.63366737  0.28874342  0.99103752  1
  Li  Li145  1  0.05865991  0.82645482  0.89419928  1
  Li  Li146  1  0.03305985  0.32708535  0.89483739  1
  Li  Li147  1  0.57065620  0.80307066  0.94996302  1
  La  La148  1  0.11144536  0.45424652  0.08303299  1
  La  La149  1  0.83227330  0.81818121  0.03831715  1
  La  La150  1  0.37462286  0.07954408  0.13168105  1
  La  La151  1  0.63424114  0.71124067  0.17979615  1
  La  La152  1  0.26028389  0.15810688  0.01756191  1
  La  La153  1  0.75204573  0.14568657  0.10776067  1
  La  La154  1  0.74477543  0.64402220  0.10777004  1
  La  La155  1  0.62396371  0.45391096  0.04241595  1
  La  La156  1  0.38046441  0.83274254  0.08935997  1
  La  La157  1  0.88292667  0.58598503  0.18002937  1
  La  La158  1  0.12828581  0.20819128  0.12990066  1
  La  La159  1  0.14175885  0.96469667  0.27390320  1
  La  La160  1  0.88476009  0.33703607  0.22598988  1
  La  La161  1  0.37896097  0.58610689  0.31969898  1
  La  La162  1  0.63840110  0.22048190  0.36819562  1
  La  La163  1  0.26025363  0.64963799  0.20261280  1
  La  La164  1  0.75762219  0.64843458  0.29633997  1
  La  La165  1  0.76047966  0.15164549  0.29770535  1
  La  La166  1  0.25680673  0.14779415  0.20222030  1
  La  La167  1  0.64207823  0.96617764  0.22609438  1
  La  La168  1  0.38221196  0.33651129  0.27313970  1
  La  La169  1  0.87891637  0.08075828  0.36891700  1
  La  La170  1  0.12891226  0.70827397  0.32014366  1
  La  La171  1  0.14622661  0.44476446  0.46197307  1
  La  La172  1  0.89864191  0.83710423  0.41262940  1
  La  La173  1  0.26044403  0.15159144  0.39103737  1
  La  La174  1  0.75933189  0.13500129  0.48257470  1
  La  La175  1  0.26005285  0.64924893  0.39348824  1
  La  La176  1  0.62282696  0.46370024  0.41284635  1
  La  La177  1  0.38262394  0.84325565  0.45941815  1
  La  La178  1  0.18859563  0.27070224  0.58300241  1
  La  La179  1  0.46779926  0.90686728  0.53837107  1
  La  La180  1  0.92480272  0.64472134  0.63165439  1
  La  La181  1  0.66595243  0.01345622  0.67972784  1
  La  La182  1  0.03956388  0.56679917  0.51755365  1
  La  La183  1  0.54795883  0.57925151  0.60766355  1
  La  La184  1  0.55546429  0.08078077  0.60776325  1
  La  La185  1  0.67530220  0.27104064  0.54228436  1
  La  La186  1  0.91958872  0.89213685  0.58923624  1
  La  La187  1  0.41749517  0.13888002  0.68005535  1
  La  La188  1  0.17179422  0.51676037  0.62984689  1
  La  La189  1  0.15819572  0.76032429  0.77385866  1
  La  La190  1  0.41523217  0.38763045  0.72604958  1
  La  La191  1  0.92145165  0.13922349  0.81972861  1
  La  La192  1  0.66242968  0.50539582  0.86829480  1
  La  La193  1  0.03984612  0.07507788  0.70262348  1
  La  La194  1  0.54283379  0.07663958  0.79646436  1
  La  La195  1  0.54023468  0.57381271  0.79775853  1
  La  La196  1  0.04309153  0.57670038  0.70220282  1
  La  La197  1  0.65794268  0.75839391  0.72615096  1
  La  La198  1  0.91812909  0.38835829  0.77317380  1
  La  La199  1  0.42139748  0.64479567  0.86898332  1
  La  La200  1  0.17200364  0.01749003  0.82019171  1
  La  La201  1  0.15355115  0.28088459  0.96205192  1
  La  La202  1  0.40145561  0.88818428  0.91282926  1
  La  La203  1  0.03964161  0.57378859  0.89107763  1
  La  La204  1  0.54050054  0.59008798  0.98262540  1
  La  La205  1  0.04066429  0.07654153  0.89359662  1
  La  La206  1  0.67777146  0.26165736  0.91281781  1
  La  La207  1  0.91677798  0.88185228  0.95953048  1
  Zr  Zr208  1  0.00848536  0.39874449  0.15538007  1
  Zr  Zr209  1  0.47228845  0.63522381  0.06061262  1
  Zr  Zr210  1  0.50585383  0.13909894  0.05961643  1
  Zr  Zr211  1  0.00339319  0.89558927  0.15432643  1
  Zr  Zr212  1  0.99385543  0.64697051  0.05882320  1
  Zr  Zr213  1  0.99900340  0.14849946  0.06015655  1
  Zr  Zr214  1  0.50119215  0.39539624  0.15533292  1
  Zr  Zr215  1  0.50916787  0.90150143  0.15741799  1
  Zr  Zr216  1  0.00824450  0.89715504  0.34305279  1
  Zr  Zr217  1  0.51182087  0.15130120  0.24996484  1
  Zr  Zr218  1  0.50959888  0.65064224  0.24996534  1
  Zr  Zr219  1  0.00754656  0.40113642  0.34671756  1
  Zr  Zr220  1  0.01139199  0.15126193  0.25039568  1
  Zr  Zr221  1  0.00973846  0.64917366  0.24976735  1
  Zr  Zr222  1  0.50979425  0.89969510  0.34510991  1
  Zr  Zr223  1  0.50728996  0.40031294  0.34290727  1
  Zr  Zr224  1  0.51191604  0.64958364  0.44132070  1
  Zr  Zr225  1  0.51575704  0.16883202  0.43931144  1
  Zr  Zr226  1  0.01083470  0.65564762  0.44390657  1
  Zr  Zr227  1  0.01514116  0.14255470  0.43875037  1
  Zr  Zr228  1  0.29134647  0.32584392  0.65532723  1
  Zr  Zr229  1  0.82783983  0.08998046  0.56047655  1
  Zr  Zr230  1  0.79351044  0.58573557  0.55943617  1
  Zr  Zr231  1  0.29650299  0.82910217  0.65434987  1
  Zr  Zr232  1  0.30579190  0.07748647  0.55897166  1
  Zr  Zr233  1  0.30123955  0.57657310  0.56009596  1
  Zr  Zr234  1  0.79884023  0.32904267  0.65522722  1
  Zr  Zr235  1  0.79126066  0.82332133  0.65738111  1
  Zr  Zr236  1  0.29203403  0.82821640  0.84312808  1
  Zr  Zr237  1  0.78822973  0.57335494  0.75005079  1
  Zr  Zr238  1  0.78992026  0.07365311  0.75001635  1
  Zr  Zr239  1  0.29312030  0.32446178  0.84684878  1
  Zr  Zr240  1  0.28841524  0.57316926  0.75041454  1
  Zr  Zr241  1  0.29083390  0.07596910  0.74979893  1
  Zr  Zr242  1  0.79064617  0.82576076  0.84517277  1
  Zr  Zr243  1  0.79301587  0.32513211  0.84294304  1
  Zr  Zr244  1  0.78811082  0.07559971  0.94132737  1
  Zr  Zr245  1  0.78365417  0.55613108  0.93934095  1
  Zr  Zr246  1  0.28894449  0.06914272  0.94420175  1
  Zr  Zr247  1  0.28434947  0.58253428  0.93880887  1
  O  O248  1  0.80035004  0.82969311  0.13718121  1
  O  O249  1  0.20419228  0.96376756  0.17264625  1
  O  O250  1  0.36953089  0.03082708  0.02794786  1
  O  O251  1  0.59528778  0.22128090  0.09893248  1
  O  O252  1  0.68606469  0.78366580  0.07565263  1
  O  O253  1  0.27526935  0.51296159  0.04539260  1
  O  O254  1  0.91580619  0.38943720  0.11792162  1
  O  O255  1  0.65934154  0.27634778  0.03246675  1
  O  O256  1  0.31870688  0.99384686  0.08401922  1
  O  O257  1  0.88534910  0.78489552  0.18909793  1
  O  O258  1  0.12412170  0.00704098  0.12018907  1
  O  O259  1  0.82820777  0.36342512  0.17821933  1
  O  O260  1  0.18732429  0.43337967  0.13348634  1
  O  O261  1  0.58484471  0.61280805  0.03002434  1
  O  O262  1  0.37225362  0.63489804  0.09780693  1
  O  O263  1  0.41819005  0.70194748  0.16114314  1
  O  O264  1  0.59683089  0.09842292  0.15240384  1
  O  O265  1  0.52155237  0.56195407  0.14088649  1
  O  O266  1  0.48233142  0.23224480  0.17244783  1
  O  O267  1  0.08011360  0.02972070  0.05441314  1
  O  O268  1  0.89724888  0.24459421  0.06511285  1
  O  O269  1  0.95494383  0.78113711  0.07807539  1
  O  O270  1  0.01474896  0.50617754  0.04676225  1
  O  O271  1  0.10123046  0.59776371  0.15869647  1
  O  O272  1  0.91568789  0.19964050  0.15160477  1
  O  O273  1  0.51658480  0.50451124  0.08139973  1
  O  O274  1  0.45088575  0.78032201  0.04684469  1
  O  O275  1  0.41132220  0.24786728  0.05887270  1
  O  O276  1  0.59174597  0.03373490  0.06683819  1
  O  O277  1  0.98240032  0.73046640  0.13861729  1
  O  O278  1  0.02377132  0.05866526  0.17170824  1
  O  O279  1  0.12397320  0.67283867  0.09236932  1
  O  O280  1  0.87155052  0.65114263  0.02640260  1
  O  O281  1  0.16623351  0.28748655  0.08367264  1
  O  O282  1  0.80911322  0.01232875  0.03433518  1
  O  O283  1  0.37512277  0.27931806  0.12131624  1
  O  O284  1  0.63393577  0.50938593  0.18794324  1
  O  O285  1  0.33505374  0.87018070  0.13454860  1
  O  O286  1  0.68659724  0.93192549  0.17977255  1
  O  O287  1  0.78436642  0.51099181  0.07698263  1
  O  O288  1  0.17172068  0.76847408  0.03430624  1
  O  O289  1  0.09850527  0.22393527  0.02200248  1
  O  O290  1  0.91089147  0.06179521  0.09791698  1
  O  O291  1  0.68662145  0.44824505  0.13377955  1
  O  O292  1  0.30217565  0.32925838  0.17390727  1
  O  O293  1  0.36242549  0.36148375  0.99493722  1
  O  O294  1  0.59812303  0.90786523  0.11942981  1
  O  O295  1  0.80755817  0.33671148  0.32854705  1
  O  O296  1  0.20448531  0.46318621  0.36522491  1
  O  O297  1  0.41845249  0.56784998  0.21183854  1
  O  O298  1  0.59901334  0.73216820  0.28823073  1
  O  O299  1  0.71154548  0.28392721  0.26834878  1
  O  O300  1  0.31002459  0.01454730  0.23209837  1
  O  O301  1  0.10210561  0.41406967  0.19387996  1
  O  O302  1  0.91652763  0.88564286  0.30495286  1
  O  O303  1  0.69133629  0.79139344  0.22756027  1
  O  O304  1  0.33599972  0.50807780  0.27346584  1
  O  O305  1  0.88381026  0.29066149  0.38090430  1
  O  O306  1  0.13015193  0.51596129  0.31318450  1
  O  O307  1  0.82743315  0.85567239  0.36564056  1
  O  O308  1  0.18509039  0.92502428  0.32082917  1
  O  O309  1  0.63587938  0.16071882  0.21652997  1
  O  O310  1  0.38574300  0.14272768  0.28268426  1
  O  O311  1  0.41656068  0.20223378  0.34671330  1
  O  O312  1  0.59462765  0.59798677  0.33884652  1
  O  O313  1  0.53049184  0.06412148  0.32761759  1
  O  O314  1  0.48816298  0.73389926  0.36090170  1
  O  O315  1  0.10234808  0.54238503  0.24684618  1
  O  O316  1  0.92375626  0.75985198  0.25355980  1
  O  O317  1  0.99230382  0.29385755  0.26841941  1
  O  O318  1  0.03155996  0.00739268  0.23316907  1
  O  O319  1  0.09352320  0.09215359  0.34734719  1
  O  O320  1  0.91389233  0.69554190  0.34030104  1
  O  O321  1  0.53133617  0.00705680  0.26705879  1
  O  O322  1  0.49253609  0.29498496  0.23281337  1
  O  O323  1  0.42248560  0.76006961  0.24598125  1
  O  O324  1  0.60384942  0.54483610  0.25339181  1
  O  O325  1  0.98538075  0.23621558  0.32963742  1
  O  O326  1  0.03024843  0.56553293  0.36416491  1
  O  O327  1  0.13207730  0.15800682  0.28449288  1
  O  O328  1  0.89039715  0.14604120  0.21724825  1
  O  O329  1  0.19097963  0.78964990  0.27249369  1
  O  O330  1  0.83536927  0.50549184  0.22676347  1
  O  O331  1  0.38392785  0.78912534  0.31155343  1
  O  O332  1  0.63307497  0.01896483  0.37839252  1
  O  O333  1  0.32240718  0.36134723  0.32131160  1
  O  O334  1  0.67948054  0.43488527  0.36653723  1
  O  O335  1  0.81029144  0.01623085  0.26806111  1
  O  O336  1  0.21310621  0.28492835  0.23353593  1
  O  O337  1  0.10029125  0.72900628  0.21136247  1
  O  O338  1  0.91886968  0.57051854  0.28810172  1
  O  O339  1  0.71067610  0.96475893  0.32723854  1
  O  O340  1  0.32544698  0.84588938  0.36729987  1
  O  O341  1  0.41967209  0.89081930  0.19543682  1
  O  O342  1  0.59892173  0.41216710  0.30488933  1
  O  O343  1  0.41936373  0.08040657  0.40068647  1
  O  O344  1  0.63039265  0.25833240  0.47658964  1
  O  O345  1  0.69274675  0.77436061  0.46480476  1
  O  O346  1  0.31062825  0.51645750  0.42233443  1
  O  O347  1  0.09260094  0.90169322  0.38100587  1
  O  O348  1  0.69316716  0.31225726  0.41688669  1
  O  O349  1  0.33642002  0.04276962  0.46666230  1
  O  O350  1  0.63405772  0.66507744  0.40546249  1
  O  O351  1  0.37970483  0.64930549  0.47073374  1
  O  O352  1  0.10885148  0.04063039  0.43124490  1
  O  O353  1  0.94139181  0.26017408  0.44047748  1
  O  O354  1  0.96757828  0.79928380  0.45781602  1
  O  O355  1  0.05289827  0.52683416  0.42854531  1
  O  O356  1  0.55239574  0.51759766  0.45431906  1
  O  O357  1  0.49499073  0.79841190  0.42159466  1
  O  O358  1  0.41519424  0.26248814  0.43205610  1
  O  O359  1  0.60397480  0.05968929  0.44038626  1
  O  O360  1  0.14464170  0.71315072  0.48073116  1
  O  O361  1  0.88511632  0.63200628  0.41013603  1
  O  O362  1  0.18638300  0.27653758  0.46151077  1
  O  O363  1  0.82453889  0.98600724  0.41517951  1
  O  O364  1  0.84476273  0.54749857  0.47153394  1
  O  O365  1  0.20424153  0.79977201  0.42515862  1
  O  O366  1  0.09576154  0.22194422  0.39821111  1
  O  O367  1  0.88613475  0.04182571  0.47126394  1
  O  O368  1  0.41605668  0.39253801  0.38058901  1
  O  O369  1  0.54958751  0.92047059  0.49299794  1
  O  O370  1  0.49929105  0.89459879  0.63725514  1
  O  O371  1  0.09568156  0.76059749  0.67274031  1
  O  O372  1  0.93040446  0.69381099  0.52771286  1
  O  O373  1  0.70442475  0.50352349  0.59874497  1
  O  O374  1  0.61420756  0.94156604  0.57568627  1
  O  O375  1  0.02474312  0.21271148  0.54521509  1
  O  O376  1  0.38429154  0.33577629  0.61787425  1
  O  O377  1  0.63985209  0.44895166  0.53229000  1
  O  O378  1  0.98096292  0.73082270  0.58390552  1
  O  O379  1  0.41534389  0.94018671  0.68906911  1
  O  O380  1  0.17546520  0.71773568  0.62019990  1
  O  O381  1  0.47140466  0.36133593  0.67824304  1
  O  O382  1  0.11294984  0.29144613  0.63330834  1
  O  O383  1  0.71470349  0.11209897  0.52995443  1
  O  O384  1  0.92795619  0.09006320  0.59765841  1
  O  O385  1  0.88254492  0.02308033  0.66107771  1
  O  O386  1  0.70297742  0.62621097  0.65237157  1
  O  O387  1  0.77846234  0.16258261  0.64071110  1
  O  O388  1  0.81747186  0.49215735  0.67243353  1
  O  O389  1  0.21935550  0.69502544  0.55436256  1
  O  O390  1  0.40264121  0.48033983  0.56491857  1
  O  O391  1  0.34436699  0.94340498  0.57815972  1
  O  O392  1  0.28477422  0.21826644  0.54679695  1
  O  O393  1  0.19897130  0.12706067  0.65868949  1
  O  O394  1  0.38398861  0.52506982  0.65159246  1
  O  O395  1  0.78355805  0.22068048  0.58126781  1
  O  O396  1  0.84955361  0.94490423  0.54673147  1
  O  O397  1  0.88801368  0.47680803  0.55877887  1
  O  O398  1  0.70793962  0.69115289  0.56665055  1
  O  O399  1  0.31740828  0.99408826  0.63871681  1
  O  O400  1  0.27583592  0.66571638  0.67180764  1
  O  O401  1  0.17579959  0.05210518  0.59246011  1
  O  O402  1  0.42805755  0.07365531  0.52651321  1
  O  O403  1  0.13397684  0.43746080  0.58358118  1
  O  O404  1  0.49109280  0.71305788  0.53419255  1
  O  O405  1  0.92479955  0.44548102  0.62123812  1
  O  O406  1  0.66609260  0.21502925  0.68783075  1
  O  O407  1  0.96520911  0.85434851  0.63451337  1
  O  O408  1  0.61423970  0.79330971  0.67985762  1
  O  O409  1  0.51542388  0.21359934  0.57698782  1
  O  O410  1  0.12809729  0.95640631  0.53437754  1
  O  O411  1  0.20197734  0.50175542  0.52186283  1
  O  O412  1  0.38927139  0.66295733  0.59777734  1
  O  O413  1  0.61289335  0.27614861  0.63379462  1
  O  O414  1  0.99794587  0.39532294  0.67384774  1
  O  O415  1  0.93737470  0.36399440  0.49483940  1
  O  O416  1  0.70264948  0.81719598  0.61934561  1
  O  O417  1  0.49298504  0.38891102  0.82867207  1
  O  O418  1  0.09657816  0.26267840  0.86547025  1
  O  O419  1  0.88076570  0.15619280  0.71188750  1
  O  O420  1  0.70116888  0.99253252  0.78836082  1
  O  O421  1  0.58860119  0.44129889  0.76846034  1
  O  O422  1  0.98996673  0.71010077  0.73217492  1
  O  O423  1  0.19717226  0.31051922  0.69375945  1
  O  O424  1  0.38366321  0.83921584  0.80503810  1
  O  O425  1  0.60798291  0.93280575  0.72769466  1
  O  O426  1  0.96364717  0.21620626  0.77351754  1
  O  O427  1  0.41682284  0.43503215  0.88101451  1
  O  O428  1  0.17026648  0.20949539  0.81336965  1
  O  O429  1  0.47303633  0.86943363  0.86566273  1
  O  O430  1  0.11542990  0.80070262  0.82088317  1
  O  O431  1  0.66427885  0.56375032  0.71657190  1
  O  O432  1  0.91489331  0.58207200  0.78274745  1
  O  O433  1  0.88383995  0.52338481  0.84677642  1
  O  O434  1  0.70561355  0.12720470  0.83885275  1
  O  O435  1  0.77012526  0.66156961  0.82764973  1
  O  O436  1  0.81236910  0.99154312  0.86092528  1
  O  O437  1  0.19780429  0.18260799  0.74685550  1
  O  O438  1  0.37589619  0.96461964  0.75355531  1
  O  O439  1  0.30754701  0.43071345  0.76849207  1
  O  O440  1  0.26815405  0.71698800  0.73321859  1
  O  O441  1  0.20629131  0.63309201  0.84737452  1
  O  O442  1  0.38679157  0.02993674  0.84049499  1
  O  O443  1  0.76925342  0.71801551  0.76708608  1
  O  O444  1  0.80744635  0.42947933  0.73291765  1
  O  O445  1  0.87738604  0.96455342  0.74598133  1
  O  O446  1  0.69565704  0.17941227  0.75345881  1
  O  O447  1  0.31505432  0.48929231  0.82977166  1
  O  O448  1  0.27025568  0.16000338  0.86434400  1
  O  O449  1  0.16840739  0.56702630  0.78452983  1
  O  O450  1  0.40941165  0.57869683  0.71718815  1
  O  O451  1  0.10930892  0.93552924  0.77248793  1
  O  O452  1  0.46499001  0.21977626  0.72683721  1
  O  O453  1  0.91698084  0.93651598  0.81163365  1
  O  O454  1  0.66747947  0.70684740  0.87849353  1
  O  O455  1  0.97782747  0.36385341  0.82132080  1
  O  O456  1  0.62150513  0.29147240  0.86666259  1
  O  O457  1  0.48977930  0.70817873  0.76804930  1
  O  O458  1  0.08692336  0.43922951  0.73359412  1
  O  O459  1  0.20021254  0.99593526  0.71136884  1
  O  O460  1  0.38179527  0.15448714  0.78814411  1
  O  O461  1  0.58962013  0.76038303  0.82731061  1
  O  O462  1  0.97517030  0.87944717  0.86730378  1
  O  O463  1  0.88099879  0.83403319  0.69536738  1
  O  O464  1  0.70139145  0.31287017  0.80489446  1
  O  O465  1  0.88075775  0.64514701  0.90075011  1
  O  O466  1  0.66911430  0.46615658  0.97662673  1
  O  O467  1  0.60679933  0.95061178  0.96481830  1
  O  O468  1  0.98940477  0.20854692  0.92234538  1
  O  O469  1  0.20800738  0.82381456  0.88107737  1
  O  O470  1  0.60653989  0.41298000  0.91694138  1
  O  O471  1  0.96290751  0.68233353  0.96665503  1
  O  O472  1  0.66626563  0.06027339  0.90540301  1
  O  O473  1  0.92026327  0.07631594  0.97082201  1
  O  O474  1  0.19090349  0.68479741  0.93128317  1
  O  O475  1  0.35829987  0.46506111  0.94044799  1
  O  O476  1  0.33223995  0.92591659  0.95799315  1
  O  O477  1  0.24708489  0.19823034  0.92886747  1
  O  O478  1  0.74690958  0.20697401  0.95433626  1
  O  O479  1  0.80541795  0.92689153  0.92160818  1
  O  O480  1  0.88452656  0.46253925  0.93215746  1
  O  O481  1  0.69544440  0.66523542  0.94044770  1
  O  O482  1  0.15380448  0.00961388  0.98109609  1
  O  O483  1  0.41520622  0.09343862  0.91051330  1
  O  O484  1  0.11305484  0.44863394  0.96158927  1
  O  O485  1  0.47513098  0.73908275  0.91534034  1
  O  O486  1  0.45287415  0.17731718  0.97216849  1
  O  O487  1  0.09545659  0.92526052  0.92532699  1
  O  O488  1  0.20451787  0.50377598  0.89824353  1
  O  O489  1  0.41303173  0.68288722  0.97142521  1
  O  O490  1  0.88423974  0.33282844  0.88059116  1
  O  O491  1  0.74930099  0.80472880  0.99303181  1
