# generated using pymatgen
data_Li39La17Zr10O65
_symmetry_space_group_name_H-M   'P 1'
_cell_length_a   11.27162600
_cell_length_b   12.64834664
_cell_length_c   53.85878704
_cell_angle_alpha   90.00000000
_cell_angle_beta   90.00000000
_cell_angle_gamma   124.12984495
_symmetry_Int_Tables_number   1
_chemical_formula_structural   Li39La17Zr10O65
_chemical_formula_sum   'Li156 La68 Zr40 O260'
_cell_volume   6356.02549725
_cell_formula_units_Z   4
loop_
 _symmetry_equiv_pos_site_id
 _symmetry_equiv_pos_as_xyz
  1  'x, y, z'
loop_
 _atom_site_type_symbol
 _atom_site_label
 _atom_site_symmetry_multiplicity
 _atom_site_fract_x
 _atom_site_fract_y
 _atom_site_fract_z
 _atom_site_occupancy
  Li  Li0  1  0.85342398  0.41616491  0.08123017  1
  Li  Li1  1  0.18756135  0.96310933  0.07594052  1
  Li  Li2  1  0.05140337  0.40698674  0.04800017  1
  Li  Li3  1  0.02055074  0.99323683  0.10576641  1
  Li  Li4  1  0.68772915  0.32485364  0.16430610  1
  Li  Li5  1  0.35888419  0.55014699  0.16417008  1
  Li  Li6  1  0.61925543  0.70798066  0.00585515  1
  Li  Li7  1  0.53602688  0.75533977  0.13400684  1
  Li  Li8  1  0.27621391  0.67769746  0.14631191  1
  Li  Li9  1  0.77687184  0.17470099  0.18271108  1
  Li  Li10  1  0.42607928  0.53552696  0.11782243  1
  Li  Li11  1  0.62784050  0.91940580  0.03518137  1
  Li  Li12  1  0.27416383  0.19307972  0.09735200  1
  Li  Li13  1  0.78413466  0.19476782  0.06202651  1
  Li  Li14  1  0.12756306  0.85883222  0.11833525  1
  Li  Li15  1  0.87166388  0.44657780  0.03792374  1
  Li  Li16  1  0.02422154  0.63511678  0.13323117  1
  Li  Li17  1  0.87384613  0.65161748  0.01029438  1
  Li  Li18  1  0.36018352  0.41889144  0.07790379  1
  Li  Li19  1  0.69291470  0.97446716  0.07842509  1
  Li  Li20  1  0.53181976  0.38317171  0.10665753  1
  Li  Li21  1  0.38302118  0.92831317  0.04687512  1
  Li  Li22  1  0.19022442  0.82799415  0.16394074  1
  Li  Li23  1  0.85396679  0.04383570  0.16080000  1
  Li  Li24  1  0.77226916  0.44380778  0.12102797  1
  Li  Li25  1  0.11642383  0.77029718  0.02283739  1
  Li  Li26  1  0.31406668  0.44634469  0.03468909  1
  Li  Li27  1  0.77364161  0.94052353  0.11889360  1
  Li  Li28  1  0.85352086  0.90751395  0.24935852  1
  Li  Li29  1  0.18697603  0.46256880  0.24809707  1
  Li  Li30  1  0.01999663  0.88325789  0.22016758  1
  Li  Li31  1  0.01037140  0.49236906  0.27921882  1
  Li  Li32  1  0.69268378  0.82961279  0.33570394  1
  Li  Li33  1  0.35196133  0.04162064  0.34001771  1
  Li  Li34  1  0.52342268  0.13584020  0.19324030  1
  Li  Li35  1  0.53319532  0.25567223  0.30720510  1
  Li  Li36  1  0.27787602  0.17319972  0.31697638  1
  Li  Li37  1  0.77770305  0.67780504  0.35306029  1
  Li  Li38  1  0.41152265  0.02466584  0.29484799  1
  Li  Li39  1  0.62833570  0.38561840  0.20731583  1
  Li  Li40  1  0.26820114  0.66962958  0.26827855  1
  Li  Li41  1  0.76702613  0.66924796  0.23119620  1
  Li  Li42  1  0.12758013  0.38312312  0.29330256  1
  Li  Li43  1  0.91277530  0.02508307  0.20571976  1
  Li  Li44  1  0.02143808  0.13355908  0.30703247  1
  Li  Li45  1  0.03193871  0.25510262  0.19247647  1
  Li  Li46  1  0.35303579  0.90802800  0.25056798  1
  Li  Li47  1  0.68696799  0.46293106  0.25241395  1
  Li  Li48  1  0.51726369  0.88318443  0.27962888  1
  Li  Li49  1  0.50847259  0.49306260  0.22089168  1
  Li  Li50  1  0.18681164  0.32119757  0.33486807  1
  Li  Li51  1  0.86016067  0.54882686  0.33593838  1
  Li  Li52  1  0.77220076  0.93898998  0.29306119  1
  Li  Li53  1  0.27135311  0.43967194  0.20631079  1
  Li  Li54  1  0.27257930  0.93918613  0.20699621  1
  Li  Li55  1  0.77302144  0.44037498  0.29396938  1
  Li  Li56  1  0.82598657  0.42597212  0.42789903  1
  Li  Li57  1  0.19644151  0.97134944  0.42396287  1
  Li  Li58  1  0.04365547  0.38602704  0.39495338  1
  Li  Li59  1  0.89831781  0.88949387  0.46200037  1
  Li  Li60  1  0.52995346  0.63878696  0.36639094  1
  Li  Li61  1  0.49349062  0.68891059  0.48074711  1
  Li  Li62  1  0.69378609  0.63501884  0.45272450  1
  Li  Li63  1  0.62979451  0.85167637  0.38173400  1
  Li  Li64  1  0.27685816  0.18157614  0.43560839  1
  Li  Li65  1  0.79141088  0.23195032  0.40268215  1
  Li  Li66  1  0.13687964  0.92745556  0.46908906  1
  Li  Li67  1  0.91633193  0.52287586  0.38330137  1
  Li  Li68  1  0.13071139  0.74134663  0.49078720  1
  Li  Li69  1  0.03087068  0.74777783  0.36532244  1
  Li  Li70  1  0.33286014  0.40992151  0.41940012  1
  Li  Li71  1  0.68359131  0.99159428  0.41655282  1
  Li  Li72  1  0.43960190  0.39085031  0.45301745  1
  Li  Li73  1  0.51205440  0.99695802  0.39341519  1
  Li  Li74  1  0.70629476  0.44922757  0.46374614  1
  Li  Li75  1  0.27131957  0.93975310  0.38200741  1
  Li  Li76  1  0.27993455  0.44922600  0.37915178  1
  Li  Li77  1  0.70994436  0.93366400  0.46807745  1
  Li  Li78  1  0.22403095  0.23356887  0.58126741  1
  Li  Li79  1  0.88655684  0.68819311  0.57617488  1
  Li  Li80  1  0.02433272  0.24353907  0.54779816  1
  Li  Li81  1  0.05699385  0.65851661  0.60549280  1
  Li  Li82  1  0.38485366  0.32408117  0.66395695  1
  Li  Li83  1  0.71640238  0.09955373  0.66449490  1
  Li  Li84  1  0.45931277  0.95018466  0.50718230  1
  Li  Li85  1  0.54169002  0.89621917  0.63406540  1
  Li  Li86  1  0.79886634  0.96947282  0.64534366  1
  Li  Li87  1  0.29869062  0.47405195  0.68193910  1
  Li  Li88  1  0.64945018  0.11494532  0.61884105  1
  Li  Li89  1  0.43201251  0.68974399  0.53860006  1
  Li  Li90  1  0.80296569  0.46300543  0.59685093  1
  Li  Li91  1  0.29178397  0.45286747  0.56180274  1
  Li  Li92  1  0.94475978  0.78954872  0.61866678  1
  Li  Li93  1  0.20163412  0.19782345  0.53807989  1
  Li  Li94  1  0.05118569  0.01683866  0.63320843  1
  Li  Li95  1  0.20227378  0.99876218  0.50967246  1
  Li  Li96  1  0.71607219  0.23524978  0.57881041  1
  Li  Li97  1  0.37463588  0.67962334  0.58036538  1
  Li  Li98  1  0.54519132  0.26217758  0.60623101  1
  Li  Li99  1  0.69391152  0.71328986  0.54486744  1
  Li  Li100  1  0.88289339  0.82126971  0.66348770  1
  Li  Li101  1  0.21788496  0.60317045  0.66116467  1
  Li  Li102  1  0.30316345  0.20651877  0.62087864  1
  Li  Li103  1  0.97172259  0.88444489  0.52465483  1
  Li  Li104  1  0.76106038  0.20418482  0.53496638  1
  Li  Li105  1  0.30215477  0.71243513  0.61965651  1
  Li  Li106  1  0.22172260  0.74336778  0.74929148  1
  Li  Li107  1  0.88715252  0.18712126  0.74797660  1
  Li  Li108  1  0.05358946  0.76750879  0.72022400  1
  Li  Li109  1  0.06234203  0.15776225  0.77896591  1
  Li  Li110  1  0.38308708  0.81964624  0.83554162  1
  Li  Li111  1  0.72265589  0.60647160  0.83950119  1
  Li  Li112  1  0.55170373  0.51297057  0.69264195  1
  Li  Li113  1  0.54269607  0.39504357  0.80688268  1
  Li  Li114  1  0.79762958  0.47361328  0.81685423  1
  Li  Li115  1  0.29723860  0.96707694  0.85253210  1
  Li  Li116  1  0.66336769  0.62665824  0.79454120  1
  Li  Li117  1  0.44462260  0.26498880  0.70741194  1
  Li  Li118  1  0.80566813  0.97707867  0.76782479  1
  Li  Li119  1  0.30765872  0.98111814  0.73053778  1
  Li  Li120  1  0.94728862  0.26899903  0.79345531  1
  Li  Li121  1  0.16148215  0.62860479  0.70611610  1
  Li  Li122  1  0.05438520  0.51715341  0.80702836  1
  Li  Li123  1  0.04302784  0.39637520  0.69251783  1
  Li  Li124  1  0.72300199  0.74061285  0.75002884  1
  Li  Li125  1  0.38700912  0.18747857  0.75241205  1
  Li  Li126  1  0.55710990  0.76470240  0.77924118  1
  Li  Li127  1  0.56643693  0.15705278  0.72054781  1
  Li  Li128  1  0.88708226  0.32700807  0.83541325  1
  Li  Li129  1  0.21519793  0.10003904  0.83606501  1
  Li  Li130  1  0.30325007  0.71149961  0.79295383  1
  Li  Li131  1  0.80339873  0.21022176  0.70626377  1
  Li  Li132  1  0.80284342  0.71153313  0.70655805  1
  Li  Li133  1  0.30155478  0.20971363  0.79397021  1
  Li  Li134  1  0.25213302  0.22427405  0.92820300  1
  Li  Li135  1  0.88023566  0.67895930  0.92392223  1
  Li  Li136  1  0.03308898  0.26547748  0.89490357  1
  Li  Li137  1  0.17546849  0.75869870  0.96173529  1
  Li  Li138  1  0.54649347  0.01042729  0.86601203  1
  Li  Li139  1  0.58255792  0.95735799  0.98073672  1
  Li  Li140  1  0.38094466  0.01321803  0.95249792  1
  Li  Li141  1  0.44739615  0.79835312  0.88176902  1
  Li  Li142  1  0.79880627  0.46886209  0.93549138  1
  Li  Li143  1  0.28363435  0.41705727  0.90237630  1
  Li  Li144  1  0.93730678  0.72034366  0.96906042  1
  Li  Li145  1  0.16092200  0.12893828  0.88334559  1
  Li  Li146  1  0.94570654  0.90941624  0.99089394  1
  Li  Li147  1  0.04458522  0.90189340  0.86534224  1
  Li  Li148  1  0.74168706  0.24018810  0.91971108  1
  Li  Li149  1  0.39156502  0.65947614  0.91707917  1
  Li  Li150  1  0.63535316  0.25871978  0.95330412  1
  Li  Li151  1  0.56101368  0.65146478  0.89351520  1
  Li  Li152  1  0.37148039  0.20094216  0.96383974  1
  Li  Li153  1  0.80332947  0.70949427  0.88179135  1
  Li  Li154  1  0.79666901  0.20130749  0.87929401  1
  Li  Li155  1  0.36460974  0.71549660  0.96782361  1
  La  La156  1  0.15713064  0.51424448  0.09764351  1
  La  La157  1  0.88607129  0.87809771  0.05379969  1
  La  La158  1  0.39282514  0.12395358  0.14229792  1
  La  La159  1  0.63095438  0.21100080  0.01575359  1
  La  La160  1  0.26631318  0.18136736  0.03700446  1
  La  La161  1  0.77661884  0.19449720  0.12161619  1
  La  La162  1  0.77135191  0.69266136  0.11765006  1
  La  La163  1  0.64984263  0.49573117  0.05560393  1
  La  La164  1  0.40727415  0.87963617  0.10139129  1
  La  La165  1  0.93544110  0.15814418  0.01426957  1
  La  La166  1  0.15636369  0.26010990  0.14180028  1
  La  La167  1  0.14763382  0.00165710  0.27112085  1
  La  La168  1  0.89094850  0.37486987  0.22735291  1
  La  La169  1  0.39595950  0.62820089  0.31538189  1
  La  La170  1  0.65261257  0.75426872  0.18591453  1
  La  La171  1  0.27179822  0.68895849  0.20703525  1
  La  La172  1  0.77179292  0.68935996  0.29258981  1
  La  La173  1  0.77137365  0.18877574  0.29347914  1
  La  La174  1  0.27094991  0.18877287  0.20650587  1
  La  La175  1  0.64733284  0.00207481  0.22879701  1
  La  La176  1  0.38978507  0.37494605  0.27233795  1
  La  La177  1  0.89512961  0.62742057  0.18441911  1
  La  La178  1  0.15029555  0.75153635  0.31360001  1
  La  La179  1  0.14862443  0.51471360  0.44497184  1
  La  La180  1  0.91471097  0.87872938  0.39864084  1
  La  La181  1  0.48240409  0.18816304  0.48610615  1
  La  La182  1  0.65602271  0.26060788  0.35769624  1
  La  La183  1  0.27877106  0.19502551  0.37826910  1
  La  La184  1  0.79256580  0.19830726  0.46165840  1
  La  La185  1  0.27345626  0.69551302  0.38232072  1
  La  La186  1  0.64459180  0.51195350  0.40103073  1
  La  La187  1  0.38293977  0.88435603  0.45085375  1
  La  La188  1  0.89006930  0.12100824  0.35824474  1
  La  La189  1  0.09798254  0.17116586  0.48643454  1
  La  La190  1  0.91782608  0.13839066  0.59756076  1
  La  La191  1  0.18722900  0.77622636  0.55373604  1
  La  La192  1  0.68051235  0.52501380  0.64177348  1
  La  La193  1  0.44142117  0.43094863  0.51543421  1
  La  La194  1  0.80895156  0.46840566  0.53665295  1
  La  La195  1  0.29886432  0.45657939  0.62099298  1
  La  La196  1  0.30198238  0.95782272  0.61814949  1
  La  La197  1  0.42578631  0.14398472  0.55509372  1
  La  La198  1  0.66781635  0.77053856  0.59985139  1
  La  La199  1  0.13842319  0.48972354  0.51394233  1
  La  La200  1  0.91773405  0.39069071  0.64173732  1
  La  La201  1  0.92696138  0.64813689  0.77107416  1
  La  La202  1  0.18301554  0.27542025  0.72716550  1
  La  La203  1  0.67920706  0.02147731  0.81499488  1
  La  La204  1  0.42120318  0.89470209  0.68555395  1
  La  La205  1  0.80241466  0.96056678  0.70662216  1
  La  La206  1  0.30319244  0.96058527  0.79225509  1
  La  La207  1  0.30359982  0.46124369  0.79336369  1
  La  La208  1  0.80309091  0.46102875  0.70647060  1
  La  La209  1  0.42761065  0.64729514  0.72825722  1
  La  La210  1  0.68471138  0.27442747  0.77206849  1
  La  La211  1  0.17848139  0.02265131  0.68438497  1
  La  La212  1  0.92486062  0.89855792  0.81353170  1
  La  La213  1  0.92754007  0.13562766  0.94500765  1
  La  La214  1  0.16121998  0.77144774  0.89852782  1
  La  La215  1  0.59551412  0.46227933  0.98643887  1
  La  La216  1  0.41973711  0.38931511  0.85755361  1
  La  La217  1  0.79676518  0.45494299  0.87818880  1
  La  La218  1  0.28324123  0.45157354  0.96157686  1
  La  La219  1  0.80311483  0.95493505  0.88222646  1
  La  La220  1  0.43130607  0.13758903  0.90080033  1
  La  La221  1  0.69330289  0.76551122  0.95032566  1
  La  La222  1  0.18563014  0.52916044  0.85817741  1
  La  La223  1  0.97615167  0.47520838  0.98647819  1
  Zr  Zr224  1  0.02325063  0.44299722  0.16326609  1
  Zr  Zr225  1  0.51592205  0.70137212  0.07167154  1
  Zr  Zr226  1  0.52425339  0.18512742  0.07881359  1
  Zr  Zr227  1  0.02335555  0.94027300  0.16252894  1
  Zr  Zr228  1  0.02021413  0.69135926  0.07402385  1
  Zr  Zr229  1  0.02748926  0.19628468  0.07843603  1
  Zr  Zr230  1  0.52424528  0.44182932  0.16272249  1
  Zr  Zr231  1  0.52423246  0.94010003  0.16457280  1
  Zr  Zr232  1  0.02491132  0.93890174  0.33537013  1
  Zr  Zr233  1  0.52009973  0.18882400  0.25037291  1
  Zr  Zr234  1  0.52120034  0.68957796  0.25025549  1
  Zr  Zr235  1  0.02549394  0.44115032  0.33822778  1
  Zr  Zr236  1  0.02007029  0.18883396  0.24996122  1
  Zr  Zr237  1  0.02082929  0.68826260  0.24954286  1
  Zr  Zr238  1  0.52467738  0.93990899  0.33780602  1
  Zr  Zr239  1  0.52427013  0.44419313  0.33595680  1
  Zr  Zr240  1  0.51770262  0.69515181  0.42711669  1
  Zr  Zr241  1  0.53101002  0.20111603  0.42088089  1
  Zr  Zr242  1  0.01556937  0.69705805  0.42778876  1
  Zr  Zr243  1  0.02830936  0.17632627  0.42265451  1
  Zr  Zr244  1  0.05078315  0.20771999  0.66302326  1
  Zr  Zr245  1  0.55751149  0.95485653  0.57258728  1
  Zr  Zr246  1  0.54941272  0.46073410  0.57832451  1
  Zr  Zr247  1  0.05025396  0.70937676  0.66259188  1
  Zr  Zr248  1  0.05171479  0.95970227  0.57468032  1
  Zr  Zr249  1  0.05006824  0.45646529  0.57811222  1
  Zr  Zr250  1  0.54976978  0.20823307  0.66296182  1
  Zr  Zr251  1  0.55132705  0.71007324  0.66382760  1
  Zr  Zr252  1  0.04972683  0.71076242  0.83520194  1
  Zr  Zr253  1  0.55453494  0.46106628  0.75016827  1
  Zr  Zr254  1  0.55299786  0.95952983  0.74989340  1
  Zr  Zr255  1  0.04994415  0.20885579  0.83819852  1
  Zr  Zr256  1  0.05478701  0.46130770  0.74999767  1
  Zr  Zr257  1  0.05411577  0.96230547  0.74943988  1
  Zr  Zr258  1  0.55114791  0.71009711  0.83766796  1
  Zr  Zr259  1  0.55088062  0.20539384  0.83578925  1
  Zr  Zr260  1  0.55856202  0.95512357  0.92703318  1
  Zr  Zr261  1  0.54465005  0.44859012  0.92087229  1
  Zr  Zr262  1  0.06074926  0.95329333  0.92780423  1
  Zr  Zr263  1  0.04756467  0.47394483  0.92259432  1
  O  O264  1  0.82382579  0.87639275  0.14629143  1
  O  O265  1  0.22388928  0.00656277  0.17953703  1
  O  O266  1  0.42910836  0.10434459  0.04287344  1
  O  O267  1  0.61396810  0.27306370  0.11295956  1
  O  O268  1  0.72184334  0.83054685  0.09039212  1
  O  O269  1  0.32260300  0.54213655  0.06194993  1
  O  O270  1  0.93129197  0.43417320  0.12845405  1
  O  O271  1  0.70041157  0.32634416  0.05703412  1
  O  O272  1  0.34508198  0.04054391  0.09838056  1
  O  O273  1  0.90871369  0.33172043  0.02123371  1
  O  O274  1  0.14930695  0.05965536  0.13249590  1
  O  O275  1  0.03078344  0.02095615  0.01939298  1
  O  O276  1  0.20357638  0.48542489  0.14211011  1
  O  O277  1  0.64207781  0.74945310  0.03997397  1
  O  O278  1  0.40568082  0.68587582  0.10676899  1
  O  O279  1  0.43671488  0.74213570  0.16774950  1
  O  O280  1  0.61644388  0.13933406  0.16110969  1
  O  O281  1  0.54314186  0.60481930  0.14713764  1
  O  O282  1  0.50299737  0.27804099  0.17949765  1
  O  O283  1  0.11681793  0.08381269  0.07359452  1
  O  O284  1  0.94422837  0.30655846  0.08186630  1
  O  O285  1  0.99286649  0.83224138  0.09207056  1
  O  O286  1  0.02364865  0.53953258  0.06192490  1
  O  O287  1  0.11627288  0.64131605  0.16676610  1
  O  O288  1  0.93615100  0.24513090  0.15977832  1
  O  O289  1  0.55399700  0.55770921  0.08903373  1
  O  O290  1  0.49546406  0.85030886  0.06274069  1
  O  O291  1  0.43401173  0.29550626  0.07470120  1
  O  O292  1  0.62739281  0.09252707  0.08454848  1
  O  O293  1  0.00722003  0.77854779  0.14721172  1
  O  O294  1  0.04459014  0.10513180  0.17847207  1
  O  O295  1  0.14839921  0.70898062  0.10506430  1
  O  O296  1  0.88377902  0.68505718  0.04513795  1
  O  O297  1  0.20456689  0.33375525  0.09931727  1
  O  O298  1  0.84608512  0.06582156  0.05575496  1
  O  O299  1  0.40230215  0.32278710  0.13291858  1
  O  O300  1  0.66749842  0.04671957  0.01021455  1
  O  O301  1  0.35027287  0.90749888  0.14346778  1
  O  O302  1  0.76842235  0.46180596  0.00904622  1
  O  O303  1  0.81392606  0.55275626  0.09208853  1
  O  O304  1  0.18930571  0.83639807  0.05456595  1
  O  O305  1  0.13568430  0.28328705  0.04311556  1
  O  O306  1  0.93245307  0.11059371  0.11197780  1
  O  O307  1  0.72500922  0.51121901  0.14734869  1
  O  O308  1  0.32169189  0.37662524  0.17897478  1
  O  O309  1  0.44997924  0.40482458  0.02344310  1
  O  O310  1  0.61794705  0.95058981  0.12985046  1
  O  O311  1  0.82209479  0.37603361  0.32178566  1
  O  O312  1  0.22548976  0.51303945  0.35369922  1
  O  O313  1  0.42803283  0.60713326  0.21546882  1
  O  O314  1  0.61381080  0.76984976  0.28504565  1
  O  O315  1  0.72004908  0.32325827  0.26707258  1
  O  O316  1  0.31924523  0.05515063  0.23408246  1
  O  O317  1  0.11361071  0.45093722  0.19828679  1
  O  O318  1  0.93229347  0.92711775  0.30054087  1
  O  O319  1  0.69448128  0.83247954  0.22869208  1
  O  O320  1  0.33925567  0.54883400  0.27112762  1
  O  O321  1  0.89840318  0.82232596  0.19286786  1
  O  O322  1  0.14203007  0.55051397  0.30607737  1
  O  O323  1  0.84822562  0.41098413  0.18473474  1
  O  O324  1  0.20768270  0.97793673  0.31501661  1
  O  O325  1  0.64512473  0.19526177  0.22047125  1
  O  O326  1  0.39775428  0.18001233  0.28149819  1
  O  O327  1  0.43746418  0.24657313  0.33985513  1
  O  O328  1  0.61871410  0.64320897  0.33258160  1
  O  O329  1  0.54508925  0.10454086  0.32194341  1
  O  O330  1  0.50758330  0.77727660  0.35301886  1
  O  O331  1  0.10836032  0.57808710  0.24607879  1
  O  O332  1  0.92765976  0.79439589  0.25265316  1
  O  O333  1  0.99892226  0.33201925  0.26541489  1
  O  O334  1  0.03856148  0.04486211  0.23379021  1
  O  O335  1  0.11595223  0.13855584  0.33917433  1
  O  O336  1  0.93739141  0.74060943  0.33176278  1
  O  O337  1  0.53799684  0.04458598  0.26655549  1
  O  O338  1  0.49896187  0.33219921  0.23504545  1
  O  O339  1  0.42763838  0.79552361  0.24720311  1
  O  O340  1  0.60828429  0.57936263  0.25376842  1
  O  O341  1  0.00280511  0.27707931  0.32124140  1
  O  O342  1  0.04273691  0.60323023  0.35347701  1
  O  O343  1  0.14433492  0.19473322  0.27992158  1
  O  O344  1  0.89879855  0.18043963  0.21872239  1
  O  O345  1  0.19391326  0.83081161  0.27125351  1
  O  O346  1  0.83868693  0.54638522  0.22893000  1
  O  O347  1  0.39799927  0.82273936  0.30747402  1
  O  O348  1  0.64274130  0.55250035  0.19462260  1
  O  O349  1  0.34735576  0.41226878  0.31489126  1
  O  O350  1  0.70646072  0.97921231  0.18497956  1
  O  O351  1  0.81912442  0.05603207  0.26627552  1
  O  O352  1  0.22065009  0.32482932  0.23362713  1
  O  O353  1  0.11407580  0.76891279  0.21489494  1
  O  O354  1  0.92982814  0.60630153  0.28456274  1
  O  O355  1  0.72628144  0.00573912  0.32119836  1
  O  O356  1  0.32817073  0.87629687  0.35530187  1
  O  O357  1  0.43218779  0.92760420  0.19937234  1
  O  O358  1  0.61362423  0.45151749  0.30091756  1
  O  O359  1  0.43589484  0.11331698  0.38726133  1
  O  O360  1  0.66911709  0.29482395  0.45337126  1
  O  O361  1  0.67920338  0.78213237  0.45513504  1
  O  O362  1  0.31007459  0.55580823  0.40926499  1
  O  O363  1  0.12005526  0.94741634  0.36925115  1
  O  O364  1  0.70950538  0.34522079  0.40032754  1
  O  O365  1  0.35863499  0.08649024  0.44564438  1
  O  O366  1  0.90541582  0.32173124  0.36857554  1
  O  O367  1  0.02594515  0.96155338  0.49201096  1
  O  O368  1  0.85084288  0.90402120  0.35678814  1
  O  O369  1  0.01255511  0.37085109  0.47869369  1
  O  O370  1  0.65100084  0.71576492  0.39597461  1
  O  O371  1  0.38426597  0.69281045  0.45523840  1
  O  O372  1  0.12496621  0.07916194  0.41390297  1
  O  O373  1  0.94905937  0.29386168  0.42587842  1
  O  O374  1  0.01221858  0.84926048  0.43993368  1
  O  O375  1  0.03772562  0.55057725  0.41140661  1
  O  O376  1  0.51587008  0.53678212  0.43495419  1
  O  O377  1  0.50343916  0.83689458  0.40858421  1
  O  O378  1  0.43572293  0.30367231  0.41617730  1
  O  O379  1  0.61852668  0.09329859  0.42389885  1
  O  O380  1  0.12560961  0.68611036  0.45760227  1
  O  O381  1  0.90598475  0.68455056  0.39301641  1
  O  O382  1  0.21013304  0.28183330  0.44852839  1
  O  O383  1  0.85481128  0.03823816  0.40154649  1
  O  O384  1  0.54448303  0.40453489  0.48171074  1
  O  O385  1  0.65061210  0.05868292  0.36754433  1
  O  O386  1  0.29156031  0.92749520  0.48898236  1
  O  O387  1  0.70269181  0.48510466  0.35685698  1
  O  O388  1  0.80420787  0.56489164  0.43906440  1
  O  O389  1  0.22541242  0.83471236  0.41140084  1
  O  O390  1  0.13410365  0.28154176  0.39106452  1
  O  O391  1  0.90222065  0.07856594  0.45659487  1
  O  O392  1  0.43660634  0.44202748  0.37056692  1
  O  O393  1  0.59368673  0.99969653  0.47821085  1
  O  O394  1  0.25066332  0.77363417  0.64669140  1
  O  O395  1  0.84905761  0.64248147  0.67916052  1
  O  O396  1  0.64657223  0.54225730  0.54219942  1
  O  O397  1  0.45920129  0.37567768  0.61242397  1
  O  O398  1  0.34824669  0.82094805  0.59058757  1
  O  O399  1  0.75271474  0.11143473  0.56267048  1
  O  O400  1  0.14371034  0.21649355  0.62833175  1
  O  O401  1  0.37367605  0.32165828  0.55671234  1
  O  O402  1  0.72883695  0.60590122  0.59812368  1
  O  O403  1  0.16348136  0.31379659  0.52092253  1
  O  O404  1  0.92660598  0.59093477  0.63222784  1
  O  O405  1  0.04794406  0.63215361  0.51950509  1
  O  O406  1  0.87052728  0.16652735  0.64198076  1
  O  O407  1  0.43411424  0.95049528  0.54304582  1
  O  O408  1  0.66884819  0.96542261  0.60683408  1
  O  O409  1  0.63877432  0.90754972  0.66724368  1
  O  O410  1  0.45858564  0.51048346  0.66041633  1
  O  O411  1  0.53077983  0.04457524  0.64769389  1
  O  O412  1  0.57021451  0.37149333  0.67945724  1
  O  O413  1  0.96099091  0.56894868  0.57321855  1
  O  O414  1  0.13317278  0.34631146  0.58189337  1
  O  O415  1  0.07966161  0.81790137  0.59187104  1
  O  O416  1  0.04967105  0.11206517  0.56253679  1
  O  O417  1  0.95821272  0.00923348  0.66651899  1
  O  O418  1  0.13851147  0.40597216  0.65940982  1
  O  O419  1  0.52363546  0.09751835  0.59111710  1
  O  O420  1  0.56603446  0.80273929  0.56243873  1
  O  O421  1  0.64255314  0.35304991  0.57429453  1
  O  O422  1  0.45095504  0.55894838  0.58347613  1
  O  O423  1  0.06723895  0.87153604  0.64719922  1
  O  O424  1  0.02958523  0.54509704  0.67863751  1
  O  O425  1  0.92424619  0.94263591  0.60558875  1
  O  O426  1  0.17468752  0.96143085  0.54419396  1
  O  O427  1  0.87492886  0.32146446  0.59927030  1
  O  O428  1  0.23465942  0.58787422  0.55514012  1
  O  O429  1  0.67199316  0.32660653  0.63307024  1
  O  O430  1  0.40620058  0.59539721  0.51004940  1
  O  O431  1  0.72482262  0.74257754  0.64243626  1
  O  O432  1  0.30722730  0.18648610  0.50859014  1
  O  O433  1  0.25946796  0.09474386  0.59188734  1
  O  O434  1  0.87740581  0.81374806  0.55591387  1
  O  O435  1  0.94267809  0.36760689  0.54293609  1
  O  O436  1  0.14802776  0.54414204  0.61124511  1
  O  O437  1  0.34874541  0.13913950  0.64745417  1
  O  O438  1  0.75251223  0.27424944  0.67916079  1
  O  O439  1  0.62981863  0.25001301  0.52282036  1
  O  O440  1  0.45851739  0.70061473  0.62888010  1
  O  O441  1  0.25336787  0.27400201  0.82180851  1
  O  O442  1  0.85021044  0.13756859  0.85368501  1
  O  O443  1  0.64622281  0.04205262  0.71502964  1
  O  O444  1  0.46048131  0.87978576  0.78465535  1
  O  O445  1  0.35482500  0.32697013  0.76695727  1
  O  O446  1  0.75546517  0.59585809  0.73389618  1
  O  O447  1  0.96065272  0.19941751  0.69805156  1
  O  O448  1  0.14243078  0.72251319  0.80035905  1
  O  O449  1  0.37932743  0.81583213  0.72829850  1
  O  O450  1  0.73448257  0.09985658  0.77081375  1
  O  O451  1  0.17499414  0.82685968  0.69293807  1
  O  O452  1  0.93291772  0.09941973  0.80610294  1
  O  O453  1  0.22562230  0.23993777  0.68458759  1
  O  O454  1  0.86760949  0.67213587  0.81478701  1
  O  O455  1  0.43003284  0.45424626  0.72009650  1
  O  O456  1  0.67737341  0.46963082  0.78115434  1
  O  O457  1  0.63793949  0.40323895  0.83961524  1
  O  O458  1  0.45746206  0.00644241  0.83226425  1
  O  O459  1  0.53031360  0.54538137  0.82168190  1
  O  O460  1  0.56843047  0.87272424  0.85287270  1
  O  O461  1  0.96598564  0.07193244  0.74583603  1
  O  O462  1  0.14723872  0.85612390  0.75246906  1
  O  O463  1  0.07520534  0.31772812  0.76544146  1
  O  O464  1  0.03543127  0.60513779  0.73393614  1
  O  O465  1  0.95950555  0.51144876  0.83916330  1
  O  O466  1  0.13764606  0.90920207  0.83157214  1
  O  O467  1  0.53668714  0.60502622  0.76628478  1
  O  O468  1  0.57593690  0.31781151  0.73489955  1
  O  O469  1  0.64652148  0.85326130  0.74669266  1
  O  O470  1  0.46629372  0.06995584  0.75339052  1
  O  O471  1  0.07281718  0.37318715  0.82134901  1
  O  O472  1  0.03274151  0.04677314  0.85352292  1
  O  O473  1  0.93046305  0.45488077  0.77998347  1
  O  O474  1  0.17585550  0.46974660  0.71874496  1
  O  O475  1  0.88062366  0.81983169  0.77108673  1
  O  O476  1  0.23596663  0.10448919  0.72876957  1
  O  O477  1  0.67658782  0.82648522  0.80713816  1
  O  O478  1  0.43038704  0.09656290  0.69464469  1
  O  O479  1  0.72853832  0.23812404  0.81469901  1
  O  O480  1  0.36947700  0.66987178  0.68442791  1
  O  O481  1  0.25585958  0.59362351  0.76624884  1
  O  O482  1  0.85401276  0.32497000  0.73359350  1
  O  O483  1  0.96112826  0.88124722  0.71469266  1
  O  O484  1  0.14509152  0.04390649  0.78436575  1
  O  O485  1  0.34927365  0.64488272  0.82114060  1
  O  O486  1  0.74787998  0.77407495  0.85503113  1
  O  O487  1  0.64380405  0.72279000  0.69859062  1
  O  O488  1  0.46128161  0.19783182  0.80068568  1
  O  O489  1  0.63933380  0.53627669  0.88721242  1
  O  O490  1  0.40742244  0.35513791  0.95355669  1
  O  O491  1  0.39591148  0.86657553  0.95479747  1
  O  O492  1  0.76617720  0.09473428  0.90926377  1
  O  O493  1  0.95544433  0.70255604  0.86915807  1
  O  O494  1  0.36605087  0.30432256  0.90029482  1
  O  O495  1  0.71731006  0.56338050  0.94552653  1
  O  O496  1  0.17052867  0.32846504  0.86857124  1
  O  O497  1  0.04905738  0.68636144  0.99186649  1
  O  O498  1  0.22490115  0.74748204  0.85659482  1
  O  O499  1  0.06114058  0.28128221  0.97888298  1
  O  O500  1  0.42559308  0.93442536  0.89578075  1
  O  O501  1  0.69208249  0.95711513  0.95498306  1
  O  O502  1  0.95090675  0.57089524  0.91380801  1
  O  O503  1  0.12672108  0.35632801  0.92585562  1
  O  O504  1  0.06332445  0.80049133  0.93992830  1
  O  O505  1  0.03841564  0.09947469  0.91144326  1
  O  O506  1  0.55946830  0.11300338  0.93500915  1
  O  O507  1  0.57276685  0.81286477  0.90858616  1
  O  O508  1  0.63996404  0.34603405  0.91609670  1
  O  O509  1  0.45638737  0.55593883  0.92375910  1
  O  O510  1  0.95046141  0.96401003  0.95760790  1
  O  O511  1  0.17016188  0.96543856  0.89303717  1
  O  O512  1  0.86482158  0.36810153  0.94850683  1
  O  O513  1  0.22122417  0.61205656  0.90151942  1
  O  O514  1  0.53119420  0.24366394  0.98230040  1
  O  O515  1  0.42497580  0.59096723  0.86732150  1
  O  O516  1  0.78378217  0.72058958  0.98887897  1
  O  O517  1  0.37350580  0.16496425  0.85678028  1
  O  O518  1  0.27211267  0.08494577  0.93912950  1
  O  O519  1  0.85079219  0.81537098  0.91130930  1
  O  O520  1  0.94283365  0.36935758  0.89086327  1
  O  O521  1  0.17237042  0.57044311  0.95655811  1
  O  O522  1  0.64006057  0.20860854  0.87028745  1
  O  O523  1  0.48204192  0.65215112  0.97739637  1
