# generated using pymatgen
data_Li56La22Zr14O89
_symmetry_space_group_name_H-M   'P 1'
_cell_length_a   18.66058700
_cell_length_b   13.19488265
_cell_length_c   48.30965628
_cell_angle_alpha   90.00000000
_cell_angle_beta   90.00000000
_cell_angle_gamma   45.00062637
_symmetry_Int_Tables_number   1
_chemical_formula_structural   Li56La22Zr14O89
_chemical_formula_sum   'Li224 La88 Zr56 O356'
_cell_volume   8411.13358993
_cell_formula_units_Z   4
loop_
 _symmetry_equiv_pos_site_id
 _symmetry_equiv_pos_as_xyz
  1  'x, y, z'
loop_
 _atom_site_type_symbol
 _atom_site_label
 _atom_site_symmetry_multiplicity
 _atom_site_fract_x
 _atom_site_fract_y
 _atom_site_fract_z
 _atom_site_occupancy
  Li  Li0  1  0.13576778  0.10724250  0.10468455  1
  Li  Li1  1  0.31477548  0.77530859  0.99795819  1
  Li  Li2  1  0.60398071  0.00044519  0.99815508  1
  Li  Li3  1  0.79160977  0.94948709  0.10217178  1
  Li  Li4  1  0.29102566  0.28886996  0.10313432  1
  Li  Li5  1  0.21302229  0.64523038  0.00354060  1
  Li  Li6  1  0.76144418  0.52170327  0.00634974  1
  Li  Li7  1  0.63293900  0.45253321  0.10504844  1
  Li  Li8  1  0.52549979  0.71213417  0.08162485  1
  Li  Li9  1  0.86529977  0.27406973  0.99729511  1
  Li  Li10  1  0.08156821  0.49548164  0.99800698  1
  Li  Li11  1  0.38827675  0.34494923  0.08433380  1
  Li  Li12  1  0.88472618  0.69892695  0.07777655  1
  Li  Li13  1  0.50650055  0.22438212  0.02827667  1
  Li  Li14  1  0.40395571  0.84669573  0.03064289  1
  Li  Li15  1  0.04574309  0.03682334  0.08332092  1
  Li  Li16  1  0.36084692  0.97491568  0.07464942  1
  Li  Li17  1  0.96140676  0.06967172  0.04121712  1
  Li  Li18  1  0.92278541  0.59913187  0.02536946  1
  Li  Li19  1  0.55142457  0.27705640  0.06953252  1
  Li  Li20  1  0.05073618  0.45161391  0.06560100  1
  Li  Li21  1  0.37601057  0.47098794  0.04311849  1
  Li  Li22  1  0.55871369  0.78393477  0.04017519  1
  Li  Li23  1  0.83819787  0.16797697  0.07439303  1
  Li  Li24  1  0.20830713  0.20949979  0.08742206  1
  Li  Li25  1  0.15688536  0.81673297  0.03187781  1
  Li  Li26  1  0.71005422  0.72401338  0.01606696  1
  Li  Li27  1  0.70561167  0.20513795  0.08644755  1
  Li  Li28  1  0.63177020  0.11910851  0.23472302  1
  Li  Li29  1  0.79427154  0.77866082  0.13256996  1
  Li  Li30  1  0.12966882  0.94309025  0.13405988  1
  Li  Li31  1  0.29105640  0.96214962  0.23437543  1
  Li  Li32  1  0.79426002  0.28431733  0.23533792  1
  Li  Li33  1  0.62627026  0.62262029  0.13253253  1
  Li  Li34  1  0.29722168  0.44936550  0.13339942  1
  Li  Li35  1  0.13109849  0.44907461  0.23512461  1
  Li  Li36  1  0.03412171  0.70313007  0.21950745  1
  Li  Li37  1  0.39087044  0.20406585  0.15255630  1
  Li  Li38  1  0.53641434  0.55582172  0.15564367  1
  Li  Li39  1  0.89290335  0.34303068  0.21926867  1
  Li  Li40  1  0.38956078  0.70312036  0.21742086  1
  Li  Li41  1  0.03483175  0.20229560  0.14849938  1
  Li  Li42  1  0.88947916  0.84455668  0.14898805  1
  Li  Li43  1  0.53550048  0.05630764  0.21854991  1
  Li  Li44  1  0.87453342  0.95756857  0.19893200  1
  Li  Li45  1  0.54795553  0.94788247  0.17044080  1
  Li  Li46  1  0.37592814  0.61674167  0.17031957  1
  Li  Li47  1  0.04858063  0.28354201  0.19881938  1
  Li  Li48  1  0.54964521  0.44515449  0.20031852  1
  Li  Li49  1  0.88105863  0.45270987  0.17039198  1
  Li  Li50  1  0.04229449  0.79076273  0.17042546  1
  Li  Li51  1  0.37594480  0.12113119  0.19935757  1
  Li  Li52  1  0.71349457  0.20125574  0.21696788  1
  Li  Li53  1  0.71253827  0.70022391  0.15145919  1
  Li  Li54  1  0.21009463  0.70322177  0.15175140  1
  Li  Li55  1  0.21222581  0.20384481  0.21704599  1
  Li  Li56  1  0.12706779  0.12061012  0.36819603  1
  Li  Li57  1  0.29243837  0.78678069  0.26469606  1
  Li  Li58  1  0.63215974  0.94646280  0.26458453  1
  Li  Li59  1  0.79760003  0.94964910  0.36472498  1
  Li  Li60  1  0.29395365  0.27893847  0.36718172  1
  Li  Li61  1  0.13408660  0.61877794  0.26538028  1
  Li  Li62  1  0.79387523  0.45535188  0.26519164  1
  Li  Li63  1  0.62679889  0.44202056  0.36630372  1
  Li  Li64  1  0.53589086  0.69975998  0.35185939  1
  Li  Li65  1  0.88996302  0.20080838  0.28467205  1
  Li  Li66  1  0.03403506  0.55967597  0.28253925  1
  Li  Li67  1  0.38478403  0.35289068  0.35228869  1
  Li  Li68  1  0.89545267  0.69717620  0.34636251  1
  Li  Li69  1  0.53615430  0.20114404  0.28332650  1
  Li  Li70  1  0.39073095  0.84536786  0.27901613  1
  Li  Li71  1  0.03618498  0.05673463  0.34505813  1
  Li  Li72  1  0.38472944  0.94621015  0.32811348  1
  Li  Li73  1  0.05174716  0.94235611  0.30006714  1
  Li  Li74  1  0.87901174  0.61784017  0.29994585  1
  Li  Li75  1  0.54200040  0.29393426  0.33001148  1
  Li  Li76  1  0.05242286  0.44070937  0.32975125  1
  Li  Li77  1  0.37439556  0.45649824  0.30121488  1
  Li  Li78  1  0.55150794  0.77926277  0.30031117  1
  Li  Li79  1  0.87754278  0.11470018  0.33022873  1
  Li  Li80  1  0.21348028  0.19892465  0.34817940  1
  Li  Li81  1  0.21352439  0.70198053  0.28298749  1
  Li  Li82  1  0.71295441  0.70046062  0.28210279  1
  Li  Li83  1  0.71269083  0.20011766  0.34758580  1
  Li  Li84  1  0.64962310  0.13129037  0.48999125  1
  Li  Li85  1  0.79047019  0.78745863  0.39310600  1
  Li  Li86  1  0.13139592  0.95309369  0.39616061  1
  Li  Li87  1  0.26661041  0.00652439  0.49521678  1
  Li  Li88  1  0.83759898  0.26878274  0.50042222  1
  Li  Li89  1  0.63486981  0.60041760  0.39690898  1
  Li  Li90  1  0.29009336  0.45110015  0.39866716  1
  Li  Li91  1  0.10551333  0.50340180  0.50269551  1
  Li  Li92  1  0.99119023  0.73197394  0.47226404  1
  Li  Li93  1  0.38751027  0.19709308  0.42095466  1
  Li  Li94  1  0.54737420  0.52788807  0.42487541  1
  Li  Li95  1  0.91053270  0.34992840  0.46723826  1
  Li  Li96  1  0.33327487  0.75135496  0.50485228  1
  Li  Li97  1  0.02589753  0.21336454  0.42002789  1
  Li  Li98  1  0.88656117  0.84410798  0.41227282  1
  Li  Li99  1  0.55452141  0.08922967  0.50424342  1
  Li  Li100  1  0.86165061  0.96859644  0.45558104  1
  Li  Li101  1  0.55945723  0.94983655  0.42660876  1
  Li  Li102  1  0.36168120  0.63708720  0.43517904  1
  Li  Li103  1  0.05849967  0.29513081  0.46093145  1
  Li  Li104  1  0.45646678  0.62678816  0.47307476  1
  Li  Li105  1  0.83073843  0.49863535  0.42488550  1
  Li  Li106  1  0.04676807  0.77625822  0.43131402  1
  Li  Li107  1  0.43809423  0.08836401  0.47533575  1
  Li  Li108  1  0.73541743  0.19138450  0.48178378  1
  Li  Li109  1  0.70486588  0.71250512  0.41113014  1
  Li  Li110  1  0.20992863  0.70320430  0.41467764  1
  Li  Li111  1  0.23503232  0.19693577  0.48201736  1
  Li  Li112  1  0.53923777  0.99277444  0.60469353  1
  Li  Li113  1  0.36121762  0.32356824  0.49757671  1
  Li  Li114  1  0.07105664  0.09959989  0.49811738  1
  Li  Li115  1  0.88257594  0.15196584  0.60228530  1
  Li  Li116  1  0.38342182  0.81040162  0.60339739  1
  Li  Li117  1  0.46063851  0.45468865  0.50338649  1
  Li  Li118  1  0.91301459  0.57910063  0.50629076  1
  Li  Li119  1  0.04249996  0.64664094  0.60499642  1
  Li  Li120  1  0.14845339  0.38820179  0.58154497  1
  Li  Li121  1  0.80959376  0.82690339  0.49724129  1
  Li  Li122  1  0.59283260  0.60360086  0.49781589  1
  Li  Li123  1  0.28666840  0.75476744  0.58399243  1
  Li  Li124  1  0.79082315  0.40044226  0.57753945  1
  Li  Li125  1  0.16794715  0.87576181  0.52799028  1
  Li  Li126  1  0.27121326  0.25309511  0.53069092  1
  Li  Li127  1  0.62963325  0.06296345  0.58323289  1
  Li  Li128  1  0.31453808  0.12534973  0.57467466  1
  Li  Li129  1  0.71351658  0.03093661  0.54102201  1
  Li  Li130  1  0.75069064  0.50066204  0.52550496  1
  Li  Li131  1  0.12309786  0.82288665  0.56944920  1
  Li  Li132  1  0.62443106  0.64849175  0.56555300  1
  Li  Li133  1  0.29810202  0.63011384  0.54281279  1
  Li  Li134  1  0.11551751  0.31659961  0.54009965  1
  Li  Li135  1  0.83746198  0.93155994  0.57440365  1
  Li  Li136  1  0.46633188  0.89015285  0.58735434  1
  Li  Li137  1  0.51751336  0.28253572  0.53151103  1
  Li  Li138  1  0.96283045  0.37745125  0.51610052  1
  Li  Li139  1  0.96900152  0.89591889  0.58646106  1
  Li  Li140  1  0.04361191  0.97992840  0.73486531  1
  Li  Li141  1  0.88050191  0.31990293  0.63241423  1
  Li  Li142  1  0.54549472  0.15748554  0.63388343  1
  Li  Li143  1  0.38462750  0.13778940  0.73437377  1
  Li  Li144  1  0.87986022  0.81594677  0.73551845  1
  Li  Li145  1  0.04868830  0.47674386  0.63258420  1
  Li  Li146  1  0.37749891  0.65117245  0.63343877  1
  Li  Li147  1  0.54434625  0.65063844  0.73517532  1
  Li  Li148  1  0.64099620  0.39676554  0.71958629  1
  Li  Li149  1  0.28335059  0.89709554  0.65289124  1
  Li  Li150  1  0.13918681  0.54359471  0.65564484  1
  Li  Li151  1  0.78262682  0.75655225  0.71886870  1
  Li  Li152  1  0.28622657  0.39634685  0.71760548  1
  Li  Li153  1  0.64006846  0.89837733  0.64855760  1
  Li  Li154  1  0.78533236  0.25574648  0.65022801  1
  Li  Li155  1  0.13949967  0.04389678  0.71852911  1
  Li  Li156  1  0.79994341  0.14240286  0.69894244  1
  Li  Li157  1  0.12597153  0.15424856  0.67048515  1
  Li  Li158  1  0.29954391  0.48315767  0.67033168  1
  Li  Li159  1  0.62573063  0.81713782  0.69887354  1
  Li  Li160  1  0.12616625  0.65397638  0.70027468  1
  Li  Li161  1  0.79389874  0.64776562  0.67031290  1
  Li  Li162  1  0.63200816  0.31021226  0.67036652  1
  Li  Li163  1  0.29795291  0.98006368  0.69943910  1
  Li  Li164  1  0.96233518  0.89788788  0.71702253  1
  Li  Li165  1  0.96247451  0.40008574  0.65145718  1
  Li  Li166  1  0.46484257  0.39733230  0.65159044  1
  Li  Li167  1  0.46276128  0.89654736  0.71696007  1
  Li  Li168  1  0.54810680  0.97757674  0.86786229  1
  Li  Li169  1  0.38337005  0.31315939  0.76488613  1
  Li  Li170  1  0.04254318  0.15397083  0.76441722  1
  Li  Li171  1  0.87767908  0.15001019  0.86471833  1
  Li  Li172  1  0.38046559  0.81949628  0.86760398  1
  Li  Li173  1  0.54148220  0.48154335  0.76537295  1
  Li  Li174  1  0.88144420  0.64475313  0.76521282  1
  Li  Li175  1  0.04823285  0.65842672  0.86636220  1
  Li  Li176  1  0.13908723  0.40085250  0.85192845  1
  Li  Li177  1  0.78482304  0.89910869  0.78587100  1
  Li  Li178  1  0.64172573  0.53996989  0.78287079  1
  Li  Li179  1  0.29090823  0.74597364  0.85216801  1
  Li  Li180  1  0.77964378  0.40292235  0.84622362  1
  Li  Li181  1  0.13956762  0.89869252  0.78332820  1
  Li  Li182  1  0.28484101  0.25391049  0.77877761  1
  Li  Li183  1  0.63969782  0.04266319  0.84472288  1
  Li  Li184  1  0.29058070  0.15408134  0.82817248  1
  Li  Li185  1  0.62350001  0.15781080  0.79997825  1
  Li  Li186  1  0.79661037  0.48200690  0.79995433  1
  Li  Li187  1  0.13374026  0.80554175  0.82995431  1
  Li  Li188  1  0.62225482  0.66012565  0.82993780  1
  Li  Li189  1  0.30160201  0.64226113  0.80114464  1
  Li  Li190  1  0.12382789  0.32073029  0.80053952  1
  Li  Li191  1  0.79866012  0.98501770  0.83056492  1
  Li  Li192  1  0.46105234  0.90159970  0.84821230  1
  Li  Li193  1  0.46231707  0.39790078  0.78299119  1
  Li  Li194  1  0.96193274  0.39940518  0.78234405  1
  Li  Li195  1  0.96276867  0.90006204  0.84760830  1
  Li  Li196  1  0.02280099  0.97016045  0.99015763  1
  Li  Li197  1  0.88456307  0.31218841  0.89324104  1
  Li  Li198  1  0.54453463  0.14496391  0.89575055  1
  Li  Li199  1  0.40875004  0.09342809  0.99528961  1
  Li  Li200  1  0.83771399  0.83090049  0.00041539  1
  Li  Li201  1  0.04037278  0.49899924  0.89684229  1
  Li  Li202  1  0.38501346  0.64826576  0.89889016  1
  Li  Li203  1  0.56951197  0.59658515  0.00280662  1
  Li  Li204  1  0.68367394  0.36800633  0.97259290  1
  Li  Li205  1  0.28638080  0.90347983  0.92119257  1
  Li  Li206  1  0.12747600  0.57269218  0.92491595  1
  Li  Li207  1  0.76428029  0.74946945  0.96737614  1
  Li  Li208  1  0.34145619  0.34871106  0.00507472  1
  Li  Li209  1  0.64871660  0.88700212  0.92014037  1
  Li  Li210  1  0.78852788  0.25631049  0.91221263  1
  Li  Li211  1  0.11974104  0.00879074  0.00453453  1
  Li  Li212  1  0.81322437  0.13186601  0.95559069  1
  Li  Li213  1  0.11564252  0.14983721  0.92669091  1
  Li  Li214  1  0.31326022  0.46324416  0.93526498  1
  Li  Li215  1  0.61408336  0.80834737  0.96093575  1
  Li  Li216  1  0.21855408  0.47219003  0.97318513  1
  Li  Li217  1  0.84410317  0.60103936  0.92480280  1
  Li  Li218  1  0.62885030  0.32352054  0.93149861  1
  Li  Li219  1  0.23675265  0.01173852  0.97558371  1
  Li  Li220  1  0.93888753  0.90892623  0.98165928  1
  Li  Li221  1  0.96997364  0.38674711  0.91128845  1
  Li  Li222  1  0.46468952  0.39767987  0.91482297  1
  Li  Li223  1  0.43927939  0.90386637  0.98209497  1
  La  La224  1  0.34473243  0.81405054  0.12040865  1
  La  La225  1  0.58445629  0.07829811  0.11836629  1
  La  La226  1  0.08278615  0.58227704  0.11752174  1
  La  La227  1  0.84002260  0.33007716  0.11860392  1
  La  La228  1  0.71269254  0.69869545  0.08592257  1
  La  La229  1  0.71509593  0.18602045  0.02020865  1
  La  La230  1  0.21553660  0.19089498  0.02358265  1
  La  La231  1  0.22485768  0.68555365  0.08795054  1
  La  La232  1  0.97659959  0.30893729  0.05339895  1
  La  La233  1  0.47292887  0.56424358  0.05315642  1
  La  La234  1  0.45562252  0.08573178  0.05430411  1
  La  La235  1  0.95910312  0.83315337  0.05350579  1
  La  La236  1  0.84093592  0.82368271  0.24941503  1
  La  La237  1  0.08438416  0.07916554  0.25020273  1
  La  La238  1  0.58524778  0.57795083  0.24993876  1
  La  La239  1  0.34008851  0.32426128  0.24977186  1
  La  La240  1  0.21201594  0.70196919  0.21709814  1
  La  La241  1  0.21193182  0.20382919  0.15192142  1
  La  La242  1  0.71271673  0.20231279  0.15204851  1
  La  La243  1  0.71387771  0.70024385  0.21709549  1
  La  La244  1  0.46425655  0.32030270  0.18486400  1
  La  La245  1  0.96376780  0.58056909  0.18395946  1
  La  La246  1  0.96152291  0.08304792  0.18419815  1
  La  La247  1  0.46187057  0.82488458  0.18489443  1
  La  La248  1  0.34150207  0.82210896  0.38200191  1
  La  La249  1  0.58114820  0.08939833  0.37943644  1
  La  La250  1  0.08516846  0.57577255  0.38182747  1
  La  La251  1  0.84415648  0.31262946  0.38057565  1
  La  La252  1  0.71329049  0.70268724  0.34709789  1
  La  La253  1  0.71201835  0.20197504  0.28254432  1
  La  La254  1  0.21212792  0.20240668  0.28248277  1
  La  La255  1  0.21171547  0.70307433  0.34854955  1
  La  La256  1  0.96164399  0.32467897  0.31503404  1
  La  La257  1  0.45922491  0.58505971  0.31557596  1
  La  La258  1  0.46308858  0.08135047  0.31464416  1
  La  La259  1  0.96481886  0.82066728  0.31518164  1
  La  La260  1  0.20348383  0.69161612  0.47915527  1
  La  La261  1  0.21308647  0.19904920  0.41401566  1
  La  La262  1  0.71269097  0.19684429  0.41149107  1
  La  La263  1  0.70532937  0.70645054  0.47930354  1
  La  La264  1  0.45850132  0.32859220  0.44737824  1
  La  La265  1  0.95490895  0.57962936  0.44491436  1
  La  La266  1  0.97198582  0.06438551  0.44802628  1
  La  La267  1  0.46921356  0.82160883  0.44333906  1
  La  La268  1  0.33028457  0.28611111  0.62033514  1
  La  La269  1  0.09073990  0.02141680  0.61832663  1
  La  La270  1  0.59254912  0.51740739  0.61742592  1
  La  La271  1  0.83501926  0.76995270  0.61857381  1
  La  La272  1  0.96215406  0.40137453  0.58595414  1
  La  La273  1  0.95993478  0.91349157  0.52013498  1
  La  La274  1  0.45953504  0.90906991  0.52348448  1
  La  La275  1  0.45004380  0.41462588  0.58772780  1
  La  La276  1  0.69844828  0.79097466  0.55340675  1
  La  La277  1  0.20214116  0.53532173  0.55313153  1
  La  La278  1  0.21942112  0.01431509  0.55424660  1
  La  La279  1  0.71562539  0.26687530  0.55339730  1
  La  La280  1  0.83415654  0.27607300  0.74938564  1
  La  La281  1  0.59130490  0.02022452  0.75015761  1
  La  La282  1  0.08996712  0.52204936  0.74997153  1
  La  La283  1  0.33517626  0.77568175  0.74977301  1
  La  La284  1  0.46337557  0.39785412  0.71708660  1
  La  La285  1  0.46304948  0.89633941  0.65188218  1
  La  La286  1  0.96250026  0.89760548  0.65204179  1
  La  La287  1  0.96123502  0.39995877  0.71713331  1
  La  La288  1  0.21078304  0.77968275  0.68488939  1
  La  La289  1  0.71136533  0.51974631  0.68395931  1
  La  La290  1  0.71349722  0.01725378  0.68411014  1
  La  La291  1  0.21351352  0.27504956  0.68490989  1
  La  La292  1  0.33379863  0.27760203  0.88204636  1
  La  La293  1  0.09409115  0.01012666  0.87949779  1
  La  La294  1  0.58987046  0.52416816  0.88192200  1
  La  La295  1  0.83078221  0.78748145  0.88066349  1
  La  La296  1  0.96176771  0.39707095  0.84723281  1
  La  La297  1  0.96311869  0.89783553  0.78257714  1
  La  La298  1  0.46309052  0.89753291  0.78245935  1
  La  La299  1  0.46359627  0.39664742  0.84859962  1
  La  La300  1  0.71361286  0.77471326  0.81510589  1
  La  La301  1  0.21613292  0.51466643  0.81562851  1
  La  La302  1  0.21216653  0.01848215  0.81469804  1
  La  La303  1  0.71028467  0.27930440  0.81521930  1
  La  La304  1  0.47109280  0.40839810  0.97934213  1
  La  La305  1  0.46146243  0.90115195  0.91404157  1
  La  La306  1  0.96206904  0.90342657  0.91149134  1
  La  La307  1  0.97023251  0.39273715  0.97925608  1
  La  La308  1  0.21591867  0.77164942  0.94774245  1
  La  La309  1  0.71898571  0.52165899  0.94515226  1
  La  La310  1  0.70285681  0.03575725  0.94812680  1
  La  La311  1  0.20558631  0.27863508  0.94333058  1
  Zr  Zr312  1  0.46167992  0.95418760  0.11974981  1
  Zr  Zr313  1  0.46677499  0.44525286  0.11995120  1
  Zr  Zr314  1  0.96400532  0.45314224  0.11814668  1
  Zr  Zr315  1  0.95658051  0.96113495  0.11829158  1
  Zr  Zr316  1  0.22601127  0.93140718  0.05466437  1
  Zr  Zr317  1  0.70883504  0.95055554  0.04950505  1
  Zr  Zr318  1  0.21045021  0.45926790  0.05046126  1
  Zr  Zr319  1  0.70731422  0.46275708  0.05008499  1
  Zr  Zr320  1  0.96198802  0.95320933  0.24970187  1
  Zr  Zr321  1  0.96398220  0.45116906  0.24950099  1
  Zr  Zr322  1  0.46088159  0.45327709  0.25018276  1
  Zr  Zr323  1  0.46327691  0.95127966  0.24979695  1
  Zr  Zr324  1  0.71349371  0.94841007  0.18375486  1
  Zr  Zr325  1  0.21087687  0.95314786  0.18443711  1
  Zr  Zr326  1  0.71337246  0.45324687  0.18424182  1
  Zr  Zr327  1  0.21116243  0.45508124  0.18383098  1
  Zr  Zr328  1  0.46416188  0.95428221  0.37976375  1
  Zr  Zr329  1  0.45504193  0.46236881  0.38194875  1
  Zr  Zr330  1  0.96341713  0.44957377  0.38012993  1
  Zr  Zr331  1  0.96508669  0.94710129  0.38107410  1
  Zr  Zr332  1  0.21290775  0.95438474  0.31607761  1
  Zr  Zr333  1  0.71416337  0.95052010  0.31465653  1
  Zr  Zr334  1  0.21257637  0.44943132  0.31582221  1
  Zr  Zr335  1  0.71077352  0.45037754  0.31591077  1
  Zr  Zr336  1  0.71176275  0.95464900  0.44491907  1
  Zr  Zr337  1  0.21067134  0.95707173  0.45017400  1
  Zr  Zr338  1  0.72525060  0.43585040  0.44897237  1
  Zr  Zr339  1  0.21235117  0.44046547  0.45083560  1
  Zr  Zr340  1  0.21337513  0.14586952  0.61973190  1
  Zr  Zr341  1  0.20835886  0.65474886  0.61989610  1
  Zr  Zr342  1  0.71098793  0.64692457  0.61815479  1
  Zr  Zr343  1  0.71853602  0.13909423  0.61822246  1
  Zr  Zr344  1  0.44920727  0.16832780  0.55459035  1
  Zr  Zr345  1  0.96648220  0.14877886  0.54948217  1
  Zr  Zr346  1  0.46427932  0.64090125  0.55032031  1
  Zr  Zr347  1  0.96730273  0.63754053  0.55004416  1
  Zr  Zr348  1  0.71324797  0.14632029  0.74971876  1
  Zr  Zr349  1  0.71138954  0.64868216  0.74949794  1
  Zr  Zr350  1  0.21455641  0.64642567  0.75024652  1
  Zr  Zr351  1  0.21169691  0.14891623  0.74990954  1
  Zr  Zr352  1  0.96201419  0.15115940  0.68378512  1
  Zr  Zr353  1  0.46432430  0.14705207  0.68435634  1
  Zr  Zr354  1  0.96187507  0.64683826  0.68422392  1
  Zr  Zr355  1  0.46395747  0.64516532  0.68381045  1
  Zr  Zr356  1  0.21087828  0.14567599  0.87979361  1
  Zr  Zr357  1  0.22015174  0.63752685  0.88202117  1
  Zr  Zr358  1  0.71158736  0.65016586  0.88025140  1
  Zr  Zr359  1  0.70982136  0.15328608  0.88118888  1
  Zr  Zr360  1  0.46259688  0.14534909  0.81609319  1
  Zr  Zr361  1  0.96096654  0.14940546  0.81467744  1
  Zr  Zr362  1  0.46275793  0.65057898  0.81584157  1
  Zr  Zr363  1  0.96446050  0.64938506  0.81600436  1
  Zr  Zr364  1  0.96289523  0.14557772  0.94502466  1
  Zr  Zr365  1  0.46414113  0.14353092  0.95019763  1
  Zr  Zr366  1  0.94959702  0.66376661  0.94895156  1
  Zr  Zr367  1  0.46205727  0.65993622  0.95098843  1
  O  O368  1  0.80486102  0.16982021  0.11114497  1
  O  O369  1  0.10648612  0.76406633  0.12551684  1
  O  O370  1  0.81452550  0.54719610  0.12639467  1
  O  O371  1  0.10805452  0.36704363  0.10937587  1
  O  O372  1  0.60959113  0.24433610  0.10978231  1
  O  O373  1  0.31967449  0.64567099  0.12926715  1
  O  O374  1  0.60930072  0.85787453  0.12739983  1
  O  O375  1  0.31257524  0.05223398  0.11107811  1
  O  O376  1  0.99397506  0.27029331  0.10627822  1
  O  O377  1  0.93182282  0.83531678  0.10427636  1
  O  O378  1  0.43376174  0.13165624  0.10455305  1
  O  O379  1  0.89664673  0.37614663  0.01287496  1
  O  O380  1  0.49340470  0.56572403  0.10405409  1
  O  O381  1  0.67539646  0.54568732  0.09230313  1
  O  O382  1  0.71537253  0.41892408  0.00740844  1
  O  O383  1  0.21440860  0.39275131  0.01033226  1
  O  O384  1  0.24411403  0.47904214  0.09313272  1
  O  O385  1  0.74412600  0.85505777  0.09002746  1
  O  O386  1  0.69240437  0.02678642  0.00906319  1
  O  O387  1  0.26137043  0.95252797  0.01534753  1
  O  O388  1  0.18537625  0.91441747  0.09498140  1
  O  O389  1  0.50777329  0.87619295  0.07805222  1
  O  O390  1  0.90664179  0.00664970  0.01680670  1
  O  O391  1  0.04303788  0.39727219  0.02670449  1
  O  O392  1  0.41088871  0.46567340  0.08054081  1
  O  O393  1  0.91282283  0.52897112  0.07722607  1
  O  O394  1  0.51749556  0.35866843  0.02842819  1
  O  O395  1  0.41216740  0.98322960  0.02096714  1
  O  O396  1  0.98196522  0.97202267  0.07637797  1
  O  O397  1  0.36939099  0.82717832  0.07015339  1
  O  O398  1  0.08124087  0.02947732  0.04333368  1
  O  O399  1  0.86228580  0.77608664  0.04004780  1
  O  O400  1  0.56184632  0.12719903  0.06636105  1
  O  O401  1  0.06434661  0.58018345  0.06635235  1
  O  O402  1  0.36391573  0.34191171  0.04395939  1
  O  O403  1  0.54624941  0.64920400  0.04087093  1
  O  O404  1  0.85613678  0.28663042  0.06474447  1
  O  O405  1  0.16917524  0.13427782  0.06424269  1
  O  O406  1  0.29021661  0.72092166  0.04655319  1
  O  O407  1  0.63483841  0.89453191  0.03505338  1
  O  O408  1  0.75890899  0.04988201  0.06166541  1
  O  O409  1  0.26496932  0.25564063  0.06308120  1
  O  O410  1  0.15928712  0.66190974  0.04167955  1
  O  O411  1  0.71260609  0.61407298  0.04225161  1
  O  O412  1  0.66784925  0.35072795  0.06018957  1
  O  O413  1  0.31605222  0.15312571  0.24066393  1
  O  O414  1  0.60996817  0.74864694  0.25858098  1
  O  O415  1  0.31425064  0.54510742  0.25896864  1
  O  O416  1  0.60855936  0.35934197  0.24067905  1
  O  O417  1  0.11047074  0.24899328  0.24062026  1
  O  O418  1  0.81680713  0.65136608  0.25882028  1
  O  O419  1  0.10950912  0.85933860  0.25910052  1
  O  O420  1  0.81578756  0.04486280  0.24070784  1
  O  O421  1  0.49001685  0.27439607  0.23587633  1
  O  O422  1  0.93502033  0.62955741  0.13312907  1
  O  O423  1  0.98690872  0.07827338  0.13279865  1
  O  O424  1  0.43346429  0.83025841  0.23626824  1
  O  O425  1  0.93540125  0.12945002  0.23559198  1
  O  O426  1  0.48666253  0.77939992  0.13376641  1
  O  O427  1  0.43761807  0.32468155  0.13418779  1
  O  O428  1  0.99038958  0.57478584  0.23563744  1
  O  O429  1  0.17771019  0.54281374  0.22439571  1
  O  O430  1  0.24734049  0.36263851  0.14382432  1
  O  O431  1  0.67555796  0.43801211  0.14432594  1
  O  O432  1  0.74813653  0.47100188  0.22477240  1
  O  O433  1  0.24589795  0.86346950  0.22472860  1
  O  O434  1  0.17903173  0.03811296  0.14411684  1
  O  O435  1  0.74668590  0.96627314  0.14279611  1
  O  O436  1  0.67889103  0.92911600  0.22431415  1
  O  O437  1  0.01619557  0.86359735  0.20936577  1
  O  O438  1  0.40779609  0.04343658  0.15952963  1
  O  O439  1  0.52113215  0.42741043  0.15991693  1
  O  O440  1  0.90884212  0.47020435  0.20946040  1
  O  O441  1  0.40642436  0.54201055  0.20983107  1
  O  O442  1  0.01915083  0.36095078  0.15857627  1
  O  O443  1  0.90367851  0.97504096  0.15839353  1
  O  O444  1  0.51747790  0.93147557  0.20965133  1
  O  O445  1  0.86271592  0.82804591  0.19818205  1
  O  O446  1  0.56359515  0.07219750  0.17016669  1
  O  O447  1  0.36296867  0.77206532  0.17127445  1
  O  O448  1  0.06214386  0.12882539  0.19892016  1
  O  O449  1  0.56270248  0.57385449  0.19798802  1
  O  O450  1  0.86181902  0.33150553  0.16941759  1
  O  O451  1  0.06295467  0.63036019  0.16890004  1
  O  O452  1  0.36184012  0.27598072  0.19784462  1
  O  O453  1  0.66111007  0.14846564  0.19327167  1
  O  O454  1  0.76814179  0.74709030  0.17510741  1
  O  O455  1  0.15657579  0.86086278  0.17512420  1
  O  O456  1  0.26614368  0.04548598  0.19332261  1
  O  O457  1  0.76707303  0.25147112  0.19320004  1
  O  O458  1  0.65728061  0.65546819  0.17577022  1
  O  O459  1  0.26554818  0.54675827  0.17511881  1
  O  O460  1  0.15747084  0.36161021  0.19331692  1
  O  O461  1  0.81928495  0.14876563  0.37056165  1
  O  O462  1  0.10921173  0.74660854  0.39135712  1
  O  O463  1  0.81260105  0.55309871  0.38795494  1
  O  O464  1  0.10968923  0.35833338  0.37157128  1
  O  O465  1  0.60479436  0.26398520  0.37193268  1
  O  O466  1  0.30890155  0.66747091  0.39082584  1
  O  O467  1  0.60976851  0.86887856  0.38843746  1
  O  O468  1  0.31424057  0.05019436  0.37394257  1
  O  O469  1  0.98678733  0.27603274  0.36625141  1
  O  O470  1  0.43357955  0.63139156  0.26346672  1
  O  O471  1  0.49107500  0.07368269  0.26292841  1
  O  O472  1  0.93830888  0.82375118  0.36665489  1
  O  O473  1  0.43495696  0.12946549  0.36430315  1
  O  O474  1  0.99212871  0.77269910  0.26307681  1
  O  O475  1  0.93502504  0.32957272  0.26348324  1
  O  O476  1  0.48492016  0.57986344  0.36586937  1
  O  O477  1  0.67916551  0.53015810  0.35681569  1
  O  O478  1  0.74728892  0.35982285  0.27530510  1
  O  O479  1  0.17751675  0.43239627  0.27515182  1
  O  O480  1  0.24309866  0.46973130  0.35685496  1
  O  O481  1  0.75054442  0.85657259  0.35392030  1
  O  O482  1  0.67894644  0.04215691  0.27449274  1
  O  O483  1  0.24675663  0.97325773  0.27538294  1
  O  O484  1  0.17635761  0.93668372  0.35639837  1
  O  O485  1  0.52113857  0.85647376  0.34025593  1
  O  O486  1  0.90871885  0.03894093  0.29018737  1
  O  O487  1  0.01899774  0.43033855  0.28955376  1
  O  O488  1  0.39963275  0.48063589  0.34098938  1
  O  O489  1  0.91043998  0.53812948  0.33979908  1
  O  O490  1  0.51497978  0.36522661  0.29035454  1
  O  O491  1  0.40936004  0.96922959  0.28980543  1
  O  O492  1  0.02092418  0.92742710  0.34086451  1
  O  O493  1  0.36041504  0.83261896  0.33091298  1
  O  O494  1  0.06217377  0.07383273  0.30222339  1
  O  O495  1  0.86487372  0.77280798  0.30044780  1
  O  O496  1  0.56442701  0.13079400  0.32773870  1
  O  O497  1  0.06190211  0.57312548  0.32913597  1
  O  O498  1  0.36135589  0.32826167  0.30077185  1
  O  O499  1  0.56265688  0.62659786  0.30073475  1
  O  O500  1  0.86301426  0.27101380  0.32843920  1
  O  O501  1  0.15562991  0.15742945  0.32412525  1
  O  O502  1  0.26519793  0.75432517  0.30673407  1
  O  O503  1  0.65834521  0.86023206  0.30521313  1
  O  O504  1  0.76971471  0.04072584  0.32447624  1
  O  O505  1  0.26598183  0.24897964  0.32393432  1
  O  O506  1  0.15998396  0.65091178  0.30682499  1
  O  O507  1  0.76391952  0.54564513  0.30661368  1
  O  O508  1  0.65653193  0.35789613  0.32411038  1
  O  O509  1  0.50201260  0.28014171  0.49335242  1
  O  O510  1  0.93286942  0.62984209  0.39463551  1
  O  O511  1  0.99215128  0.06656045  0.39691913  1
  O  O512  1  0.49438646  0.77206492  0.39359578  1
  O  O513  1  0.42736018  0.33906232  0.39226229  1
  O  O514  1  0.20410764  0.50791765  0.49139325  1
  O  O515  1  0.24551068  0.35105010  0.40904124  1
  O  O516  1  0.68441905  0.41013336  0.40934301  1
  O  O517  1  0.76852632  0.46417983  0.48593782  1
  O  O518  1  0.21230169  0.93119831  0.49414309  1
  O  O519  1  0.17811924  0.04209240  0.40903028  1
  O  O520  1  0.74424443  0.97773251  0.40282614  1
  O  O521  1  0.67028019  0.96889579  0.48348672  1
  O  O522  1  0.01003202  0.85871174  0.47208935  1
  O  O523  1  0.42517436  0.02206313  0.42090944  1
  O  O524  1  0.50129860  0.44151768  0.42260321  1
  O  O525  1  0.93483047  0.46146590  0.47811757  1
  O  O526  1  0.36567753  0.60203669  0.47923401  1
  O  O527  1  0.02103867  0.36360343  0.42063445  1
  O  O528  1  0.90552973  0.97201843  0.42036804  1
  O  O529  1  0.52095757  0.88597597  0.47731700  1
  O  O530  1  0.86415589  0.82399597  0.45480584  1
  O  O531  1  0.56177655  0.08857168  0.42876719  1
  O  O532  1  0.36306274  0.77890623  0.43638562  1
  O  O533  1  0.05427014  0.14936871  0.45932117  1
  O  O534  1  0.57618375  0.56488989  0.46036121  1
  O  O535  1  0.86940295  0.32673384  0.43065352  1
  O  O536  1  0.06464027  0.61870041  0.43443007  1
  O  O537  1  0.36504170  0.26463226  0.45826117  1
  O  O538  1  0.69533075  0.13202054  0.45444047  1
  O  O539  1  0.75786601  0.75656904  0.43710819  1
  O  O540  1  0.16221308  0.85701129  0.44116171  1
  O  O541  1  0.26558408  0.05317713  0.45827420  1
  O  O542  1  0.80023449  0.23150476  0.46481277  1
  O  O543  1  0.67595295  0.62903481  0.43430973  1
  O  O544  1  0.26138626  0.54207478  0.43837372  1
  O  O545  1  0.14535159  0.36931275  0.46283889  1
  O  O546  1  0.87026728  0.93052624  0.61119247  1
  O  O547  1  0.56848927  0.33596644  0.62540247  1
  O  O548  1  0.86037528  0.55320807  0.62641998  1
  O  O549  1  0.56702830  0.73273290  0.60934369  1
  O  O550  1  0.06553047  0.85572389  0.60976875  1
  O  O551  1  0.35545698  0.45428513  0.62915329  1
  O  O552  1  0.06569837  0.24256034  0.62740843  1
  O  O553  1  0.36251625  0.04774730  0.61106499  1
  O  O554  1  0.68098704  0.82972650  0.60626040  1
  O  O555  1  0.74270245  0.26526808  0.60397722  1
  O  O556  1  0.24089707  0.96881742  0.60451192  1
  O  O557  1  0.77803586  0.72495118  0.51290307  1
  O  O558  1  0.18173478  0.53425821  0.60399625  1
  O  O559  1  0.99959340  0.55398973  0.59228989  1
  O  O560  1  0.95930561  0.68181025  0.50741745  1
  O  O561  1  0.46038183  0.70716961  0.51018165  1
  O  O562  1  0.43062694  0.62116851  0.59303736  1
  O  O563  1  0.93097182  0.24453669  0.59007100  1
  O  O564  1  0.98287452  0.07289898  0.50902073  1
  O  O565  1  0.41419606  0.14677846  0.51520551  1
  O  O566  1  0.48983303  0.18540764  0.59484817  1
  O  O567  1  0.16719743  0.22380067  0.57802337  1
  O  O568  1  0.76810645  0.09315854  0.51678002  1
  O  O569  1  0.63209899  0.70294774  0.52672495  1
  O  O570  1  0.26387165  0.63444496  0.58039030  1
  O  O571  1  0.76227177  0.57074715  0.57724274  1
  O  O572  1  0.15711270  0.74136631  0.52824130  1
  O  O573  1  0.26298492  0.11661461  0.52091141  1
  O  O574  1  0.69348779  0.12745574  0.57632699  1
  O  O575  1  0.30559417  0.27311538  0.57003444  1
  O  O576  1  0.59367737  0.07071509  0.54310765  1
  O  O577  1  0.81290616  0.32321693  0.54005629  1
  O  O578  1  0.11334022  0.97237082  0.56630528  1
  O  O579  1  0.61042642  0.52020672  0.56612937  1
  O  O580  1  0.31083288  0.75814260  0.54374611  1
  O  O581  1  0.12835331  0.45091354  0.54083436  1
  O  O582  1  0.81874213  0.81332577  0.56491040  1
  O  O583  1  0.50548440  0.96593643  0.56421752  1
  O  O584  1  0.38463100  0.37909262  0.54646551  1
  O  O585  1  0.03992859  0.20577693  0.53500567  1
  O  O586  1  0.91649649  0.04942304  0.56153769  1
  O  O587  1  0.40956319  0.84447392  0.56296073  1
  O  O588  1  0.51543656  0.43799865  0.54150656  1
  O  O589  1  0.96173945  0.48642353  0.54221608  1
  O  O590  1  0.00678605  0.74949852  0.56021997  1
  O  O591  1  0.35903490  0.94700376  0.74071875  1
  O  O592  1  0.06515840  0.35147227  0.75872395  1
  O  O593  1  0.36122239  0.55456985  0.75902058  1
  O  O594  1  0.06688038  0.74039751  0.74078234  1
  O  O595  1  0.56485747  0.85075602  0.74056361  1
  O  O596  1  0.85847838  0.44823433  0.75885357  1
  O  O597  1  0.56593771  0.24004406  0.75918788  1
  O  O598  1  0.85951135  0.05461597  0.74069487  1
  O  O599  1  0.18541362  0.82528318  0.73597653  1
  O  O600  1  0.74001548  0.47058179  0.63319789  1
  O  O601  1  0.68824498  0.02172726  0.63272499  1
  O  O602  1  0.24195432  0.26941221  0.73637430  1
  O  O603  1  0.73926999  0.97097030  0.73528732  1
  O  O604  1  0.18848772  0.32060636  0.63375046  1
  O  O605  1  0.23730337  0.77534533  0.63422209  1
  O  O606  1  0.68519362  0.52468722  0.73555334  1
  O  O607  1  0.49742291  0.55745071  0.72440240  1
  O  O608  1  0.42727063  0.73792325  0.64385119  1
  O  O609  1  0.99972320  0.66159265  0.64430734  1
  O  O610  1  0.92711221  0.62891816  0.72477855  1
  O  O611  1  0.42962199  0.23621155  0.72473127  1
  O  O612  1  0.49588509  0.06235568  0.64403787  1
  O  O613  1  0.92824202  0.13357127  0.64286412  1
  O  O614  1  0.99623038  0.17046931  0.72435546  1
  O  O615  1  0.65852376  0.23684453  0.70941192  1
  O  O616  1  0.26708716  0.05716461  0.65959445  1
  O  O617  1  0.15428480  0.67226177  0.65991130  1
  O  O618  1  0.76631729  0.62986221  0.70943561  1
  O  O619  1  0.26898879  0.55772022  0.70988137  1
  O  O620  1  0.65579748  0.73929802  0.65856371  1
  O  O621  1  0.77099159  0.12526419  0.65842176  1
  O  O622  1  0.15731727  0.16893390  0.70975813  1
  O  O623  1  0.81243383  0.27124835  0.69786144  1
  O  O624  1  0.11179202  0.02788353  0.67015064  1
  O  O625  1  0.31209445  0.32814506  0.67122045  1
  O  O626  1  0.61291942  0.97120870  0.69877391  1
  O  O627  1  0.11253042  0.52596582  0.69808204  1
  O  O628  1  0.81333584  0.76859119  0.66951098  1
  O  O629  1  0.61219999  0.46971188  0.66883028  1
  O  O630  1  0.31319182  0.82418443  0.69788115  1
  O  O631  1  0.01492041  0.95066053  0.69332611  1
  O  O632  1  0.90745728  0.35245446  0.67525447  1
  O  O633  1  0.51842355  0.23963970  0.67509700  1
  O  O634  1  0.40917084  0.05463474  0.69328946  1
  O  O635  1  0.90833317  0.84850068  0.69311872  1
  O  O636  1  0.01788043  0.44450631  0.67576484  1
  O  O637  1  0.40975072  0.55326735  0.67508722  1
  O  O638  1  0.51786266  0.73836070  0.69328472  1
  O  O639  1  0.85579536  0.95155755  0.87064296  1
  O  O640  1  0.56567311  0.35384538  0.89144882  1
  O  O641  1  0.86248138  0.54612163  0.88801078  1
  O  O642  1  0.56510225  0.74195485  0.87165582  1
  O  O643  1  0.07038908  0.83598690  0.87197661  1
  O  O644  1  0.36622816  0.43251312  0.89084586  1
  O  O645  1  0.06537506  0.23091483  0.88852998  1
  O  O646  1  0.36069975  0.05016779  0.87398801  1
  O  O647  1  0.68852132  0.82344492  0.86631554  1
  O  O648  1  0.24196304  0.46807479  0.76350240  1
  O  O649  1  0.18390151  0.02643028  0.76302303  1
  O  O650  1  0.73668381  0.27643547  0.86673555  1
  O  O651  1  0.23996076  0.97062910  0.86431571  1
  O  O652  1  0.68323659  0.32684035  0.76301235  1
  O  O653  1  0.74027082  0.77003963  0.76354739  1
  O  O654  1  0.19008149  0.52011452  0.86593643  1
  O  O655  1  0.99579656  0.56995417  0.85692225  1
  O  O656  1  0.92755038  0.74026717  0.77542336  1
  O  O657  1  0.49801063  0.66732065  0.77518522  1
  O  O658  1  0.43219147  0.62984618  0.85685492  1
  O  O659  1  0.92445457  0.24336380  0.85396460  1
  O  O660  1  0.99615029  0.05766400  0.77454087  1
  O  O661  1  0.42886848  0.12614771  0.77542584  1
  O  O662  1  0.49940781  0.16252047  0.85638211  1
  O  O663  1  0.15399202  0.24362709  0.84032030  1
  O  O664  1  0.76641396  0.06106870  0.79023468  1
  O  O665  1  0.65622679  0.66983372  0.78957621  1
  O  O666  1  0.27572374  0.61879234  0.84100754  1
  O  O667  1  0.76447492  0.56190719  0.83987031  1
  O  O668  1  0.16048902  0.73435078  0.79040428  1
  O  O669  1  0.26589415  0.13070676  0.78988008  1
  O  O670  1  0.65436390  0.17264265  0.84094325  1
  O  O671  1  0.31513272  0.26730940  0.83098104  1
  O  O672  1  0.61352226  0.02567964  0.80225849  1
  O  O673  1  0.81009526  0.32743530  0.80041795  1
  O  O674  1  0.11058617  0.96919130  0.82776196  1
  O  O675  1  0.61336261  0.52703133  0.82918265  1
  O  O676  1  0.31394466  0.77134923  0.80081084  1
  O  O677  1  0.11246957  0.47346817  0.80089298  1
  O  O678  1  0.81200991  0.82952188  0.82847913  1
  O  O679  1  0.51974030  0.94237988  0.82431750  1
  O  O680  1  0.41046698  0.34527309  0.80672147  1
  O  O681  1  0.01654771  0.23996629  0.80535586  1
  O  O682  1  0.90510003  0.05955041  0.82453616  1
  O  O683  1  0.40910251  0.85110081  0.82384798  1
  O  O684  1  0.51564566  0.44879758  0.80684388  1
  O  O685  1  0.91090068  0.55451787  0.80675943  1
  O  O686  1  0.01831363  0.74238838  0.82418043  1
  O  O687  1  0.17117382  0.82006793  0.99360627  1
  O  O688  1  0.74195392  0.47025918  0.89485108  1
  O  O689  1  0.68318668  0.03338276  0.89706898  1
  O  O690  1  0.18077300  0.32777051  0.89363651  1
  O  O691  1  0.24783308  0.76074893  0.89222369  1
  O  O692  1  0.47069659  0.59208581  0.99158140  1
  O  O693  1  0.42889737  0.74904681  0.90914859  1
  O  O694  1  0.99038213  0.68994656  0.90940017  1
  O  O695  1  0.90601429  0.63536371  0.98585968  1
  O  O696  1  0.46256633  0.16906140  0.99428654  1
  O  O697  1  0.49656278  0.05840162  0.90909599  1
  O  O698  1  0.93085159  0.12225123  0.90288118  1
  O  O699  1  0.00407366  0.13093886  0.98368323  1
  O  O700  1  0.66522818  0.24102969  0.97224403  1
  O  O701  1  0.24996998  0.07762958  0.92094864  1
  O  O702  1  0.17371573  0.65871095  0.92268113  1
  O  O703  1  0.73773766  0.64088678  0.97828029  1
  O  O704  1  0.30890802  0.49800303  0.97944414  1
  O  O705  1  0.65356090  0.73690098  0.92068133  1
  O  O706  1  0.76935746  0.12854670  0.92042893  1
  O  O707  1  0.15423407  0.21384177  0.97737335  1
  O  O708  1  0.81040088  0.27673667  0.95480659  1
  O  O709  1  0.11313118  0.01127210  0.92891369  1
  O  O710  1  0.31180411  0.32141465  0.93644767  1
  O  O711  1  0.62052771  0.95139381  0.95933012  1
  O  O712  1  0.09867828  0.53467445  0.96041339  1
  O  O713  1  0.80557238  0.77270540  0.93062659  1
  O  O714  1  0.60962145  0.48204564  0.93460940  1
  O  O715  1  0.30935440  0.83552883  0.95851950  1
  O  O716  1  0.97850999  0.96881810  0.95446514  1
  O  O717  1  0.91723899  0.34325773  0.93728030  1
  O  O718  1  0.51251595  0.24373271  0.94141822  1
  O  O719  1  0.40995916  0.04644784  0.95836427  1
  O  O720  1  0.87459875  0.86793602  0.96483743  1
  O  O721  1  0.99925281  0.47028855  0.93428953  1
  O  O722  1  0.41275707  0.55847524  0.93860039  1
  O  O723  1  0.52860401  0.73168351  0.96285160  1
