# generated using pymatgen
data_Li52La22Zr14O87
_symmetry_space_group_name_H-M   'P 1'
_cell_length_a   18.66058700
_cell_length_b   13.19488265
_cell_length_c   48.55162934
_cell_angle_alpha   90.00000000
_cell_angle_beta   90.00000000
_cell_angle_gamma   45.00062637
_symmetry_Int_Tables_number   1
_chemical_formula_structural   Li52La22Zr14O87
_chemical_formula_sum   'Li208 La88 Zr56 O348'
_cell_volume   8453.26321576
_cell_formula_units_Z   4
loop_
 _symmetry_equiv_pos_site_id
 _symmetry_equiv_pos_as_xyz
  1  'x, y, z'
loop_
 _atom_site_type_symbol
 _atom_site_label
 _atom_site_symmetry_multiplicity
 _atom_site_fract_x
 _atom_site_fract_y
 _atom_site_fract_z
 _atom_site_occupancy
  Li  Li0  1  0.09047340  0.18056688  0.10380555  1
  Li  Li1  1  0.75422626  0.84635959  0.13608571  1
  Li  Li2  1  0.08639178  0.02546714  0.13099476  1
  Li  Li3  1  0.73963162  0.04233190  0.10317284  1
  Li  Li4  1  0.24479505  0.37121580  0.10371531  1
  Li  Li5  1  0.59234281  0.68931658  0.13338706  1
  Li  Li6  1  0.26150401  0.52389275  0.13449029  1
  Li  Li7  1  0.60474991  0.51179665  0.10349199  1
  Li  Li8  1  0.50726917  0.76403401  0.08272022  1
  Li  Li9  1  0.89792342  0.24279511  0.01200570  1
  Li  Li10  1  0.03217108  0.53801857  0.99890827  1
  Li  Li11  1  0.35669376  0.41357640  0.08508794  1
  Li  Li12  1  0.84736655  0.77802386  0.09167125  1
  Li  Li13  1  0.46475220  0.27905393  0.01082442  1
  Li  Li14  1  0.37224923  0.90754594  0.03047844  1
  Li  Li15  1  0.98099781  0.13841540  0.07360512  1
  Li  Li16  1  0.33943529  0.02274239  0.07291149  1
  Li  Li17  1  0.03848305  0.95637939  0.04178998  1
  Li  Li18  1  0.89167752  0.66475322  0.04141047  1
  Li  Li19  1  0.53006661  0.32462847  0.07589671  1
  Li  Li20  1  0.04485911  0.49987589  0.07318386  1
  Li  Li21  1  0.37444357  0.49359360  0.04275479  1
  Li  Li22  1  0.50786410  0.87949640  0.04218374  1
  Li  Li23  1  0.81029248  0.23184389  0.07121811  1
  Li  Li24  1  0.17691387  0.26488365  0.08763923  1
  Li  Li25  1  0.20403856  0.74571968  0.01947059  1
  Li  Li26  1  0.68881956  0.77183924  0.02106487  1
  Li  Li27  1  0.67253558  0.27792135  0.08670596  1
  Li  Li28  1  0.59349198  0.19161219  0.23588582  1
  Li  Li29  1  0.25295589  0.86037595  0.26501512  1
  Li  Li30  1  0.59077851  0.02554560  0.26478245  1
  Li  Li31  1  0.25218630  0.03568510  0.23463948  1
  Li  Li32  1  0.75963754  0.35646276  0.23520007  1
  Li  Li33  1  0.09781281  0.68914954  0.26530228  1
  Li  Li34  1  0.75728751  0.52684885  0.26372366  1
  Li  Li35  1  0.09750402  0.51466171  0.23485697  1
  Li  Li36  1  0.99451462  0.77595261  0.22115746  1
  Li  Li37  1  0.34878955  0.27476478  0.14964898  1
  Li  Li38  1  0.49924780  0.62845795  0.14918281  1
  Li  Li39  1  0.85669621  0.41511717  0.21399845  1
  Li  Li40  1  0.34978511  0.77611278  0.22019405  1
  Li  Li41  1  0.99737009  0.27646199  0.15475256  1
  Li  Li42  1  0.84926899  0.91613208  0.14510991  1
  Li  Li43  1  0.49936919  0.12692126  0.21549126  1
  Li  Li44  1  0.83373989  0.03108744  0.19984571  1
  Li  Li45  1  0.50889259  0.01842722  0.17122862  1
  Li  Li46  1  0.34042481  0.68851959  0.17093824  1
  Li  Li47  1  0.01549267  0.35485668  0.20012464  1
  Li  Li48  1  0.50833834  0.52487262  0.19924277  1
  Li  Li49  1  0.83987675  0.53420298  0.16979031  1
  Li  Li50  1  0.99655884  0.86673710  0.17121880  1
  Li  Li51  1  0.33877824  0.19211631  0.19978833  1
  Li  Li52  1  0.67472061  0.27607164  0.21738399  1
  Li  Li53  1  0.67433485  0.77308463  0.15250314  1
  Li  Li54  1  0.17009408  0.77767763  0.15148693  1
  Li  Li55  1  0.17605583  0.27371706  0.21740349  1
  Li  Li56  1  0.08880483  0.19797767  0.36538385  1
  Li  Li57  1  0.74541739  0.87139758  0.39638072  1
  Li  Li58  1  0.10545381  0.01052913  0.39652204  1
  Li  Li59  1  0.75836842  0.02398336  0.36640709  1
  Li  Li60  1  0.26365353  0.34861880  0.36905055  1
  Li  Li61  1  0.60939914  0.67307446  0.39715377  1
  Li  Li62  1  0.25925121  0.51250930  0.39638161  1
  Li  Li63  1  0.59505310  0.50663818  0.36382146  1
  Li  Li64  1  0.50069419  0.76531554  0.35514329  1
  Li  Li65  1  0.85122232  0.27599891  0.28456195  1
  Li  Li66  1  0.00053681  0.62475930  0.27994789  1
  Li  Li67  1  0.35294110  0.42159931  0.34552305  1
  Li  Li68  1  0.85131775  0.77635953  0.35015176  1
  Li  Li69  1  0.49451914  0.27717292  0.28530684  1
  Li  Li70  1  0.35556054  0.91584182  0.27921668  1
  Li  Li71  1  0.00079988  0.12352729  0.35118437  1
  Li  Li72  1  0.35154315  0.01363858  0.32938700  1
  Li  Li73  1  0.01077355  0.02142883  0.30059117  1
  Li  Li74  1  0.84144402  0.69078761  0.30077662  1
  Li  Li75  1  0.50940522  0.36453443  0.32974519  1
  Li  Li76  1  0.00955671  0.51912691  0.32908714  1
  Li  Li77  1  0.33400302  0.53657640  0.29989840  1
  Li  Li78  1  0.51498477  0.85003938  0.30076515  1
  Li  Li79  1  0.84070336  0.18731773  0.32902583  1
  Li  Li80  1  0.17911279  0.27017785  0.34856879  1
  Li  Li81  1  0.17350874  0.77627715  0.28243355  1
  Li  Li82  1  0.67500442  0.77572225  0.28265746  1
  Li  Li83  1  0.67544490  0.27290300  0.34753186  1
  Li  Li84  1  0.97677538  0.80316890  0.46950936  1
  Li  Li85  1  0.36995719  0.25021532  0.42645223  1
  Li  Li86  1  0.50221459  0.62374369  0.40837189  1
  Li  Li87  1  0.88617550  0.35780011  0.48901925  1
  Li  Li88  1  0.31888615  0.75048265  0.50088712  1
  Li  Li89  1  0.99357168  0.27695987  0.41425392  1
  Li  Li90  1  0.84390633  0.92721194  0.41673325  1
  Li  Li91  1  0.45284175  0.18884539  0.48813501  1
  Li  Li92  1  0.84228838  0.04511932  0.45751625  1
  Li  Li93  1  0.54025345  0.00245798  0.42898478  1
  Li  Li94  1  0.30646950  0.73866146  0.42696223  1
  Li  Li95  1  0.97765755  0.39023168  0.45716109  1
  Li  Li96  1  0.46057845  0.59520542  0.45882038  1
  Li  Li97  1  0.81973924  0.53520580  0.42423801  1
  Li  Li98  1  0.01103063  0.85133602  0.42723669  1
  Li  Li99  1  0.31098722  0.18429719  0.45821895  1
  Li  Li100  1  0.66163778  0.29924604  0.47914382  1
  Li  Li101  1  0.67759982  0.77317715  0.41337635  1
  Li  Li102  1  0.17362214  0.76875709  0.41244775  1
  Li  Li103  1  0.14600447  0.30395157  0.48067850  1
  Li  Li104  1  0.75998999  0.59459551  0.60344881  1
  Li  Li105  1  0.09466717  0.92908152  0.63591110  1
  Li  Li106  1  0.76345105  0.75043013  0.63102487  1
  Li  Li107  1  0.11039140  0.73255379  0.60308518  1
  Li  Li108  1  0.60650030  0.40317070  0.60353887  1
  Li  Li109  1  0.25836357  0.08369422  0.63379575  1
  Li  Li110  1  0.58889635  0.24977597  0.63452012  1
  Li  Li111  1  0.24616078  0.26174465  0.60372668  1
  Li  Li112  1  0.34328812  0.01104005  0.58330123  1
  Li  Li113  1  0.95209887  0.53232721  0.51204695  1
  Li  Li114  1  0.81878034  0.23672223  0.49917114  1
  Li  Li115  1  0.49405215  0.36064809  0.58580594  1
  Li  Li116  1  0.00259057  0.99666892  0.59160176  1
  Li  Li117  1  0.38567647  0.49440262  0.51114836  1
  Li  Li118  1  0.47894853  0.86605342  0.53070969  1
  Li  Li119  1  0.87113385  0.63521593  0.57294008  1
  Li  Li120  1  0.51020293  0.75262642  0.57302574  1
  Li  Li121  1  0.81118858  0.82026153  0.54181738  1
  Li  Li122  1  0.96013781  0.10956264  0.54128706  1
  Li  Li123  1  0.32076999  0.44950794  0.57578720  1
  Li  Li124  1  0.80557727  0.27466675  0.57298133  1
  Li  Li125  1  0.47770536  0.27946531  0.54283301  1
  Li  Li126  1  0.34322015  0.89476244  0.54253273  1
  Li  Li127  1  0.04162347  0.54169681  0.57115098  1
  Li  Li128  1  0.67341802  0.51018905  0.58761263  1
  Li  Li129  1  0.64617871  0.02846451  0.51921808  1
  Li  Li130  1  0.16274809  0.00225338  0.52115704  1
  Li  Li131  1  0.17821318  0.49655034  0.58680972  1
  Li  Li132  1  0.25573906  0.58441653  0.73614648  1
  Li  Li133  1  0.59745702  0.91453820  0.76517136  1
  Li  Li134  1  0.25885615  0.75042011  0.76491157  1
  Li  Li135  1  0.59812837  0.73940883  0.73475204  1
  Li  Li136  1  0.09076246  0.41858322  0.73510491  1
  Li  Li137  1  0.75182192  0.08571620  0.76532853  1
  Li  Li138  1  0.09286532  0.24884478  0.76349778  1
  Li  Li139  1  0.75230686  0.25996227  0.73462594  1
  Li  Li140  1  0.85518005  0.99852284  0.72125333  1
  Li  Li141  1  0.50124315  0.49958020  0.64876289  1
  Li  Li142  1  0.35147308  0.14477689  0.64979163  1
  Li  Li143  1  0.99403918  0.35922823  0.71409341  1
  Li  Li144  1  0.50080122  0.99872063  0.72012783  1
  Li  Li145  1  0.85328386  0.49856503  0.65388442  1
  Li  Li146  1  0.00089938  0.85725304  0.64500583  1
  Li  Li147  1  0.35040647  0.64744855  0.71571748  1
  Li  Li148  1  0.01550976  0.74420624  0.69955379  1
  Li  Li149  1  0.34109295  0.75627348  0.67112768  1
  Li  Li150  1  0.51019616  0.08657297  0.67090413  1
  Li  Li151  1  0.83529185  0.41972578  0.69973723  1
  Li  Li152  1  0.34175005  0.25052424  0.69932200  1
  Li  Li153  1  0.00982908  0.24049985  0.66982762  1
  Li  Li154  1  0.85294494  0.90745259  0.67119734  1
  Li  Li155  1  0.51075842  0.58159449  0.69962436  1
  Li  Li156  1  0.17485677  0.49951048  0.71732863  1
  Li  Li157  1  0.17554408  0.00119204  0.65249808  1
  Li  Li158  1  0.67938921  0.99734220  0.65137236  1
  Li  Li159  1  0.67399798  0.50171931  0.71744197  1
  Li  Li160  1  0.76150476  0.57691407  0.86555910  1
  Li  Li161  1  0.10366527  0.90424483  0.89635070  1
  Li  Li162  1  0.74426981  0.76414028  0.89638188  1
  Li  Li163  1  0.09205350  0.75042704  0.86638758  1
  Li  Li164  1  0.58608879  0.42664336  0.86901252  1
  Li  Li165  1  0.23957356  0.10270767  0.89718788  1
  Li  Li166  1  0.58971392  0.26425962  0.89626816  1
  Li  Li167  1  0.25456402  0.26918789  0.86403685  1
  Li  Li168  1  0.34897745  0.01002434  0.85516750  1
  Li  Li169  1  0.99966037  0.49896258  0.78464570  1
  Li  Li170  1  0.84890519  0.14988230  0.77966849  1
  Li  Li171  1  0.49703679  0.35399291  0.84520137  1
  Li  Li172  1  0.99824471  0.99845610  0.85036684  1
  Li  Li173  1  0.35511810  0.49795958  0.78585025  1
  Li  Li174  1  0.49431046  0.85961752  0.77880479  1
  Li  Li175  1  0.84853404  0.65254292  0.85036417  1
  Li  Li176  1  0.49614215  0.76505537  0.82871845  1
  Li  Li177  1  0.83855342  0.75481667  0.80023999  1
  Li  Li178  1  0.00705312  0.08492947  0.80060414  1
  Li  Li179  1  0.33972266  0.41023051  0.83011588  1
  Li  Li180  1  0.83911851  0.25722081  0.82910056  1
  Li  Li181  1  0.51508146  0.24002581  0.79980071  1
  Li  Li182  1  0.33272905  0.92617654  0.80005907  1
  Li  Li183  1  0.00898454  0.58848720  0.82893197  1
  Li  Li184  1  0.66931609  0.50764398  0.84850408  1
  Li  Li185  1  0.67543127  0.00017793  0.78261586  1
  Li  Li186  1  0.17371906  0.00072792  0.78257467  1
  Li  Li187  1  0.17429727  0.50283805  0.84745646  1
  Li  Li188  1  0.87122626  0.97381284  0.96932211  1
  Li  Li189  1  0.48024952  0.52474998  0.92631984  1
  Li  Li190  1  0.34746188  0.15157935  0.90839443  1
  Li  Li191  1  0.96480885  0.41664361  0.98921852  1
  Li  Li192  1  0.53159542  0.02333145  0.00098452  1
  Li  Li193  1  0.85575760  0.49868886  0.91434157  1
  Li  Li194  1  0.00576522  0.84839542  0.91660719  1
  Li  Li195  1  0.39849372  0.58589482  0.98810212  1
  Li  Li196  1  0.00652911  0.73135207  0.95757343  1
  Li  Li197  1  0.30945536  0.77246895  0.92875243  1
  Li  Li198  1  0.54378643  0.03605216  0.92673426  1
  Li  Li199  1  0.87327596  0.38475778  0.95714927  1
  Li  Li200  1  0.39148774  0.17714979  0.95863914  1
  Li  Li201  1  0.02994731  0.23989332  0.92423071  1
  Li  Li202  1  0.83915348  0.92367301  0.92705828  1
  Li  Li203  1  0.53775251  0.59206057  0.95825365  1
  Li  Li204  1  0.18839924  0.47555552  0.97883796  1
  Li  Li205  1  0.17189099  0.00202381  0.91336244  1
  Li  Li206  1  0.67663064  0.00630397  0.91236293  1
  Li  Li207  1  0.70375967  0.47144388  0.98053535  1
  La  La208  1  0.30343376  0.89268608  0.11978761  1
  La  La209  1  0.54599675  0.14346039  0.12148477  1
  La  La210  1  0.05071810  0.65688610  0.11902411  1
  La  La211  1  0.80641223  0.40018487  0.11833617  1
  La  La212  1  0.67152155  0.77483806  0.08691639  1
  La  La213  1  0.64077735  0.29925227  0.02016835  1
  La  La214  1  0.19123830  0.24457976  0.02309000  1
  La  La215  1  0.18787961  0.75510874  0.08701444  1
  La  La216  1  0.92892041  0.40881550  0.05496615  1
  La  La217  1  0.43561329  0.64291969  0.05693733  1
  La  La218  1  0.40662507  0.17062785  0.05873214  1
  La  La219  1  0.90907304  0.89511427  0.05536594  1
  La  La220  1  0.80155643  0.89543391  0.25055571  1
  La  La221  1  0.04530829  0.15339999  0.24973182  1
  La  La222  1  0.54860928  0.64877036  0.24953951  1
  La  La223  1  0.30483806  0.39374017  0.25025171  1
  La  La224  1  0.17367551  0.77414899  0.21707695  1
  La  La225  1  0.17538711  0.27400385  0.15247317  1
  La  La226  1  0.67667340  0.27325400  0.15241233  1
  La  La227  1  0.67633763  0.77169469  0.21760984  1
  La  La228  1  0.42610082  0.39295608  0.18547742  1
  La  La229  1  0.92732919  0.65406107  0.18503577  1
  La  La230  1  0.92416949  0.15179974  0.18390448  1
  La  La231  1  0.42295011  0.89408855  0.18583395  1
  La  La232  1  0.29918277  0.90871650  0.38098452  1
  La  La233  1  0.54395184  0.16330357  0.38167649  1
  La  La234  1  0.04681928  0.64939400  0.38020537  1
  La  La235  1  0.80341847  0.38660965  0.37860520  1
  La  La236  1  0.67338801  0.77687414  0.34763772  1
  La  La237  1  0.67404258  0.27435643  0.28240873  1
  La  La238  1  0.17656503  0.27139332  0.28293293  1
  La  La239  1  0.17476278  0.77509002  0.34755869  1
  La  La240  1  0.92411440  0.39503938  0.31460714  1
  La  La241  1  0.42265450  0.65921626  0.31497260  1
  La  La242  1  0.42601625  0.15071993  0.31612998  1
  La  La243  1  0.92742113  0.88999571  0.31418518  1
  La  La244  1  0.15821378  0.77772052  0.47698597  1
  La  La245  1  0.16244976  0.28085472  0.41298922  1
  La  La246  1  0.67875221  0.26800153  0.41308068  1
  La  La247  1  0.71016682  0.72990096  0.47992774  1
  La  La248  1  0.42130538  0.41657704  0.44514421  1
  La  La249  1  0.91483644  0.66371093  0.44313169  1
  La  La250  1  0.94340117  0.13434724  0.44132934  1
  La  La251  1  0.44066734  0.86388069  0.44478176  1
  La  La252  1  0.54705766  0.88184062  0.61979251  1
  La  La253  1  0.30372851  0.63154931  0.62145083  1
  La  La254  1  0.79956330  0.11745063  0.61901084  1
  La  La255  1  0.04424949  0.37404857  0.61832028  1
  La  La256  1  0.17884857  0.99983770  0.58696343  1
  La  La257  1  0.20972479  0.47558920  0.52007961  1
  La  La258  1  0.65915970  0.53037364  0.52314351  1
  La  La259  1  0.66205312  0.01985724  0.58697312  1
  La  La260  1  0.92176632  0.36570299  0.55495822  1
  La  La261  1  0.41489032  0.13170277  0.55684319  1
  La  La262  1  0.44393264  0.60351559  0.55870328  1
  La  La263  1  0.94154774  0.87938085  0.55531759  1
  La  La264  1  0.04818918  0.87967220  0.75048936  1
  La  La265  1  0.80493515  0.62125895  0.74974072  1
  La  La266  1  0.30154734  0.12633292  0.74946862  1
  La  La267  1  0.54494213  0.38111908  0.75026497  1
  La  La268  1  0.67639489  0.00059232  0.71709281  1
  La  La269  1  0.67490273  0.50046479  0.65245960  1
  La  La270  1  0.17357816  0.50116200  0.65241775  1
  La  La271  1  0.17370457  0.00286447  0.71757138  1
  La  La272  1  0.42384040  0.38217380  0.68544017  1
  La  La273  1  0.92252987  0.12047579  0.68497602  1
  La  La274  1  0.92606076  0.62244743  0.68387778  1
  La  La275  1  0.42786273  0.87974553  0.68589006  1
  La  La276  1  0.55045665  0.86645601  0.88094157  1
  La  La277  1  0.30575610  0.61218151  0.88160542  1
  La  La278  1  0.80276079  0.12591529  0.88020938  1
  La  La279  1  0.04598602  0.38918469  0.87855475  1
  La  La280  1  0.17620482  0.99847025  0.84761170  1
  La  La281  1  0.17599916  0.50068551  0.78241259  1
  La  La282  1  0.67348088  0.50342533  0.78288387  1
  La  La283  1  0.67488363  0.00038137  0.84752467  1
  La  La284  1  0.92609151  0.37960730  0.81452486  1
  La  La285  1  0.42729892  0.11580543  0.81494370  1
  La  La286  1  0.42369498  0.62494256  0.81609359  1
  La  La287  1  0.92233261  0.88535233  0.81417429  1
  La  La288  1  0.69044426  0.99867682  0.97682210  1
  La  La289  1  0.68723668  0.49442430  0.91300505  1
  La  La290  1  0.17080084  0.50776109  0.91302704  1
  La  La291  1  0.14006483  0.04479020  0.97994994  1
  La  La292  1  0.42820587  0.35911535  0.94500921  1
  La  La293  1  0.93471483  0.11179138  0.94316166  1
  La  La294  1  0.90604545  0.64129245  0.94128127  1
  La  La295  1  0.40865328  0.91173229  0.94469548  1
  Zr  Zr296  1  0.42449474  0.01829346  0.12146350  1
  Zr  Zr297  1  0.43115123  0.51460860  0.12087390  1
  Zr  Zr298  1  0.93115324  0.52389722  0.11943034  1
  Zr  Zr299  1  0.91741168  0.03554794  0.11693255  1
  Zr  Zr300  1  0.18164729  0.00197168  0.05249921  1
  Zr  Zr301  1  0.65845980  0.03084287  0.05242298  1
  Zr  Zr302  1  0.17249050  0.53566370  0.04839529  1
  Zr  Zr303  1  0.68330165  0.52306201  0.04920547  1
  Zr  Zr304  1  0.92354736  0.02624445  0.24967623  1
  Zr  Zr305  1  0.92623478  0.52222971  0.24990644  1
  Zr  Zr306  1  0.42385514  0.52477410  0.25012669  1
  Zr  Zr307  1  0.42683777  0.02280190  0.25043027  1
  Zr  Zr308  1  0.67771567  0.02012056  0.18523704  1
  Zr  Zr309  1  0.17305793  0.02290439  0.18416192  1
  Zr  Zr310  1  0.67642639  0.52435944  0.18425779  1
  Zr  Zr311  1  0.17530461  0.52580964  0.18464811  1
  Zr  Zr312  1  0.43282741  0.02087567  0.38317163  1
  Zr  Zr313  1  0.41911566  0.53628946  0.38059522  1
  Zr  Zr314  1  0.91877764  0.52744272  0.37922647  1
  Zr  Zr315  1  0.92596751  0.01723048  0.37860580  1
  Zr  Zr316  1  0.17461380  0.02676366  0.31537179  1
  Zr  Zr317  1  0.67374174  0.02730620  0.31578155  1
  Zr  Zr318  1  0.17717701  0.51901863  0.31585426  1
  Zr  Zr319  1  0.67239516  0.52605585  0.31475953  1
  Zr  Zr320  1  0.66742605  0.03947410  0.45071897  1
  Zr  Zr321  1  0.17773623  0.03042497  0.45167565  1
  Zr  Zr322  1  0.69170645  0.49786358  0.44765172  1
  Zr  Zr323  1  0.16865364  0.51537383  0.44749942  1
  Zr  Zr324  1  0.42595121  0.75604012  0.62148013  1
  Zr  Zr325  1  0.41897076  0.25982221  0.62085255  1
  Zr  Zr326  1  0.91892997  0.25093989  0.61937584  1
  Zr  Zr327  1  0.93279770  0.73868480  0.61684762  1
  Zr  Zr328  1  0.66895703  0.77279993  0.55249332  1
  Zr  Zr329  1  0.19191630  0.74393712  0.55242253  1
  Zr  Zr330  1  0.67799363  0.23895956  0.54842591  1
  Zr  Zr331  1  0.16743879  0.25138738  0.54924261  1
  Zr  Zr332  1  0.92651520  0.74860217  0.74965738  1
  Zr  Zr333  1  0.92342927  0.25290542  0.74979395  1
  Zr  Zr334  1  0.42595783  0.25054679  0.75010062  1
  Zr  Zr335  1  0.42331251  0.75165360  0.75031168  1
  Zr  Zr336  1  0.17208904  0.75476830  0.68518988  1
  Zr  Zr337  1  0.67735498  0.75172527  0.68411806  1
  Zr  Zr338  1  0.17378024  0.25009977  0.68422422  1
  Zr  Zr339  1  0.67462289  0.24875667  0.68458917  1
  Zr  Zr340  1  0.41682002  0.75463130  0.88310552  1
  Zr  Zr341  1  0.43079641  0.23887713  0.88056034  1
  Zr  Zr342  1  0.93073667  0.24800494  0.87915794  1
  Zr  Zr343  1  0.92382964  0.75793591  0.87852839  1
  Zr  Zr344  1  0.67521600  0.74812077  0.81537485  1
  Zr  Zr345  1  0.17592028  0.74808479  0.81573478  1
  Zr  Zr346  1  0.67266398  0.25635291  0.81584984  1
  Zr  Zr347  1  0.17774020  0.24898269  0.81477833  1
  Zr  Zr348  1  0.18241027  0.73593395  0.95074561  1
  Zr  Zr349  1  0.67184167  0.74496121  0.95161129  1
  Zr  Zr350  1  0.15812141  0.27745110  0.94758617  1
  Zr  Zr351  1  0.68060203  0.26052084  0.94745767  1
  O  O352  1  0.77125901  0.23979185  0.10963221  1
  O  O353  1  0.06602371  0.83416835  0.12464030  1
  O  O354  1  0.78060198  0.62526894  0.12734284  1
  O  O355  1  0.07968577  0.43001382  0.11143484  1
  O  O356  1  0.57876365  0.31153291  0.11203497  1
  O  O357  1  0.28175123  0.71511427  0.12814733  1
  O  O358  1  0.56857758  0.93320026  0.13051735  1
  O  O359  1  0.27915740  0.10801246  0.11069998  1
  O  O360  1  0.95495350  0.35349521  0.10494383  1
  O  O361  1  0.89731271  0.70807560  0.13242452  1
  O  O362  1  0.94676226  0.14949502  0.13295217  1
  O  O363  1  0.88518326  0.91224237  0.10373600  1
  O  O364  1  0.38753244  0.20434870  0.10800655  1
  O  O365  1  0.45101421  0.84339071  0.13576706  1
  O  O366  1  0.40202877  0.39451392  0.13506926  1
  O  O367  1  0.46033750  0.63566979  0.10717925  1
  O  O368  1  0.64707458  0.61114271  0.09360079  1
  O  O369  1  0.74029170  0.39343798  0.01591395  1
  O  O370  1  0.14589788  0.48224482  0.01405085  1
  O  O371  1  0.21029636  0.55118885  0.09313252  1
  O  O372  1  0.70221886  0.93171444  0.09318183  1
  O  O373  1  0.60535781  0.15224489  0.01709797  1
  O  O374  1  0.24285509  0.00043088  0.01592930  1
  O  O375  1  0.13561399  0.99876747  0.09241884  1
  O  O376  1  0.48149077  0.93141245  0.08205223  1
  O  O377  1  0.97234637  0.48919750  0.02157848  1
  O  O378  1  0.38948890  0.52174107  0.08008053  1
  O  O379  1  0.89172173  0.60072952  0.07840586  1
  O  O380  1  0.46396545  0.48619967  0.02255823  1
  O  O381  1  0.36528528  0.06003617  0.03404408  1
  O  O382  1  0.94538404  0.03104626  0.07305656  1
  O  O383  1  0.33021621  0.89140122  0.06998392  1
  O  O384  1  0.04258335  0.09742786  0.03555738  1
  O  O385  1  0.80508820  0.86208608  0.03917229  1
  O  O386  1  0.51627074  0.20107980  0.07334922  1
  O  O387  1  0.02212749  0.65977640  0.06814101  1
  O  O388  1  0.32627053  0.40819744  0.04138884  1
  O  O389  1  0.52797407  0.71060493  0.04166717  1
  O  O390  1  0.83471993  0.34717799  0.06847776  1
  O  O391  1  0.12475076  0.21155241  0.06155572  1
  O  O392  1  0.24653493  0.79275103  0.04830044  1
  O  O393  1  0.58972507  0.95510666  0.04241805  1
  O  O394  1  0.71006870  0.13217962  0.06213046  1
  O  O395  1  0.21362423  0.34660458  0.06490361  1
  O  O396  1  0.11137778  0.74728777  0.04227477  1
  O  O397  1  0.73539540  0.62212024  0.04573195  1
  O  O398  1  0.62697723  0.43118160  0.06257419  1
  O  O399  1  0.27877403  0.22286728  0.24131732  1
  O  O400  1  0.57379053  0.82079451  0.25861443  1
  O  O401  1  0.27706521  0.61592032  0.25920177  1
  O  O402  1  0.57036365  0.43245401  0.24082022  1
  O  O403  1  0.07284948  0.32007742  0.24070747  1
  O  O404  1  0.77982660  0.72297431  0.25925442  1
  O  O405  1  0.07138190  0.93052387  0.25857522  1
  O  O406  1  0.77640615  0.11838475  0.24135031  1
  O  O407  1  0.45235790  0.34704056  0.23582646  1
  O  O408  1  0.39453892  0.70495266  0.26314737  1
  O  O409  1  0.45082300  0.14798899  0.26482832  1
  O  O410  1  0.39543060  0.90306732  0.23700683  1
  O  O411  1  0.89948001  0.19921728  0.23514761  1
  O  O412  1  0.95465458  0.84381371  0.26310970  1
  O  O413  1  0.89797027  0.40157995  0.26431581  1
  O  O414  1  0.95574954  0.64367975  0.23692117  1
  O  O415  1  0.13974987  0.61588553  0.22471622  1
  O  O416  1  0.20867577  0.43913095  0.14443763  1
  O  O417  1  0.64267599  0.50387761  0.14453210  1
  O  O418  1  0.71292774  0.54214514  0.22447878  1
  O  O419  1  0.20624288  0.93747908  0.22474943  1
  O  O420  1  0.13833241  0.11069965  0.14382625  1
  O  O421  1  0.70731377  0.03791549  0.14448541  1
  O  O422  1  0.64111169  0.00133200  0.22538925  1
  O  O423  1  0.97462788  0.93787881  0.20930937  1
  O  O424  1  0.36595920  0.11571553  0.16068987  1
  O  O425  1  0.48335093  0.50092421  0.16040259  1
  O  O426  1  0.87294441  0.54337618  0.20977511  1
  O  O427  1  0.36800031  0.61581995  0.21010303  1
  O  O428  1  0.98321297  0.43543233  0.15948463  1
  O  O429  1  0.86554841  0.04455377  0.15673847  1
  O  O430  1  0.47973361  0.00274065  0.21026217  1
  O  O431  1  0.82611925  0.89773599  0.20041203  1
  O  O432  1  0.52603192  0.14201086  0.17351746  1
  O  O433  1  0.32229537  0.84682256  0.17075356  1
  O  O434  1  0.02251865  0.20512307  0.19741739  1
  O  O435  1  0.52689806  0.64636379  0.19921956  1
  O  O436  1  0.82669236  0.40473529  0.17073332  1
  O  O437  1  0.02685734  0.70015610  0.16947554  1
  O  O438  1  0.32386316  0.34867782  0.19942934  1
  O  O439  1  0.62619030  0.21913600  0.19364100  1
  O  O440  1  0.73357693  0.81684290  0.17592729  1
  O  O441  1  0.11723293  0.93190011  0.17585029  1
  O  O442  1  0.22611724  0.11754751  0.19367328  1
  O  O443  1  0.73228425  0.32061438  0.19337256  1
  O  O444  1  0.62187729  0.72480789  0.17602915  1
  O  O445  1  0.22958145  0.61715621  0.17519974  1
  O  O446  1  0.12181394  0.43149159  0.19396293  1
  O  O447  1  0.78175602  0.22049675  0.36951620  1
  O  O448  1  0.07132451  0.81656369  0.38936576  1
  O  O449  1  0.77138331  0.61929286  0.38804883  1
  O  O450  1  0.06816471  0.42912842  0.37186938  1
  O  O451  1  0.56962213  0.33684631  0.37280008  1
  O  O452  1  0.27057314  0.73983829  0.38863458  1
  O  O453  1  0.57898760  0.93244977  0.39046811  1
  O  O454  1  0.28414213  0.11678327  0.37521295  1
  O  O455  1  0.94824284  0.34836922  0.36522610  1
  O  O456  1  0.88990596  0.70644942  0.39289191  1
  O  O457  1  0.96272946  0.12974696  0.39209619  1
  O  O458  1  0.89959909  0.89521829  0.36430363  1
  O  O459  1  0.40346074  0.19341876  0.36714387  1
  O  O460  1  0.46463386  0.83326083  0.39638160  1
  O  O461  1  0.39500428  0.41384525  0.39496820  1
  O  O462  1  0.45249136  0.65355750  0.36756874  1
  O  O463  1  0.64253521  0.60303332  0.35556577  1
  O  O464  1  0.70932243  0.43347796  0.27465626  1
  O  O465  1  0.14406508  0.49928630  0.27526685  1
  O  O466  1  0.21173009  0.53773207  0.35616203  1
  O  O467  1  0.70775279  0.93900703  0.35545175  1
  O  O468  1  0.63779638  0.11744249  0.27548201  1
  O  O469  1  0.21028761  0.04591215  0.27531418  1
  O  O470  1  0.14138445  0.00704793  0.35561794  1
  O  O471  1  0.48446781  0.92620747  0.34333508  1
  O  O472  1  0.87038418  0.11243207  0.28981508  1
  O  O473  1  0.98212609  0.50149416  0.28992424  1
  O  O474  1  0.36687145  0.55227826  0.34051903  1
  O  O475  1  0.86691888  0.61723246  0.33962026  1
  O  O476  1  0.47709852  0.43920671  0.29021401  1
  O  O477  1  0.37528934  0.03783282  0.29081739  1
  O  O478  1  0.98424415  0.99822814  0.33942303  1
  O  O479  1  0.32309099  0.90466629  0.33043915  1
  O  O480  1  0.02623146  0.14697698  0.30040933  1
  O  O481  1  0.82347413  0.84952890  0.30100689  1
  O  O482  1  0.52349142  0.20814997  0.32930843  1
  O  O483  1  0.02778049  0.64132871  0.32922240  1
  O  O484  1  0.32742919  0.40037277  0.30250637  1
  O  O485  1  0.52402555  0.70022950  0.29963178  1
  O  O486  1  0.82404376  0.34456641  0.32657779  1
  O  O487  1  0.12039331  0.22677668  0.32490014  1
  O  O488  1  0.22799869  0.82567053  0.30603357  1
  O  O489  1  0.61783332  0.93538204  0.30664071  1
  O  O490  1  0.72826428  0.11874024  0.32405940  1
  O  O491  1  0.23304645  0.31645776  0.32423481  1
  O  O492  1  0.12395885  0.71984467  0.30632176  1
  O  O493  1  0.72391428  0.62198059  0.30653233  1
  O  O494  1  0.61638287  0.43458008  0.32406333  1
  O  O495  1  0.10704517  0.63655725  0.48403455  1
  O  O496  1  0.21432554  0.42056847  0.40755262  1
  O  O497  1  0.64751948  0.48674300  0.40691939  1
  O  O498  1  0.74507005  0.51278422  0.48296958  1
  O  O499  1  0.20516219  0.92288593  0.48597505  1
  O  O500  1  0.14010383  0.12170298  0.40693421  1
  O  O501  1  0.70341687  0.05504634  0.40637857  1
  O  O502  1  0.60937040  0.02515954  0.48394014  1
  O  O503  1  0.98476892  0.94061326  0.46596367  1
  O  O504  1  0.40468311  0.07218030  0.42700343  1
  O  O505  1  0.45833098  0.53448735  0.42164936  1
  O  O506  1  0.88717737  0.56257789  0.47746217  1
  O  O507  1  0.37988362  0.58106419  0.47869676  1
  O  O508  1  0.96125488  0.45019793  0.41993726  1
  O  O509  1  0.86888315  0.04417913  0.41793507  1
  O  O510  1  0.82269491  0.91580761  0.45831258  1
  O  O511  1  0.51577110  0.16678824  0.43145673  1
  O  O512  1  0.32793854  0.85442114  0.43188511  1
  O  O513  1  0.02407338  0.21004956  0.45885491  1
  O  O514  1  0.54519307  0.62260403  0.46106109  1
  O  O515  1  0.83376588  0.38382553  0.42668197  1
  O  O516  1  0.02011062  0.70160893  0.42997112  1
  O  O517  1  0.30803109  0.33293431  0.46436046  1
  O  O518  1  0.61554550  0.24243618  0.45427770  1
  O  O519  1  0.72357087  0.83453115  0.43755743  1
  O  O520  1  0.13633084  0.92409585  0.43520317  1
  O  O521  1  0.23885029  0.12005091  0.45781200  1
  O  O522  1  0.76058653  0.28457449  0.45762596  1
  O  O523  1  0.64026653  0.70216205  0.43788787  1
  O  O524  1  0.22559691  0.61122727  0.43849854  1
  O  O525  1  0.10435133  0.43512025  0.45176365  1
  O  O526  1  0.07924939  0.53460580  0.60967608  1
  O  O527  1  0.78407216  0.93984514  0.62454441  1
  O  O528  1  0.06962699  0.14901991  0.62729552  1
  O  O529  1  0.77043953  0.34472750  0.61134774  1
  O  O530  1  0.27170843  0.46299131  0.61200735  1
  O  O531  1  0.56832225  0.05959934  0.62815810  1
  O  O532  1  0.28176618  0.84125307  0.63048518  1
  O  O533  1  0.57114307  0.66645138  0.61070182  1
  O  O534  1  0.89534164  0.42137286  0.60513191  1
  O  O535  1  0.95227796  0.06712373  0.63237638  1
  O  O536  1  0.90344728  0.62482125  0.63295067  1
  O  O537  1  0.96508864  0.86214751  0.60376530  1
  O  O538  1  0.46312343  0.56969828  0.60795053  1
  O  O539  1  0.39954117  0.93088581  0.63579600  1
  O  O540  1  0.44836708  0.38015487  0.63480217  1
  O  O541  1  0.39023066  0.13841685  0.60703932  1
  O  O542  1  0.20329104  0.16350126  0.59367545  1
  O  O543  1  0.10974122  0.38142439  0.51600293  1
  O  O544  1  0.70488421  0.29255599  0.51415851  1
  O  O545  1  0.64035349  0.22319537  0.59311014  1
  O  O546  1  0.14772598  0.84333598  0.59316569  1
  O  O547  1  0.24458037  0.62304149  0.51704083  1
  O  O548  1  0.60782903  0.77378067  0.51598311  1
  O  O549  1  0.71436968  0.77686862  0.59237822  1
  O  O550  1  0.36893412  0.84353954  0.58215272  1
  O  O551  1  0.87890497  0.28519005  0.52153381  1
  O  O552  1  0.46151037  0.25229768  0.58012944  1
  O  O553  1  0.95879514  0.17394911  0.57836868  1
  O  O554  1  0.38678850  0.28941039  0.52259426  1
  O  O555  1  0.48545134  0.71445327  0.53421406  1
  O  O556  1  0.90576952  0.74319690  0.57292166  1
  O  O557  1  0.52060063  0.88284158  0.56997384  1
  O  O558  1  0.80791138  0.67798719  0.53551182  1
  O  O559  1  0.04539885  0.91252909  0.53901733  1
  O  O560  1  0.33384425  0.57388186  0.57333748  1
  O  O561  1  0.82828380  0.11468757  0.56815877  1
  O  O562  1  0.52434212  0.36668099  0.54133040  1
  O  O563  1  0.32270303  0.06420976  0.54177109  1
  O  O564  1  0.01578851  0.42760663  0.56850548  1
  O  O565  1  0.72640237  0.56286044  0.56161293  1
  O  O566  1  0.60358871  0.98224284  0.54816042  1
  O  O567  1  0.26078873  0.81950345  0.54252097  1
  O  O568  1  0.14018963  0.64277585  0.56216267  1
  O  O569  1  0.63694000  0.42808766  0.56490664  1
  O  O570  1  0.73867446  0.02768564  0.54219131  1
  O  O571  1  0.11522882  0.15244679  0.54577281  1
  O  O572  1  0.22343088  0.34384018  0.56251653  1
  O  O573  1  0.57119798  0.55210332  0.74127201  1
  O  O574  1  0.27601693  0.95395779  0.75859092  1
  O  O575  1  0.57243503  0.16003728  0.75931087  1
  O  O576  1  0.27963192  0.34239363  0.74072681  1
  O  O577  1  0.77694439  0.45543778  0.74072210  1
  O  O578  1  0.06973522  0.05186823  0.75915704  1
  O  O579  1  0.77852471  0.84485231  0.75874809  1
  O  O580  1  0.07349061  0.65670549  0.74135621  1
  O  O581  1  0.39711192  0.42828144  0.73569439  1
  O  O582  1  0.45573263  0.06977936  0.76306627  1
  O  O583  1  0.39902350  0.62703119  0.76473631  1
  O  O584  1  0.45473125  0.87165264  0.73696170  1
  O  O585  1  0.95073255  0.57548581  0.73522575  1
  O  O586  1  0.89503030  0.93147555  0.76299891  1
  O  O587  1  0.95214739  0.37300784  0.76424816  1
  O  O588  1  0.89397986  0.13142803  0.73679351  1
  O  O589  1  0.71016698  0.15864527  0.72466973  1
  O  O590  1  0.64158334  0.33505217  0.64438675  1
  O  O591  1  0.20792793  0.27016891  0.64457174  1
  O  O592  1  0.13729154  0.23271754  0.72446062  1
  O  O593  1  0.64417159  0.83726410  0.72474074  1
  O  O594  1  0.71180328  0.66450987  0.64375151  1
  O  O595  1  0.14259473  0.73688198  0.64441148  1
  O  O596  1  0.20864530  0.77377304  0.72535315  1
  O  O597  1  0.87516363  0.83682730  0.70929345  1
  O  O598  1  0.48437967  0.65822232  0.66064299  1
  O  O599  1  0.36705500  0.27361507  0.66041011  1
  O  O600  1  0.97709233  0.23154671  0.70970685  1
  O  O601  1  0.48227882  0.15910882  0.71012552  1
  O  O602  1  0.86672204  0.33975051  0.65941787  1
  O  O603  1  0.98438818  0.72987629  0.65674033  1
  O  O604  1  0.37022157  0.77185427  0.71020033  1
  O  O605  1  0.02376797  0.87694081  0.70034837  1
  O  O606  1  0.32377965  0.63283694  0.67345689  1
  O  O607  1  0.52790922  0.92819636  0.67078246  1
  O  O608  1  0.82766110  0.57004744  0.69748509  1
  O  O609  1  0.32347458  0.12822387  0.69907569  1
  O  O610  1  0.02359805  0.36957292  0.67067332  1
  O  O611  1  0.82315618  0.07410692  0.66944140  1
  O  O612  1  0.52625941  0.42514283  0.69959034  1
  O  O613  1  0.22350401  0.55576215  0.69350637  1
  O  O614  1  0.11598747  0.95816586  0.67588872  1
  O  O615  1  0.73285953  0.84305771  0.67576562  1
  O  O616  1  0.62404608  0.65738115  0.69358687  1
  O  O617  1  0.11772899  0.45403626  0.69336464  1
  O  O618  1  0.22826239  0.04963290  0.67595628  1
  O  O619  1  0.62025784  0.15757175  0.67508585  1
  O  O620  1  0.72802017  0.34317377  0.69395882  1
  O  O621  1  0.06802001  0.55489693  0.86944214  1
  O  O622  1  0.77863176  0.95875303  0.88927857  1
  O  O623  1  0.07826836  0.15571571  0.88802577  1
  O  O624  1  0.78121394  0.34687248  0.87184200  1
  O  O625  1  0.28023813  0.43835722  0.87263481  1
  O  O626  1  0.57935111  0.03559096  0.88850479  1
  O  O627  1  0.27064598  0.84272055  0.89037609  1
  O  O628  1  0.56547052  0.65885380  0.87539059  1
  O  O629  1  0.90182691  0.42642743  0.86508183  1
  O  O630  1  0.95950157  0.06899971  0.89289649  1
  O  O631  1  0.88704296  0.64559331  0.89202244  1
  O  O632  1  0.95048435  0.87979281  0.86428118  1
  O  O633  1  0.44628948  0.58194418  0.86704605  1
  O  O634  1  0.38473780  0.94233907  0.89632395  1
  O  O635  1  0.45437583  0.36190697  0.89499795  1
  O  O636  1  0.39733072  0.12170885  0.86758498  1
  O  O637  1  0.20707710  0.17247923  0.85556694  1
  O  O638  1  0.14099781  0.34156360  0.77460321  1
  O  O639  1  0.70562972  0.27560361  0.77521581  1
  O  O640  1  0.63787449  0.23802307  0.85615698  1
  O  O641  1  0.14203935  0.83624008  0.85539852  1
  O  O642  1  0.21204030  0.65771780  0.77547586  1
  O  O643  1  0.63960550  0.72943418  0.77528314  1
  O  O644  1  0.70842923  0.76788956  0.85558947  1
  O  O645  1  0.36504924  0.84930144  0.84330834  1
  O  O646  1  0.97968549  0.66276137  0.78978851  1
  O  O647  1  0.86735125  0.27353855  0.78978914  1
  O  O648  1  0.48290500  0.22314625  0.84047373  1
  O  O649  1  0.98259090  0.15803753  0.83956294  1
  O  O650  1  0.37257414  0.33596104  0.79020249  1
  O  O651  1  0.47417254  0.73781396  0.79067804  1
  O  O652  1  0.86532791  0.77770228  0.83928687  1
  O  O653  1  0.52663190  0.87086197  0.83049042  1
  O  O654  1  0.82371049  0.62821433  0.80056608  1
  O  O655  1  0.02624554  0.92546185  0.80089895  1
  O  O656  1  0.32615056  0.56682818  0.82918250  1
  O  O657  1  0.82190544  0.13390685  0.82927114  1
  O  O658  1  0.52216221  0.37537119  0.80259161  1
  O  O659  1  0.32589220  0.07462535  0.79953085  1
  O  O660  1  0.02595089  0.43081254  0.82647542  1
  O  O661  1  0.72957918  0.54808229  0.82477258  1
  O  O662  1  0.62180028  0.94938309  0.80604327  1
  O  O663  1  0.23200628  0.83980094  0.80651302  1
  O  O664  1  0.12141875  0.65661737  0.82405210  1
  O  O665  1  0.61690445  0.45896041  0.82414079  1
  O  O666  1  0.72564944  0.05578822  0.80632331  1
  O  O667  1  0.12617328  0.15312164  0.80649729  1
  O  O668  1  0.23368426  0.34059476  0.82404557  1
  O  O669  1  0.74211687  0.13939562  0.98396724  1
  O  O670  1  0.63485196  0.35561657  0.90752647  1
  O  O671  1  0.20203062  0.28895420  0.90683929  1
  O  O672  1  0.10544339  0.26171980  0.98296394  1
  O  O673  1  0.64514046  0.85166264  0.98595000  1
  O  O674  1  0.70972994  0.65347251  0.90690908  1
  O  O675  1  0.14631590  0.72030257  0.90628072  1
  O  O676  1  0.24037508  0.74995247  0.98402529  1
  O  O677  1  0.86433376  0.83536677  0.96579271  1
  O  O678  1  0.44445862  0.70370107  0.92698516  1
  O  O679  1  0.39168552  0.24062911  0.92158451  1
  O  O680  1  0.96301041  0.21243641  0.97744657  1
  O  O681  1  0.47187902  0.19185424  0.97846125  1
  O  O682  1  0.88854009  0.32512482  0.91991495  1
  O  O683  1  0.98086092  0.73123181  0.91787130  1
  O  O684  1  0.02695753  0.85965385  0.95820434  1
  O  O685  1  0.33381105  0.60868428  0.93138039  1
  O  O686  1  0.52152574  0.92119968  0.93185863  1
  O  O687  1  0.82559285  0.56551459  0.95877117  1
  O  O688  1  0.30473684  0.15305843  0.96086169  1
  O  O689  1  0.01605016  0.39132311  0.92667411  1
  O  O690  1  0.82923136  0.07409557  0.92996552  1
  O  O691  1  0.54123341  0.44311786  0.96426724  1
  O  O692  1  0.23447525  0.53262252  0.95413995  1
  O  O693  1  0.12637427  0.94050268  0.93757549  1
  O  O694  1  0.71288181  0.85161061  0.93505200  1
  O  O695  1  0.61071631  0.65541190  0.95774804  1
  O  O696  1  0.08894459  0.49086919  0.95764214  1
  O  O697  1  0.20949148  0.07326513  0.93779550  1
  O  O698  1  0.62385865  0.16468491  0.93836445  1
  O  O699  1  0.74541821  0.33993968  0.95172743  1
