# generated using pymatgen
data_Li40La18Zr10O67
_symmetry_space_group_name_H-M   'P 1'
_cell_length_a   11.29297700
_cell_length_b   11.29297737
_cell_length_c   54.50495323
_cell_angle_alpha   90.00000000
_cell_angle_beta   90.00000000
_cell_angle_gamma   111.54263211
_symmetry_Int_Tables_number   1
_chemical_formula_structural   Li40La18Zr10O67
_chemical_formula_sum   'Li160 La72 Zr40 O268'
_cell_volume   6465.51829994
_cell_formula_units_Z   4
loop_
 _symmetry_equiv_pos_site_id
 _symmetry_equiv_pos_as_xyz
  1  'x, y, z'
loop_
 _atom_site_type_symbol
 _atom_site_label
 _atom_site_symmetry_multiplicity
 _atom_site_fract_x
 _atom_site_fract_y
 _atom_site_fract_z
 _atom_site_occupancy
  Li  Li0  1  0.35777386  0.25597902  0.99431635  1
  Li  Li1  1  0.37936941  0.47993970  0.99693526  1
  Li  Li2  1  0.67709296  0.23770988  0.99843337  1
  Li  Li3  1  0.15101741  0.06114367  0.01723726  1
  Li  Li4  1  0.24571527  0.56664113  0.02105984  1
  Li  Li5  1  0.73840150  0.08039249  0.02036319  1
  Li  Li6  1  0.83299981  0.48802133  0.01716847  1
  Li  Li7  1  0.93190640  0.01351836  0.03208201  1
  Li  Li8  1  0.03558258  0.61609631  0.03293990  1
  Li  Li9  1  0.01325274  0.84233571  0.04420678  1
  Li  Li10  1  0.36304017  0.59352880  0.06395647  1
  Li  Li11  1  0.14135040  0.04436846  0.06331528  1
  Li  Li12  1  0.63668373  0.04010623  0.06118551  1
  Li  Li13  1  0.85495860  0.59583879  0.06274530  1
  Li  Li14  1  0.50559541  0.83007122  0.08204490  1
  Li  Li15  1  0.55751474  0.62183230  0.09101345  1
  Li  Li16  1  0.42697627  0.01088683  0.08984532  1
  Li  Li17  1  0.30660079  0.47123982  0.10360007  1
  Li  Li18  1  0.24658596  0.06315345  0.10436774  1
  Li  Li19  1  0.74905882  0.56305362  0.10366282  1
  Li  Li20  1  0.65908268  0.12181066  0.10298250  1
  Li  Li21  1  0.19190006  0.24827887  0.11776262  1
  Li  Li22  1  0.80059690  0.37118405  0.11738000  1
  Li  Li23  1  0.00438983  0.32265501  0.12911500  1
  Li  Li24  1  0.77156342  0.66828106  0.14472536  1
  Li  Li25  1  0.22184555  0.45308337  0.14805553  1
  Li  Li26  1  0.21665345  0.94897017  0.14705896  1
  Li  Li27  1  0.77619673  0.17744845  0.14629094  1
  Li  Li28  1  0.97971932  0.79766098  0.16580251  1
  Li  Li29  1  0.80295738  0.87671614  0.17624437  1
  Li  Li30  1  0.19323403  0.75978010  0.17557224  1
  Li  Li31  1  0.69308552  0.64511286  0.18900177  1
  Li  Li32  1  0.74684090  0.06274715  0.18877151  1
  Li  Li33  1  0.24733717  0.56127519  0.19005184  1
  Li  Li34  1  0.33162128  0.00194795  0.19008739  1
  Li  Li35  1  0.44757006  0.50566057  0.20351490  1
  Li  Li36  1  0.56147878  0.11452036  0.20369230  1
  Li  Li37  1  0.48257525  0.29140527  0.21406970  1
  Li  Li38  1  0.85687495  0.08485569  0.23017180  1
  Li  Li39  1  0.63633903  0.52953720  0.23192829  1
  Li  Li40  1  0.13515115  0.52798811  0.23283912  1
  Li  Li41  1  0.35565158  0.08357552  0.23465841  1
  Li  Li42  1  0.98292638  0.29280239  0.25069684  1
  Li  Li43  1  0.06256392  0.11523835  0.26108591  1
  Li  Li44  1  0.94396711  0.50550554  0.26115113  1
  Li  Li45  1  0.83156747  0.00132081  0.27463184  1
  Li  Li46  1  0.74723852  0.56116884  0.27461842  1
  Li  Li47  1  0.24763630  0.06167910  0.27577460  1
  Li  Li48  1  0.18961042  0.64297450  0.27559175  1
  Li  Li49  1  0.69479254  0.75767857  0.28911182  1
  Li  Li50  1  0.30291561  0.87444560  0.28875314  1
  Li  Li51  1  0.48084978  0.79675143  0.29916220  1
  Li  Li52  1  0.27659632  0.17681727  0.31867421  1
  Li  Li53  1  0.71542039  0.94716209  0.31743604  1
  Li  Li54  1  0.72175388  0.45399282  0.31619213  1
  Li  Li55  1  0.27239289  0.66684003  0.32004027  1
  Li  Li56  1  0.50645766  0.32172252  0.33568550  1
  Li  Li57  1  0.30081807  0.36979422  0.34737897  1
  Li  Li58  1  0.69226605  0.24695763  0.34691384  1
  Li  Li59  1  0.15709746  0.12019907  0.36190634  1
  Li  Li60  1  0.24935741  0.56237540  0.36131589  1
  Li  Li61  1  0.74712355  0.06261688  0.36002961  1
  Li  Li62  1  0.80303401  0.46910995  0.36078759  1
  Li  Li63  1  0.92629362  0.01111695  0.37506146  1
  Li  Li64  1  0.05680998  0.62083049  0.37357700  1
  Li  Li65  1  0.00625681  0.83087081  0.38280277  1
  Li  Li66  1  0.35568188  0.59476803  0.40228931  1
  Li  Li67  1  0.13802074  0.04004207  0.40344171  1
  Li  Li68  1  0.64182867  0.04329195  0.40101809  1
  Li  Li69  1  0.86349128  0.59303827  0.40039794  1
  Li  Li70  1  0.51352094  0.84254784  0.42077110  1
  Li  Li71  1  0.53707998  0.61698369  0.43214609  1
  Li  Li72  1  0.43192794  0.01387737  0.43277089  1
  Li  Li73  1  0.33211915  0.48924972  0.44775232  1
  Li  Li74  1  0.23683160  0.07899145  0.44438153  1
  Li  Li75  1  0.74583454  0.56650004  0.44374112  1
  Li  Li76  1  0.65184738  0.06252875  0.44728880  1
  Li  Li77  1  0.17749004  0.23658725  0.46644970  1
  Li  Li78  1  0.87976754  0.48077767  0.46817500  1
  Li  Li79  1  0.86000783  0.25772484  0.47038817  1
  Li  Li80  1  0.74034719  0.59338213  0.49431421  1
  Li  Li81  1  0.72138700  0.37042057  0.49692316  1
  Li  Li82  1  0.42494247  0.61485672  0.49846645  1
  Li  Li83  1  0.94877780  0.78947869  0.51740558  1
  Li  Li84  1  0.85523299  0.28460830  0.52117944  1
  Li  Li85  1  0.36373533  0.77153985  0.52037560  1
  Li  Li86  1  0.26930693  0.36337327  0.51730087  1
  Li  Li87  1  0.16881064  0.83714709  0.53232147  1
  Li  Li88  1  0.06608462  0.23410282  0.53321929  1
  Li  Li89  1  0.08595381  0.00744962  0.54425112  1
  Li  Li90  1  0.73853745  0.25702945  0.56412171  1
  Li  Li91  1  0.95928398  0.80603873  0.56379901  1
  Li  Li92  1  0.46282472  0.81126194  0.56126737  1
  Li  Li93  1  0.24582132  0.25520098  0.56299971  1
  Li  Li94  1  0.59378838  0.02062861  0.58199454  1
  Li  Li95  1  0.54555804  0.23097670  0.59100882  1
  Li  Li96  1  0.67298146  0.83972110  0.58972531  1
  Li  Li97  1  0.79612220  0.38012574  0.60388986  1
  Li  Li98  1  0.85220763  0.78732329  0.60463394  1
  Li  Li99  1  0.35175049  0.28749449  0.60405545  1
  Li  Li100  1  0.44199590  0.72983149  0.60308000  1
  Li  Li101  1  0.90759851  0.60297983  0.61769440  1
  Li  Li102  1  0.29832090  0.47848000  0.61743452  1
  Li  Li103  1  0.09336786  0.52681725  0.62923246  1
  Li  Li104  1  0.32733594  0.18138691  0.64510247  1
  Li  Li105  1  0.87855632  0.39620283  0.64845866  1
  Li  Li106  1  0.88110829  0.90120592  0.64683345  1
  Li  Li107  1  0.32225325  0.67057702  0.64598582  1
  Li  Li108  1  0.11549073  0.04882608  0.66569392  1
  Li  Li109  1  0.29715906  0.97485287  0.67622766  1
  Li  Li110  1  0.90491942  0.09095130  0.67556579  1
  Li  Li111  1  0.41128894  0.20702068  0.68916155  1
  Li  Li112  1  0.35181732  0.78741237  0.68883061  1
  Li  Li113  1  0.85233773  0.28848929  0.69015862  1
  Li  Li114  1  0.76636487  0.84647073  0.69011471  1
  Li  Li115  1  0.65528152  0.34331641  0.70348499  1
  Li  Li116  1  0.53703069  0.73449949  0.70383975  1
  Li  Li117  1  0.61642270  0.55615910  0.71415252  1
  Li  Li118  1  0.24410037  0.76469623  0.72996073  1
  Li  Li119  1  0.46425483  0.31898705  0.73188272  1
  Li  Li120  1  0.96471232  0.32117404  0.73288065  1
  Li  Li121  1  0.74469727  0.76575593  0.73482041  1
  Li  Li122  1  0.11678659  0.55681513  0.75101667  1
  Li  Li123  1  0.03736519  0.73481836  0.76096422  1
  Li  Li124  1  0.15513539  0.34306245  0.76137014  1
  Li  Li125  1  0.26593246  0.84494366  0.77460053  1
  Li  Li126  1  0.35356127  0.28710744  0.77475166  1
  Li  Li127  1  0.85244828  0.78767401  0.77614566  1
  Li  Li128  1  0.90909328  0.20570661  0.77564750  1
  Li  Li129  1  0.40424109  0.08949838  0.78909335  1
  Li  Li130  1  0.79754056  0.97478678  0.78879110  1
  Li  Li131  1  0.61960573  0.05221885  0.79901749  1
  Li  Li132  1  0.82367560  0.67136769  0.81853529  1
  Li  Li133  1  0.38459784  0.90221115  0.81732138  1
  Li  Li134  1  0.37847063  0.39568051  0.81649967  1
  Li  Li135  1  0.82760249  0.18157064  0.82003817  1
  Li  Li136  1  0.59579363  0.52833511  0.83562289  1
  Li  Li137  1  0.79929947  0.47880979  0.84736797  1
  Li  Li138  1  0.40828909  0.60256129  0.84691159  1
  Li  Li139  1  0.94112837  0.72751982  0.86167096  1
  Li  Li140  1  0.85039121  0.28620551  0.86100670  1
  Li  Li141  1  0.35341372  0.78648661  0.86005846  1
  Li  Li142  1  0.29516469  0.38017622  0.86097001  1
  Li  Li143  1  0.17239422  0.83872090  0.87515679  1
  Li  Li144  1  0.04297683  0.22920397  0.87359214  1
  Li  Li145  1  0.09484843  0.02170107  0.88288054  1
  Li  Li146  1  0.74403932  0.25573903  0.90183760  1
  Li  Li147  1  0.96370057  0.81144199  0.90335045  1
  Li  Li148  1  0.45687668  0.80512544  0.90137992  1
  Li  Li149  1  0.23722696  0.25780918  0.90072984  1
  Li  Li150  1  0.58501653  0.00753039  0.92043804  1
  Li  Li151  1  0.56315356  0.23354295  0.93176312  1
  Li  Li152  1  0.66763013  0.83737139  0.93275044  1
  Li  Li153  1  0.76723735  0.36193898  0.94736839  1
  Li  Li154  1  0.86212129  0.77063801  0.94431514  1
  Li  Li155  1  0.35426618  0.28454366  0.94375683  1
  Li  Li156  1  0.44807519  0.78689720  0.94748426  1
  Li  Li157  1  0.92254277  0.61325442  0.96625515  1
  Li  Li158  1  0.22063093  0.37036305  0.96791601  1
  Li  Li159  1  0.24037337  0.59222226  0.97032723  1
  La  La160  1  0.80940220  0.75859555  0.00177659  1
  La  La161  1  0.15144634  0.82299716  0.99614495  1
  La  La162  1  0.50064142  0.81295959  0.02183812  1
  La  La163  1  0.02578969  0.32548615  0.01765736  1
  La  La164  1  0.56673423  0.49853635  0.04017404  1
  La  La165  1  0.42146055  0.11389621  0.03653099  1
  La  La166  1  0.93233888  0.13301642  0.08397462  1
  La  La167  1  0.06395105  0.49827893  0.08274721  1
  La  La168  1  0.99792597  0.81452663  0.10504645  1
  La  La169  1  0.50118119  0.31280201  0.10306136  1
  La  La170  1  0.68360823  0.87912701  0.12631572  1
  La  La171  1  0.31058032  0.74578330  0.12536329  1
  La  La172  1  0.31173057  0.24913466  0.16830669  1
  La  La173  1  0.68313400  0.37603407  0.16902488  1
  La  La174  1  0.99808027  0.31145271  0.18976856  1
  La  La175  1  0.49773170  0.80969334  0.18971164  1
  La  La176  1  0.06478606  0.99641888  0.21034875  1
  La  La177  1  0.93651375  0.62345730  0.21090192  1
  La  La178  1  0.43643128  0.62332686  0.25388713  1
  La  La179  1  0.56456309  0.99607647  0.25446125  1
  La  La180  1  0.49795795  0.31087099  0.27494540  1
  La  La181  1  0.99806983  0.81001963  0.27504215  1
  La  La182  1  0.18352687  0.37579822  0.29578152  1
  La  La183  1  0.81207899  0.24902932  0.29640338  1
  La  La184  1  0.81088183  0.74595763  0.33950855  1
  La  La185  1  0.18380335  0.87866654  0.33844297  1
  La  La186  1  0.49790508  0.81396186  0.35980711  1
  La  La187  1  0.00121282  0.31278769  0.36171865  1
  La  La188  1  0.56370705  0.49807036  0.38211875  1
  La  La189  1  0.43226061  0.13268278  0.38085012  1
  La  La190  1  0.92203434  0.11397556  0.42825692  1
  La  La191  1  0.06638202  0.49844320  0.42459696  1
  La  La192  1  0.00038673  0.81249131  0.44292354  1
  La  La193  1  0.52577377  0.32535819  0.44713763  1
  La  La194  1  0.65231622  0.82467297  0.46870998  1
  La  La195  1  0.30973756  0.75911024  0.46305335  1
  La  La196  1  0.29099180  0.09197713  0.50194991  1
  La  La197  1  0.94899219  0.02772341  0.49621480  1
  La  La198  1  0.60000658  0.03828669  0.52194538  1
  La  La199  1  0.07523487  0.52525639  0.51781683  1
  La  La200  1  0.53419575  0.35217213  0.54030704  1
  La  La201  1  0.67869430  0.73655988  0.53663785  1
  La  La202  1  0.16802491  0.71756507  0.58405035  1
  La  La203  1  0.03687728  0.35230782  0.58284663  1
  La  La204  1  0.10203887  0.03601581  0.60511024  1
  La  La205  1  0.59886378  0.53773615  0.60317271  1
  La  La206  1  0.41612678  0.97149796  0.62640041  1
  La  La207  1  0.78895207  0.10430263  0.62534978  1
  La  La208  1  0.78798969  0.60104322  0.66836546  1
  La  La209  1  0.41653952  0.47381405  0.66908791  1
  La  La210  1  0.10176646  0.53851722  0.68990982  1
  La  La211  1  0.60187397  0.03946974  0.68977939  1
  La  La212  1  0.03503399  0.85333199  0.71034416  1
  La  La213  1  0.16368985  0.22586573  0.71087261  1
  La  La214  1  0.66361390  0.22592530  0.75389598  1
  La  La215  1  0.53532639  0.85313913  0.75450624  1
  La  La216  1  0.60179943  0.53816326  0.77491872  1
  La  La217  1  0.10190218  0.03939347  0.77503590  1
  La  La218  1  0.91659353  0.47335284  0.79575999  1
  La  La219  1  0.28827296  0.60013877  0.79648879  1
  La  La220  1  0.28906615  0.10348562  0.83947619  1
  La  La221  1  0.91642136  0.97059106  0.83850031  1
  La  La222  1  0.60165651  0.03530871  0.85975381  1
  La  La223  1  0.09872523  0.53697745  0.86166158  1
  La  La224  1  0.53594076  0.35208372  0.88198823  1
  La  La225  1  0.66763854  0.71749835  0.88082517  1
  La  La226  1  0.17784687  0.73622426  0.92830587  1
  La  La227  1  0.03308250  0.35160024  0.92451671  1
  La  La228  1  0.09908761  0.03786201  0.94297810  1
  La  La229  1  0.57402086  0.52461618  0.94710142  1
  La  La230  1  0.44788914  0.02665572  0.96857460  1
  La  La231  1  0.78952375  0.09194845  0.96293609  1
  Zr  Zr232  1  0.74628380  0.81933646  0.06312755  1
  Zr  Zr233  1  0.25516076  0.31306753  0.05927793  1
  Zr  Zr234  1  0.75277684  0.31298891  0.05925444  1
  Zr  Zr235  1  0.24230359  0.81149605  0.06208475  1
  Zr  Zr236  1  0.99858726  0.06360234  0.14720258  1
  Zr  Zr237  1  0.49734152  0.56181436  0.14661390  1
  Zr  Zr238  1  0.49598054  0.06257473  0.14652233  1
  Zr  Zr239  1  0.99617267  0.56227110  0.14698781  1
  Zr  Zr240  1  0.24844248  0.31103227  0.23231394  1
  Zr  Zr241  1  0.74952374  0.81016595  0.23225147  1
  Zr  Zr242  1  0.24948863  0.80972026  0.23249144  1
  Zr  Zr243  1  0.74810245  0.31074495  0.23239507  1
  Zr  Zr244  1  0.49671899  0.56124503  0.31787290  1
  Zr  Zr245  1  0.99622244  0.06265851  0.31825685  1
  Zr  Zr246  1  0.99734430  0.56168002  0.31805777  1
  Zr  Zr247  1  0.49874625  0.06293779  0.31754290  1
  Zr  Zr248  1  0.74217030  0.81126206  0.40277989  1
  Zr  Zr249  1  0.25270572  0.31277039  0.40566006  1
  Zr  Zr250  1  0.75513078  0.31275586  0.40539246  1
  Zr  Zr251  1  0.24636325  0.81854567  0.40166288  1
  Zr  Zr252  1  0.35404224  0.03204028  0.56330134  1
  Zr  Zr253  1  0.84537643  0.53756266  0.55941924  1
  Zr  Zr254  1  0.34807333  0.53812041  0.55935775  1
  Zr  Zr255  1  0.85792755  0.03897447  0.56216951  1
  Zr  Zr256  1  0.10102878  0.78677285  0.64724294  1
  Zr  Zr257  1  0.60278343  0.28843784  0.64670200  1
  Zr  Zr258  1  0.60296165  0.78737907  0.64661589  1
  Zr  Zr259  1  0.10332079  0.28800894  0.64707151  1
  Zr  Zr260  1  0.85152798  0.53855200  0.73233946  1
  Zr  Zr261  1  0.35027980  0.03883939  0.73229425  1
  Zr  Zr262  1  0.85058473  0.03964420  0.73249190  1
  Zr  Zr263  1  0.35136717  0.53812076  0.73254908  1
  Zr  Zr264  1  0.60340307  0.28766257  0.81779676  1
  Zr  Zr265  1  0.10399656  0.78681620  0.81823574  1
  Zr  Zr266  1  0.10250925  0.28752279  0.81811494  1
  Zr  Zr267  1  0.60169578  0.78632713  0.81754095  1
  Zr  Zr268  1  0.35719011  0.03885826  0.90270237  1
  Zr  Zr269  1  0.84744346  0.53774935  0.90545184  1
  Zr  Zr270  1  0.34455071  0.53720135  0.90541177  1
  Zr  Zr271  1  0.85325259  0.03172182  0.90164115  1
  O  O272  1  0.51350117  0.62289909  0.00942226  1
  O  O273  1  0.55018031  0.04186118  0.01014400  1
  O  O274  1  0.73184697  0.90349467  0.02783806  1
  O  O275  1  0.25676453  0.72961563  0.02764639  1
  O  O276  1  0.37545443  0.31427162  0.02919723  1
  O  O277  1  0.66813835  0.34869469  0.02672562  1
  O  O278  1  0.20314197  0.95041673  0.04182490  1
  O  O279  1  0.77650570  0.67353821  0.04139868  1
  O  O280  1  0.09416217  0.17567203  0.04156245  1
  O  O281  1  0.19815607  0.46002859  0.04800165  1
  O  O282  1  0.80784979  0.16434172  0.04970288  1
  O  O283  1  0.92526343  0.45119890  0.04393372  1
  O  O284  1  0.54783765  0.71281818  0.06012803  1
  O  O285  1  0.43988693  0.92241498  0.05862183  1
  O  O286  1  0.94328242  0.93217262  0.06569950  1
  O  O287  1  0.04319433  0.70625476  0.06438365  1
  O  O288  1  0.41853040  0.45448696  0.07657237  1
  O  O289  1  0.31093310  0.17491499  0.07631622  1
  O  O290  1  0.68975813  0.44899128  0.07648533  1
  O  O291  1  0.58218884  0.17587756  0.07465920  1
  O  O292  1  0.27804654  0.67150529  0.08362071  1
  O  O293  1  0.70457525  0.95514958  0.08390309  1
  O  O294  1  0.13880189  0.31909612  0.09065482  1
  O  O295  1  0.87017343  0.31541810  0.09090075  1
  O  O296  1  0.76050372  0.73362845  0.09610688  1
  O  O297  1  0.23176132  0.89268376  0.09650652  1
  O  O298  1  0.08094693  0.05240979  0.11321924  1
  O  O299  1  0.91732321  0.58016053  0.11297302  1
  O  O300  1  0.49235226  0.68315215  0.11729587  1
  O  O301  1  0.50272375  0.95083904  0.11576670  1
  O  O302  1  0.13580997  0.52207329  0.12622967  1
  O  O303  1  0.85750342  0.09916819  0.12602592  1
  O  O304  1  0.35363490  0.39861159  0.13139371  1
  O  O305  1  0.63241137  0.49779042  0.13020584  1
  O  O306  1  0.36447926  0.13154309  0.13058596  1
  O  O307  1  0.63991719  0.22471975  0.13070280  1
  O  O308  1  0.88859549  0.86551748  0.14360381  1
  O  O309  1  0.10408472  0.76053921  0.14419105  1
  O  O310  1  0.10574781  0.26178650  0.15056046  1
  O  O311  1  0.88681415  0.36466839  0.15022656  1
  O  O312  1  0.64069668  0.72535681  0.16228078  1
  O  O313  1  0.36143596  0.62643846  0.16271984  1
  O  O314  1  0.63154705  0.99473243  0.16219584  1
  O  O315  1  0.35411937  0.89983685  0.16236979  1
  O  O316  1  0.85418556  0.59987184  0.16783572  1
  O  O317  1  0.14288212  0.03227584  0.16824551  1
  O  O318  1  0.50493715  0.44357062  0.17637104  1
  O  O319  1  0.48881807  0.17420742  0.17754093  1
  O  O320  1  0.91687421  0.07277436  0.18175768  1
  O  O321  1  0.07579990  0.54808281  0.18173019  1
  O  O322  1  0.23484836  0.39050701  0.19791172  1
  O  O323  1  0.75850367  0.22996031  0.19781204  1
  O  O324  1  0.86327586  0.80146672  0.20150717  1
  O  O325  1  0.13235890  0.81777427  0.20284043  1
  O  O326  1  0.71913546  0.45469532  0.21116134  1
  O  O327  1  0.28843775  0.16930080  0.21186564  1
  O  O328  1  0.58762222  0.66615708  0.21663003  1
  O  O329  1  0.68382682  0.94499229  0.21582865  1
  O  O330  1  0.31770390  0.67708689  0.21655650  1
  O  O331  1  0.41304207  0.95351529  0.21740413  1
  O  O332  1  0.05162811  0.20095552  0.22881556  1
  O  O333  1  0.94760751  0.41640668  0.22934696  1
  O  O334  1  0.44797224  0.41642256  0.23535758  1
  O  O335  1  0.55144546  0.20053968  0.23606150  1
  O  O336  1  0.91350309  0.95360122  0.24735825  1
  O  O337  1  0.81729212  0.67693159  0.24815624  1
  O  O338  1  0.18404824  0.94503340  0.24885546  1
  O  O339  1  0.08689608  0.66604436  0.24805129  1
  O  O340  1  0.78847994  0.16933149  0.25292892  1
  O  O341  1  0.21961381  0.45493234  0.25364547  1
  O  O342  1  0.63298544  0.81761072  0.26204367  1
  O  O343  1  0.36317002  0.80080572  0.26318188  1
  O  O344  1  0.25914947  0.22969109  0.26687300  1
  O  O345  1  0.73561793  0.39085066  0.26681398  1
  O  O346  1  0.57641777  0.54737326  0.28314253  1
  O  O347  1  0.41710399  0.07177406  0.28298871  1
  O  O348  1  0.98975571  0.17476794  0.28727520  1
  O  O349  1  0.00577960  0.44459936  0.28816142  1
  O  O350  1  0.64309941  0.03192028  0.29648811  1
  O  O351  1  0.35511687  0.59911765  0.29702243  1
  O  O352  1  0.85441466  0.89990101  0.30245220  1
  O  O353  1  0.13182155  0.99479044  0.30259328  1
  O  O354  1  0.86148824  0.62661710  0.30191646  1
  O  O355  1  0.14093672  0.72541593  0.30241224  1
  O  O356  1  0.38744001  0.36376555  0.31461968  1
  O  O357  1  0.60609834  0.26099300  0.31407860  1
  O  O358  1  0.60479567  0.75971703  0.32063828  1
  O  O359  1  0.38903885  0.86465017  0.32117885  1
  O  O360  1  0.14039908  0.22449902  0.33415699  1
  O  O361  1  0.86504573  0.13234681  0.33414175  1
  O  O362  1  0.13240843  0.49758094  0.33456165  1
  O  O363  1  0.85361916  0.39867541  0.33311624  1
  O  O364  1  0.35804842  0.09851034  0.33879674  1
  O  O365  1  0.63673942  0.52137991  0.33862153  1
  O  O366  1  0.00292554  0.95143201  0.34912091  1
  O  O367  1  0.99265135  0.68348211  0.34732693  1
  O  O368  1  0.41767577  0.57932265  0.35187489  1
  O  O369  1  0.58115008  0.05179149  0.35155139  1
  O  O370  1  0.73171069  0.89276562  0.36837414  1
  O  O371  1  0.26055250  0.73306556  0.36866917  1
  O  O372  1  0.37050495  0.31532307  0.37406664  1
  O  O373  1  0.63887270  0.31853041  0.37395778  1
  O  O374  1  0.20468462  0.95453484  0.38085803  1
  O  O375  1  0.77775672  0.67155515  0.38117178  1
  O  O376  1  0.08215571  0.17561174  0.39020798  1
  O  O377  1  0.18960960  0.44863849  0.38842526  1
  O  O378  1  0.81108754  0.17465667  0.38831265  1
  O  O379  1  0.91817005  0.45431217  0.38801263  1
  O  O380  1  0.54325870  0.70612214  0.40047227  1
  O  O381  1  0.44318354  0.93161494  0.39914112  1
  O  O382  1  0.93983464  0.92207695  0.40623267  1
  O  O383  1  0.04774832  0.71223754  0.40461162  1
  O  O384  1  0.42503842  0.45162209  0.42101442  1
  O  O385  1  0.30756543  0.16384297  0.41515685  1
  O  O386  1  0.69799134  0.45965648  0.41673465  1
  O  O387  1  0.59408528  0.17583784  0.42312259  1
  O  O388  1  0.27654777  0.67296505  0.42350216  1
  O  O389  1  0.70335465  0.95063328  0.42297901  1
  O  O390  1  0.16764337  0.34825047  0.43816185  1
  O  O391  1  0.87555835  0.31404080  0.43543775  1
  O  O392  1  0.75590406  0.72930938  0.43725003  1
  O  O393  1  0.23142626  0.90295343  0.43691527  1
  O  O394  1  0.05020368  0.04143615  0.45473215  1
  O  O395  1  0.01357140  0.62287341  0.45540598  1
  O  O396  1  0.46238287  0.64481003  0.46210251  1
  O  O397  1  0.49840249  0.92466777  0.45645271  1
  O  O398  1  0.80179521  0.07115161  0.46894867  1
  O  O399  1  0.34335733  0.20907530  0.46698048  1
  O  O400  1  0.69405004  0.46247642  0.47058608  1
  O  O401  1  0.19362446  0.46250934  0.99421836  1
  O  O402  1  0.84320773  0.21041138  0.99775229  1
  O  O403  1  0.30041971  0.07005381  0.99578993  1
  O  O404  1  0.99802569  0.92367073  0.00840702  1
  O  O405  1  0.96158524  0.64351428  0.00277922  1
  O  O406  1  0.58683693  0.22809435  0.50949992  1
  O  O407  1  0.55019519  0.80917399  0.51025427  1
  O  O408  1  0.36887960  0.94750369  0.52803344  1
  O  O409  1  0.84366240  0.12113760  0.52774196  1
  O  O410  1  0.72506202  0.53642815  0.52934483  1
  O  O411  1  0.43342961  0.50278280  0.52684117  1
  O  O412  1  0.89710075  0.89967385  0.54205835  1
  O  O413  1  0.32430370  0.17792887  0.54151836  1
  O  O414  1  0.00647382  0.67484399  0.54179379  1
  O  O415  1  0.90270448  0.39083404  0.54812427  1
  O  O416  1  0.29278436  0.68656467  0.54971046  1
  O  O417  1  0.17593915  0.39934514  0.54402715  1
  O  O418  1  0.55280299  0.13854424  0.56020786  1
  O  O419  1  0.66041905  0.92869274  0.55867795  1
  O  O420  1  0.15733212  0.91876365  0.56577985  1
  O  O421  1  0.05727420  0.14396307  0.56453198  1
  O  O422  1  0.68240189  0.39591295  0.57675925  1
  O  O423  1  0.78918313  0.67527879  0.57655190  1
  O  O424  1  0.41088870  0.40217282  0.57671622  1
  O  O425  1  0.51850635  0.67542595  0.57473309  1
  O  O426  1  0.82290566  0.17920411  0.58375076  1
  O  O427  1  0.39597214  0.89618379  0.58400399  1
  O  O428  1  0.96172062  0.53156473  0.59082697  1
  O  O429  1  0.23018917  0.53546882  0.59089390  1
  O  O430  1  0.33929283  0.11692234  0.59631105  1
  O  O431  1  0.86765518  0.95760804  0.59661263  1
  O  O432  1  0.01873636  0.79816981  0.61320051  1
  O  O433  1  0.18270203  0.27098404  0.61301419  1
  O  O434  1  0.60764379  0.16719541  0.61737715  1
  O  O435  1  0.59682601  0.89888349  0.61580338  1
  O  O436  1  0.96395030  0.32884983  0.62625164  1
  O  O437  1  0.24248506  0.75178061  0.62604667  1
  O  O438  1  0.74638162  0.45148110  0.63159705  1
  O  O439  1  0.46786623  0.35301756  0.63043973  1
  O  O440  1  0.73530491  0.71874352  0.63077151  1
  O  O441  1  0.45954463  0.62519379  0.63073627  1
  O  O442  1  0.21080785  0.98513835  0.64367369  1
  O  O443  1  0.99469478  0.08982235  0.64412262  1
  O  O444  1  0.99374428  0.58887822  0.65067038  1
  O  O445  1  0.21244970  0.48573565  0.65024820  1
  O  O446  1  0.45911622  0.12465675  0.66234660  1
  O  O447  1  0.73850985  0.22331964  0.66283628  1
  O  O448  1  0.46801992  0.85551931  0.66230047  1
  O  O449  1  0.74492202  0.94982973  0.66243837  1
  O  O450  1  0.24513752  0.25083679  0.66787626  1
  O  O451  1  0.95724020  0.81933573  0.66817244  1
  O  O452  1  0.59456794  0.40547494  0.67662322  1
  O  O453  1  0.61036391  0.67556153  0.67759360  1
  O  O454  1  0.18235926  0.77746071  0.68182129  1
  O  O455  1  0.02350715  0.30235534  0.68169245  1
  O  O456  1  0.86433029  0.45884289  0.69791385  1
  O  O457  1  0.34074252  0.61980811  0.69801351  1
  O  O458  1  0.23669664  0.04828483  0.70166040  1
  O  O459  1  0.96764201  0.03260721  0.70274567  1
  O  O460  1  0.38106178  0.39469161  0.71124282  1
  O  O461  1  0.81143630  0.68024072  0.71181850  1
  O  O462  1  0.51299506  0.18277241  0.71666038  1
  O  O463  1  0.41569262  0.90371104  0.71592492  1
  O  O464  1  0.78250136  0.17251211  0.71659881  1
  O  O465  1  0.68657634  0.89585577  0.71750059  1
  O  O466  1  0.04829473  0.64837370  0.72876506  1
  O  O467  1  0.15212761  0.43284538  0.72947259  1
  O  O468  1  0.65222859  0.43252965  0.73539720  1
  O  O469  1  0.54818512  0.64825852  0.73613864  1
  O  O470  1  0.18634783  0.89549152  0.74733607  1
  O  O471  1  0.28297048  0.17199783  0.74826518  1
  O  O472  1  0.91609252  0.90425872  0.74884619  1
  O  O473  1  0.01303019  0.18315258  0.74813427  1
  O  O474  1  0.31138938  0.67999310  0.75305442  1
  O  O475  1  0.88078876  0.39492012  0.75363103  1
  O  O476  1  0.46779854  0.03198803  0.76198528  1
  O  O477  1  0.73721915  0.04860240  0.76324919  1
  O  O478  1  0.84089808  0.61998604  0.76687415  1
  O  O479  1  0.36407183  0.45800138  0.76694808  1
  O  O480  1  0.52418713  0.30218945  0.78308438  1
  O  O481  1  0.68312174  0.77748047  0.78300288  1
  O  O482  1  0.11071755  0.67516173  0.78716631  1
  O  O483  1  0.09452217  0.40508629  0.78829658  1
  O  O484  1  0.45747626  0.81741551  0.79655646  1
  O  O485  1  0.74533546  0.25002866  0.79700010  1
  O  O486  1  0.24566320  0.94911757  0.80237927  1
  O  O487  1  0.96852536  0.85484971  0.80258331  1
  O  O488  1  0.23842103  0.22228521  0.80202280  1
  O  O489  1  0.95904484  0.12393764  0.80244539  1
  O  O490  1  0.71301423  0.48515221  0.81454607  1
  O  O491  1  0.49431708  0.58821689  0.81414804  1
  O  O492  1  0.49532951  0.08933851  0.82053377  1
  O  O493  1  0.71110833  0.98451894  0.82119622  1
  O  O494  1  0.95981787  0.62448439  0.83404393  1
  O  O495  1  0.23525784  0.71697679  0.83408414  1
  O  O496  1  0.96747752  0.35151412  0.83451661  1
  O  O497  1  0.24634905  0.45059368  0.83320518  1
  O  O498  1  0.74263001  0.75042780  0.83876921  1
  O  O499  1  0.46377392  0.32774575  0.83861538  1
  O  O500  1  0.09693681  0.89808174  0.84901919  1
  O  O501  1  0.10705095  0.16591137  0.84744904  1
  O  O502  1  0.68226694  0.26976931  0.85184278  1
  O  O503  1  0.51925731  0.79723665  0.85156619  1
  O  O504  1  0.36797296  0.95727835  0.86830160  1
  O  O505  1  0.83895126  0.11653748  0.86861270  1
  O  O506  1  0.72984812  0.53496522  0.87385808  1
  O  O507  1  0.46104362  0.53124352  0.87405201  1
  O  O508  1  0.89541973  0.89619267  0.88090410  1
  O  O509  1  0.32126667  0.17853170  0.88116206  1
  O  O510  1  0.01810396  0.67484116  0.89004069  1
  O  O511  1  0.91026559  0.40168010  0.88814422  1
  O  O512  1  0.28900150  0.67529707  0.88835453  1
  O  O513  1  0.18165933  0.39583466  0.88801567  1
  O  O514  1  0.55618178  0.14399462  0.90033586  1
  O  O515  1  0.65643749  0.91844595  0.89910437  1
  O  O516  1  0.15972002  0.92838416  0.90621795  1
  O  O517  1  0.05182782  0.13850335  0.90469645  1
  O  O518  1  0.67470148  0.39894585  0.92072874  1
  O  O519  1  0.79260030  0.68645679  0.91499660  1
  O  O520  1  0.40176994  0.39044582  0.91674395  1
  O  O521  1  0.50540258  0.67441271  0.92322691  1
  O  O522  1  0.82299851  0.17788272  0.92334815  1
  O  O523  1  0.39614255  0.89963804  0.92294678  1
  O  O524  1  0.93207417  0.50206411  0.93798836  1
  O  O525  1  0.22410057  0.53569290  0.93547246  1
  O  O526  1  0.34368665  0.12129026  0.93713738  1
  O  O527  1  0.86774942  0.94756142  0.93698067  1
  O  O528  1  0.04925908  0.80864508  0.95464251  1
  O  O529  1  0.08665220  0.22782994  0.95535811  1
  O  O530  1  0.63759038  0.20657725  0.96194679  1
  O  O531  1  0.60087773  0.92620620  0.95641170  1
  O  O532  1  0.29793423  0.77873752  0.96886035  1
  O  O533  1  0.75637499  0.64030924  0.96692375  1
  O  O534  1  0.40606361  0.38771430  0.97061394  1
  O  O535  1  0.90700925  0.38810407  0.49430831  1
  O  O536  1  0.25740824  0.64068494  0.49785177  1
  O  O537  1  0.79909974  0.78012287  0.49592744  1
  O  O538  1  0.10215792  0.92704480  0.50862087  1
  O  O539  1  0.13894147  0.20702831  0.50288025  1
