# generated using pymatgen
data_Li40La18Zr10O67
_symmetry_space_group_name_H-M   'P 1'
_cell_length_a   11.29297700
_cell_length_b   11.29297737
_cell_length_c   53.42278263
_cell_angle_alpha   90.00000000
_cell_angle_beta   90.00000000
_cell_angle_gamma   111.54263211
_symmetry_Int_Tables_number   1
_chemical_formula_structural   Li40La18Zr10O67
_chemical_formula_sum   'Li160 La72 Zr40 O268'
_cell_volume   6337.14842872
_cell_formula_units_Z   4
loop_
 _symmetry_equiv_pos_site_id
 _symmetry_equiv_pos_as_xyz
  1  'x, y, z'
loop_
 _atom_site_type_symbol
 _atom_site_label
 _atom_site_symmetry_multiplicity
 _atom_site_fract_x
 _atom_site_fract_y
 _atom_site_fract_z
 _atom_site_occupancy
  Li  Li0  1  0.30788786  0.54184521  0.01645926  1
  Li  Li1  1  0.71905846  0.00714822  0.03959325  1
  Li  Li2  1  0.87616513  0.53920337  0.01556144  1
  Li  Li3  1  0.93992401  0.04267983  0.02599759  1
  Li  Li4  1  0.09769994  0.54115404  0.02339865  1
  Li  Li5  1  0.02563640  0.78312785  0.04627856  1
  Li  Li6  1  0.38082486  0.56117374  0.05796015  1
  Li  Li7  1  0.15979815  0.00355278  0.05986534  1
  Li  Li8  1  0.60413143  0.98787168  0.07996255  1
  Li  Li9  1  0.88635770  0.56692078  0.06001008  1
  Li  Li10  1  0.50009166  0.75889516  0.07736276  1
  Li  Li11  1  0.58867087  0.58792145  0.08673158  1
  Li  Li12  1  0.42175792  0.97862019  0.09458211  1
  Li  Li13  1  0.35323593  0.46748152  0.10148179  1
  Li  Li14  1  0.26807669  0.04289400  0.10353757  1
  Li  Li15  1  0.77378045  0.53852942  0.10073196  1
  Li  Li16  1  0.74390356  0.15264339  0.10175641  1
  Li  Li17  1  0.22347867  0.23669680  0.11729564  1
  Li  Li18  1  0.83946446  0.36140870  0.11633464  1
  Li  Li19  1  0.03674398  0.30047471  0.12828272  1
  Li  Li20  1  0.80017848  0.63805148  0.14251853  1
  Li  Li21  1  0.25146251  0.43126926  0.14723484  1
  Li  Li22  1  0.24675811  0.92092959  0.14661442  1
  Li  Li23  1  0.80904362  0.15318891  0.14682609  1
  Li  Li24  1  0.00280696  0.77136446  0.16580006  1
  Li  Li25  1  0.82878601  0.85419506  0.17500515  1
  Li  Li26  1  0.22258993  0.73422110  0.17636818  1
  Li  Li27  1  0.72426680  0.62441380  0.18797239  1
  Li  Li28  1  0.77809647  0.04014691  0.18905774  1
  Li  Li29  1  0.27735714  0.53707576  0.19006627  1
  Li  Li30  1  0.36828028  0.98346150  0.18984691  1
  Li  Li31  1  0.47534461  0.48235946  0.20299912  1
  Li  Li32  1  0.59212296  0.09196301  0.20436582  1
  Li  Li33  1  0.51521403  0.27122429  0.21461869  1
  Li  Li34  1  0.88612645  0.06217378  0.23081375  1
  Li  Li35  1  0.66408337  0.50778254  0.23235279  1
  Li  Li36  1  0.16455229  0.50812157  0.23414785  1
  Li  Li37  1  0.38579002  0.06166927  0.23558595  1
  Li  Li38  1  0.01587038  0.27147456  0.25171664  1
  Li  Li39  1  0.09250650  0.09203885  0.26209315  1
  Li  Li40  1  0.97740252  0.48346708  0.26319193  1
  Li  Li41  1  0.86798448  0.98331368  0.27641447  1
  Li  Li42  1  0.77773268  0.53766552  0.27631281  1
  Li  Li43  1  0.27853660  0.03970375  0.27726578  1
  Li  Li44  1  0.22484772  0.62555070  0.27836884  1
  Li  Li45  1  0.72239581  0.73476112  0.29009419  1
  Li  Li46  1  0.32967313  0.85413252  0.29125808  1
  Li  Li47  1  0.50214173  0.77081639  0.30059613  1
  Li  Li48  1  0.30856157  0.15356163  0.31942146  1
  Li  Li49  1  0.74678442  0.92117605  0.31995197  1
  Li  Li50  1  0.75099921  0.43079789  0.31921865  1
  Li  Li51  1  0.29979230  0.63764376  0.32392429  1
  Li  Li52  1  0.53657131  0.30068117  0.33811831  1
  Li  Li53  1  0.33942292  0.36240763  0.35017343  1
  Li  Li54  1  0.72366969  0.23715049  0.34903637  1
  Li  Li55  1  0.24387586  0.15246709  0.36448738  1
  Li  Li56  1  0.27336818  0.53861669  0.36584115  1
  Li  Li57  1  0.76708519  0.04294861  0.36289586  1
  Li  Li58  1  0.85300661  0.46731800  0.36483103  1
  Li  Li59  1  0.92108153  0.97867260  0.37165797  1
  Li  Li60  1  0.08801814  0.58837532  0.37932890  1
  Li  Li61  1  0.99943204  0.75987144  0.38910325  1
  Li  Li62  1  0.38661866  0.56697987  0.40650275  1
  Li  Li63  1  0.10372432  0.98792627  0.38647974  1
  Li  Li64  1  0.65975316  0.00374054  0.40650006  1
  Li  Li65  1  0.88256389  0.56042427  0.40810525  1
  Li  Li66  1  0.52593103  0.78447893  0.42004074  1
  Li  Li67  1  0.59195674  0.54277992  0.44373206  1
  Li  Li68  1  0.44080726  0.04265944  0.44027865  1
  Li  Li69  1  0.37394543  0.53838420  0.45080361  1
  Li  Li70  1  0.21907422  0.00606310  0.42663736  1
  Li  Li71  1  0.80499927  0.54294812  0.44952038  1
  Li  Li72  1  0.66679536  0.03632599  0.45130603  1
  Li  Li73  1  0.21206067  0.16249130  0.45855035  1
  Li  Li74  1  0.87690798  0.24387550  0.47403405  1
  Li  Li75  1  0.16835412  0.33312269  0.47652667  1
  Li  Li76  1  0.66879106  0.33355888  0.98990026  1
  Li  Li77  1  0.37717850  0.24403530  0.99225964  1
  Li  Li78  1  0.71186427  0.16267519  0.00783149  1
  Li  Li79  1  0.16728509  0.03556637  0.01508492  1
  Li  Li80  1  0.89351983  0.28262819  0.51670457  1
  Li  Li81  1  0.47996844  0.81735756  0.53998557  1
  Li  Li82  1  0.32560325  0.28648798  0.51555623  1
  Li  Li83  1  0.25967857  0.78172939  0.52593441  1
  Li  Li84  1  0.10487281  0.28556448  0.52332448  1
  Li  Li85  1  0.17600040  0.04257473  0.54649894  1
  Li  Li86  1  0.81826558  0.26528290  0.55830678  1
  Li  Li87  1  0.04147207  0.82214684  0.56010549  1
  Li  Li88  1  0.59810436  0.83911009  0.57999438  1
  Li  Li89  1  0.31386411  0.25903221  0.55997901  1
  Li  Li90  1  0.70111122  0.06656565  0.57733443  1
  Li  Li91  1  0.61255934  0.23718072  0.58681281  1
  Li  Li92  1  0.77974863  0.84669145  0.59490699  1
  Li  Li93  1  0.84822919  0.35901718  0.60160880  1
  Li  Li94  1  0.93292075  0.78137178  0.60347223  1
  Li  Li95  1  0.42607458  0.28633754  0.60048561  1
  Li  Li96  1  0.45824826  0.67442233  0.60165409  1
  Li  Li97  1  0.97637471  0.58771207  0.61750784  1
  Li  Li98  1  0.36040804  0.46439881  0.61624611  1
  Li  Li99  1  0.16061795  0.52197006  0.62828847  1
  Li  Li100  1  0.39945036  0.18704668  0.64244100  1
  Li  Li101  1  0.94764844  0.39309436  0.64734702  1
  Li  Li102  1  0.95213855  0.90244140  0.64625114  1
  Li  Li103  1  0.39030959  0.67058094  0.64662964  1
  Li  Li104  1  0.19484436  0.05300870  0.66579759  1
  Li  Li105  1  0.36995049  0.97203154  0.67498691  1
  Li  Li106  1  0.97758175  0.09105330  0.67617137  1
  Li  Li107  1  0.47476228  0.20117712  0.68789112  1
  Li  Li108  1  0.42166531  0.78554558  0.68916808  1
  Li  Li109  1  0.92178551  0.28599564  0.69016503  1
  Li  Li110  1  0.83209451  0.84157251  0.68978179  1
  Li  Li111  1  0.72346050  0.34040898  0.70312329  1
  Li  Li112  1  0.60674529  0.73165828  0.70436533  1
  Li  Li113  1  0.68343610  0.55099039  0.71460794  1
  Li  Li114  1  0.31226231  0.76178128  0.73093646  1
  Li  Li115  1  0.53546842  0.31711216  0.73240698  1
  Li  Li116  1  0.03406105  0.31600817  0.73394118  1
  Li  Li117  1  0.81163156  0.76123456  0.73542472  1
  Li  Li118  1  0.18341964  0.55128820  0.75176686  1
  Li  Li119  1  0.10644969  0.73138357  0.76218936  1
  Li  Li120  1  0.22310424  0.34041798  0.76321883  1
  Li  Li121  1  0.33197861  0.84133909  0.77641658  1
  Li  Li122  1  0.42155263  0.28624882  0.77616663  1
  Li  Li123  1  0.92178666  0.78511337  0.77719422  1
  Li  Li124  1  0.97387286  0.19949679  0.77835621  1
  Li  Li125  1  0.47711803  0.09122802  0.79003036  1
  Li  Li126  1  0.86922480  0.97034660  0.79127753  1
  Li  Li127  1  0.69490181  0.05309781  0.80079892  1
  Li  Li128  1  0.89035557  0.67042410  0.81975847  1
  Li  Li129  1  0.45237616  0.90320957  0.81997216  1
  Li  Li130  1  0.44767642  0.39286796  0.81889869  1
  Li  Li131  1  0.89914396  0.18685322  0.82393860  1
  Li  Li132  1  0.65997934  0.52161659  0.83825254  1
  Li  Li133  1  0.85962103  0.46466842  0.85022945  1
  Li  Li134  1  0.47625839  0.58781853  0.84904033  1
  Li  Li135  1  0.95827874  0.67465132  0.86482522  1
  Li  Li136  1  0.92599976  0.28660554  0.86584740  1
  Li  Li137  1  0.43314317  0.78211300  0.86287383  1
  Li  Li138  1  0.34866815  0.35918010  0.86478369  1
  Li  Li139  1  0.27942206  0.84669683  0.87165739  1
  Li  Li140  1  0.11252834  0.23758413  0.87945170  1
  Li  Li141  1  0.20132646  0.06721448  0.88889362  1
  Li  Li142  1  0.81414330  0.25904600  0.90651865  1
  Li  Li143  1  0.09800978  0.83927975  0.88653786  1
  Li  Li144  1  0.54136115  0.82246290  0.90632712  1
  Li  Li145  1  0.31806659  0.26556666  0.90802732  1
  Li  Li146  1  0.67603562  0.04261152  0.92011758  1
  Li  Li147  1  0.60694788  0.28124334  0.94351593  1
  Li  Li148  1  0.76057911  0.78310330  0.94044048  1
  Li  Li149  1  0.82650581  0.28712215  0.95103101  1
  Li  Li150  1  0.98052654  0.81782762  0.92661899  1
  Li  Li151  1  0.39441663  0.28307998  0.94959346  1
  Li  Li152  1  0.53358269  0.78855842  0.95116162  1
  Li  Li153  1  0.98868360  0.66264556  0.95853026  1
  Li  Li154  1  0.32371845  0.58043412  0.97395590  1
  Li  Li155  1  0.03031222  0.49040554  0.97669581  1
  Li  Li156  1  0.52820712  0.48931923  0.48985372  1
  Li  Li157  1  0.82231130  0.58038721  0.49225135  1
  Li  Li158  1  0.48854734  0.66249628  0.50789173  1
  Li  Li159  1  0.03323861  0.78861279  0.51526114  1
  La  La160  1  0.85662865  0.76674223  0.99669125  1
  La  La161  1  0.21519703  0.79125210  0.99651584  1
  La  La162  1  0.53771092  0.78144379  0.01175541  1
  La  La163  1  0.11854526  0.29171952  0.00246797  1
  La  La164  1  0.58776186  0.46735752  0.03249438  1
  La  La165  1  0.46106711  0.09689867  0.03873664  1
  La  La166  1  0.97378561  0.10369945  0.08185070  1
  La  La167  1  0.09096067  0.47122311  0.07983080  1
  La  La168  1  0.02461804  0.78629071  0.10453329  1
  La  La169  1  0.53462464  0.28948747  0.10038581  1
  La  La170  1  0.71201560  0.85456760  0.12332516  1
  La  La171  1  0.33728174  0.71836808  0.12515055  1
  La  La172  1  0.34211376  0.22617442  0.16772946  1
  La  La173  1  0.71319663  0.35186930  0.16877769  1
  La  La174  1  0.02902155  0.28908469  0.19000245  1
  La  La175  1  0.52820453  0.78742353  0.18938909  1
  La  La176  1  0.09490893  0.97351315  0.21039515  1
  La  La177  1  0.96452803  0.60047971  0.21191136  1
  La  La178  1  0.46469830  0.60044842  0.25445149  1
  La  La179  1  0.59504463  0.97352119  0.25597352  1
  La  La180  1  0.52905708  0.28918515  0.27636660  1
  La  La181  1  0.02817306  0.78766142  0.27697796  1
  La  La182  1  0.21315230  0.35217574  0.29761190  1
  La  La183  1  0.84198105  0.22625064  0.29857166  1
  La  La184  1  0.83700422  0.71825801  0.34125623  1
  La  La185  1  0.21178479  0.85472675  0.34298565  1
  La  La186  1  0.52415192  0.78605802  0.36182775  1
  La  La187  1  0.03441300  0.28927249  0.36591199  1
  La  La188  1  0.59148658  0.47109654  0.38685683  1
  La  La189  1  0.47340198  0.10368050  0.38448118  1
  La  La190  1  0.96096279  0.09674331  0.42766202  1
  La  La191  1  0.08763566  0.46703331  0.43364630  1
  La  La192  1  0.03683574  0.78142966  0.45464882  1
  La  La193  1  0.61841560  0.29244382  0.46389445  1
  La  La194  1  0.71501631  0.79226178  0.46995784  1
  La  La195  1  0.35608754  0.76646922  0.46965461  1
  La  La196  1  0.34420877  0.05861283  0.49672752  1
  La  La197  1  0.98565177  0.03363187  0.49661395  1
  La  La198  1  0.66298986  0.04331036  0.51188355  1
  La  La199  1  0.08095805  0.53330913  0.50231967  1
  La  La200  1  0.61266986  0.35807440  0.53255528  1
  La  La201  1  0.73947279  0.72835927  0.53876301  1
  La  La202  1  0.22674967  0.72136694  0.58200471  1
  La  La203  1  0.10912766  0.35399647  0.57976336  1
  La  La204  1  0.17577270  0.03900986  0.60461927  1
  La  La205  1  0.66537780  0.53570503  0.60041283  1
  La  La206  1  0.48806594  0.97057565  0.62341182  1
  La  La207  1  0.86264469  0.10691350  0.62518383  1
  La  La208  1  0.85771652  0.59851279  0.66785696  1
  La  La209  1  0.48656915  0.47309870  0.66874455  1
  La  La210  1  0.17058145  0.53556225  0.69002119  1
  La  La211  1  0.67123173  0.03696985  0.68944032  1
  La  La212  1  0.10445764  0.85104140  0.71049133  1
  La  La213  1  0.23478727  0.22403319  0.71190650  1
  La  La214  1  0.73468427  0.22394998  0.75454292  1
  La  La215  1  0.60458928  0.85131910  0.75596215  1
  La  La216  1  0.67067878  0.53566833  0.77644737  1
  La  La217  1  0.17116364  0.03683459  0.77699681  1
  La  La218  1  0.98655345  0.47256497  0.79771782  1
  La  La219  1  0.35774522  0.59864613  0.79860452  1
  La  La220  1  0.36282355  0.10686667  0.84124067  1
  La  La221  1  0.98809220  0.97052443  0.84296646  1
  La  La222  1  0.67588017  0.03919773  0.86189748  1
  La  La223  1  0.16537091  0.53583855  0.86597047  1
  La  La224  1  0.60893827  0.35413905  0.88687812  1
  La  La225  1  0.72692751  0.72171361  0.88445113  1
  La  La226  1  0.23952877  0.72845996  0.92762427  1
  La  La227  1  0.11291034  0.35821481  0.93385239  1
  La  La228  1  0.16366956  0.04350084  0.95449494  1
  La  La229  1  0.58361602  0.53302976  0.96373855  1
  La  La230  1  0.48525290  0.03238330  0.96989734  1
  La  La231  1  0.84438034  0.05858849  0.96966991  1
  Zr  Zr232  1  0.78090259  0.79258972  0.05999426  1
  Zr  Zr233  1  0.27962671  0.28454438  0.05806430  1
  Zr  Zr234  1  0.78845342  0.29465757  0.05374363  1
  Zr  Zr235  1  0.26867347  0.78275348  0.06132198  1
  Zr  Zr236  1  0.02725369  0.04202146  0.14640254  1
  Zr  Zr237  1  0.52725166  0.53714848  0.14494404  1
  Zr  Zr238  1  0.53177730  0.04004144  0.14533140  1
  Zr  Zr239  1  0.02516232  0.53820782  0.14710322  1
  Zr  Zr240  1  0.27910923  0.28802005  0.23286013  1
  Zr  Zr241  1  0.77933974  0.78845561  0.23268268  1
  Zr  Zr242  1  0.27933265  0.78840752  0.23360047  1
  Zr  Zr243  1  0.77909160  0.28831358  0.23352801  1
  Zr  Zr244  1  0.52509323  0.53823386  0.31932872  1
  Zr  Zr245  1  0.03144443  0.04007019  0.32101281  1
  Zr  Zr246  1  0.02701414  0.53722300  0.32136208  1
  Zr  Zr247  1  0.52705799  0.04211320  0.31994787  1
  Zr  Zr248  1  0.76823398  0.78302774  0.40510166  1
  Zr  Zr249  1  0.28804940  0.29414955  0.41259939  1
  Zr  Zr250  1  0.77954457  0.28413330  0.40824863  1
  Zr  Zr251  1  0.28033696  0.79228636  0.40635482  1
  Zr  Zr252  1  0.41982529  0.03271219  0.56006380  1
  Zr  Zr253  1  0.92089991  0.54076128  0.55813245  1
  Zr  Zr254  1  0.41202029  0.53100123  0.55377873  1
  Zr  Zr255  1  0.93229591  0.04242248  0.56134657  1
  Zr  Zr256  1  0.17279784  0.78293883  0.64649247  1
  Zr  Zr257  1  0.67227376  0.28779241  0.64501042  1
  Zr  Zr258  1  0.66818316  0.78516134  0.64539036  1
  Zr  Zr259  1  0.17478879  0.28675378  0.64707214  1
  Zr  Zr260  1  0.92054361  0.53596701  0.73289618  1
  Zr  Zr261  1  0.42017218  0.03611624  0.73270441  1
  Zr  Zr262  1  0.92023500  0.03580627  0.73361375  1
  Zr  Zr263  1  0.42063167  0.53620126  0.73354427  1
  Zr  Zr264  1  0.67447579  0.28684600  0.81938569  1
  Zr  Zr265  1  0.16830057  0.78498029  0.82101217  1
  Zr  Zr266  1  0.17240190  0.28771346  0.82137287  1
  Zr  Zr267  1  0.67288118  0.78298963  0.81998820  1
  Zr  Zr268  1  0.43225470  0.04252153  0.90514116  1
  Zr  Zr269  1  0.91216296  0.53110227  0.91271597  1
  Zr  Zr270  1  0.42087596  0.54124508  0.90821305  1
  Zr  Zr271  1  0.92022303  0.03316312  0.90634286  1
  O  O272  1  0.77634827  0.88334003  0.02506746  1
  O  O273  1  0.30835298  0.70123217  0.02888844  1
  O  O274  1  0.39252000  0.28025663  0.02736788  1
  O  O275  1  0.65725816  0.28432546  0.02493875  1
  O  O276  1  0.20429804  0.89729687  0.03708936  1
  O  O277  1  0.84502702  0.67679436  0.03768417  1
  O  O278  1  0.12011312  0.13854892  0.04261092  1
  O  O279  1  0.22413667  0.42722652  0.04307176  1
  O  O280  1  0.84610096  0.16403594  0.03406009  1
  O  O281  1  0.94121306  0.44848259  0.04156401  1
  O  O282  1  0.58256907  0.67789382  0.05382502  1
  O  O283  1  0.45505052  0.90559327  0.06245051  1
  O  O284  1  0.97736423  0.89774702  0.06728866  1
  O  O285  1  0.07394977  0.67519920  0.06780177  1
  O  O286  1  0.44418723  0.42658080  0.07398136  1
  O  O287  1  0.34326171  0.14403089  0.07456526  1
  O  O288  1  0.71455962  0.43265819  0.07076579  1
  O  O289  1  0.62390105  0.15944589  0.07386152  1
  O  O290  1  0.31220750  0.64194542  0.08175555  1
  O  O291  1  0.74631061  0.94452083  0.07763246  1
  O  O292  1  0.16462390  0.29626522  0.08930063  1
  O  O293  1  0.89292742  0.28437811  0.08729787  1
  O  O294  1  0.77999718  0.70922701  0.09493410  1
  O  O295  1  0.25237764  0.86389787  0.09755355  1
  O  O296  1  0.10905672  0.03802521  0.11174351  1
  O  O297  1  0.93504380  0.54967925  0.11348569  1
  O  O298  1  0.51554131  0.65051311  0.11404594  1
  O  O299  1  0.53437758  0.92354162  0.11420385  1
  O  O300  1  0.16234164  0.49961958  0.12511942  1
  O  O301  1  0.88546313  0.07763404  0.12418148  1
  O  O302  1  0.38127025  0.37469147  0.13017003  1
  O  O303  1  0.65973092  0.47117303  0.12813719  1
  O  O304  1  0.39990449  0.10245256  0.12778761  1
  O  O305  1  0.67594603  0.20530315  0.13053152  1
  O  O306  1  0.91770722  0.84467462  0.14269380  1
  O  O307  1  0.13200262  0.73454090  0.14477916  1
  O  O308  1  0.13558327  0.24055609  0.15027118  1
  O  O309  1  0.91911950  0.34037162  0.15013171  1
  O  O310  1  0.66948445  0.70194817  0.16029895  1
  O  O311  1  0.39101637  0.60302128  0.16185918  1
  O  O312  1  0.66510102  0.97035287  0.16148628  1
  O  O313  1  0.38703731  0.87630074  0.16190956  1
  O  O314  1  0.88043671  0.57519994  0.16803096  1
  O  O315  1  0.17339475  0.01054283  0.16718636  1
  O  O316  1  0.53530011  0.41997463  0.17559946  1
  O  O317  1  0.51914574  0.14892445  0.17701393  1
  O  O318  1  0.94709555  0.05171996  0.18163611  1
  O  O319  1  0.10533046  0.52462309  0.18249147  1
  O  O320  1  0.26804386  0.36751205  0.19760427  1
  O  O321  1  0.78886620  0.20691291  0.19823250  1
  O  O322  1  0.89189963  0.77958178  0.20117765  1
  O  O323  1  0.15992673  0.79377416  0.20361041  1
  O  O324  1  0.74780958  0.43038425  0.21206090  1
  O  O325  1  0.31904441  0.14588311  0.21191415  1
  O  O326  1  0.61744073  0.64447936  0.21636505  1
  O  O327  1  0.71373375  0.92360834  0.21630780  1
  O  O328  1  0.34690075  0.65520425  0.21704948  1
  O  O329  1  0.44340593  0.93117438  0.21814915  1
  O  O330  1  0.08211701  0.17836385  0.22931054  1
  O  O331  1  0.97783993  0.39475254  0.23058432  1
  O  O332  1  0.47776830  0.39468354  0.23582087  1
  O  O333  1  0.58207678  0.17837520  0.23707552  1
  O  O334  1  0.94345215  0.93126232  0.24813993  1
  O  O335  1  0.84713103  0.65536522  0.24927014  1
  O  O336  1  0.21375806  0.92347403  0.25002914  1
  O  O337  1  0.11770558  0.64451428  0.25000596  1
  O  O338  1  0.81912392  0.14603649  0.25444215  1
  O  O339  1  0.24761899  0.43001081  0.25432986  1
  O  O340  1  0.66018911  0.79393252  0.26272628  1
  O  O341  1  0.39189809  0.77933489  0.26512171  1
  O  O342  1  0.28895580  0.20653390  0.26811586  1
  O  O343  1  0.76745210  0.36748609  0.26875878  1
  O  O344  1  0.60534957  0.52486806  0.28393797  1
  O  O345  1  0.44720749  0.05138097  0.28465232  1
  O  O346  1  0.01907885  0.14905013  0.28935346  1
  O  O347  1  0.03519381  0.42001197  0.29074280  1
  O  O348  1  0.67341107  0.01071669  0.29919774  1
  O  O349  1  0.38036507  0.57535893  0.29834554  1
  O  O350  1  0.88678811  0.87644530  0.30446926  1
  O  O351  1  0.16478364  0.97066532  0.30481492  1
  O  O352  1  0.89091002  0.60315356  0.30452696  1
  O  O353  1  0.16938143  0.70220020  0.30603666  1
  O  O354  1  0.41897138  0.34052372  0.31625142  1
  O  O355  1  0.63536943  0.24070588  0.31610836  1
  O  O356  1  0.63171497  0.73458510  0.32164806  1
  O  O357  1  0.41752731  0.84480328  0.32364251  1
  O  O358  1  0.17556835  0.20549173  0.33581299  1
  O  O359  1  0.89940197  0.10221489  0.33860339  1
  O  O360  1  0.15949263  0.47136655  0.33826271  1
  O  O361  1  0.88106086  0.37472335  0.33616438  1
  O  O362  1  0.38497556  0.07781998  0.34213608  1
  O  O363  1  0.66219436  0.49959721  0.34136770  1
  O  O364  1  0.03413524  0.92356509  0.35215550  1
  O  O365  1  0.01516419  0.65066139  0.35222625  1
  O  O366  1  0.43455079  0.55009229  0.35287002  1
  O  O367  1  0.60847058  0.03807969  0.35462573  1
  O  O368  1  0.75166447  0.86386970  0.36882156  1
  O  O369  1  0.27937188  0.70930786  0.37137017  1
  O  O370  1  0.39293047  0.28461837  0.37908860  1
  O  O371  1  0.66451827  0.29605023  0.37704256  1
  O  O372  1  0.24584033  0.94445473  0.38879393  1
  O  O373  1  0.81227429  0.64233212  0.38472523  1
  O  O374  1  0.12372838  0.15959783  0.39245422  1
  O  O375  1  0.21432832  0.43271580  0.39569688  1
  O  O376  1  0.84304737  0.14380007  0.39177398  1
  O  O377  1  0.94424546  0.42651056  0.39229220  1
  O  O378  1  0.57362562  0.67520235  0.39867542  1
  O  O379  1  0.47691624  0.89789701  0.39906715  1
  O  O380  1  0.95461019  0.90593716  0.40388430  1
  O  O381  1  0.08197096  0.67778090  0.41248829  1
  O  O382  1  0.44044445  0.44809667  0.42490508  1
  O  O383  1  0.34571829  0.16348975  0.43220007  1
  O  O384  1  0.72466082  0.42718071  0.42312416  1
  O  O385  1  0.62005670  0.13868646  0.42378183  1
  O  O386  1  0.34465118  0.67664692  0.42864469  1
  O  O387  1  0.70395561  0.89788245  0.42928590  1
  O  O388  1  0.15725996  0.28426873  0.44145893  1
  O  O389  1  0.89271043  0.28010608  0.43892578  1
  O  O390  1  0.80846773  0.70323181  0.43766364  1
  O  O391  1  0.27615754  0.88286675  0.44130839  1
  O  O392  1  0.07015969  0.00188611  0.45459335  1
  O  O393  1  0.96709433  0.56414671  0.46708783  1
  O  O394  1  0.50530010  0.64997348  0.47077825  1
  O  O395  1  0.51363375  0.02991749  0.47335998  1
  O  O396  1  0.02538529  0.32256042  0.49370523  1
  O  O397  1  0.80358257  0.03739020  0.47503013  1
  O  O398  1  0.47421257  0.28721459  0.49525373  1
  O  O399  1  0.97445392  0.28722866  0.97119336  1
  O  O400  1  0.30388100  0.03719635  0.99142073  1
  O  O401  1  0.52601206  0.32292865  0.97263406  1
  O  O402  1  0.01376582  0.03001547  0.99303442  1
  O  O403  1  0.00578467  0.65144337  0.99545190  1
  O  O404  1  0.46950475  0.56418327  0.99924164  1
  O  O405  1  0.57075988  0.00204120  0.01182999  1
  O  O406  1  0.42359428  0.94173465  0.52514095  1
  O  O407  1  0.89215639  0.12288513  0.52885346  1
  O  O408  1  0.80794778  0.54441710  0.52740286  1
  O  O409  1  0.54272553  0.54049957  0.52493170  1
  O  O410  1  0.99711500  0.92799835  0.53720210  1
  O  O411  1  0.35598898  0.14890852  0.53775032  1
  O  O412  1  0.08043058  0.68650661  0.54273085  1
  O  O413  1  0.97608049  0.39765747  0.54325338  1
  O  O414  1  0.35411495  0.66092966  0.53403303  1
  O  O415  1  0.25947255  0.37707702  0.54159544  1
  O  O416  1  0.61823870  0.14732447  0.55393047  1
  O  O417  1  0.74619337  0.91950712  0.56249083  1
  O  O418  1  0.22352776  0.92772921  0.56743505  1
  O  O419  1  0.12688905  0.15051544  0.56785779  1
  O  O420  1  0.75608994  0.39860305  0.57408949  1
  O  O421  1  0.85693099  0.68085823  0.57458200  1
  O  O422  1  0.48594510  0.39301376  0.57080266  1
  O  O423  1  0.57664196  0.66634505  0.57381922  1
  O  O424  1  0.88808701  0.18305524  0.58177358  1
  O  O425  1  0.45436426  0.88037734  0.57759591  1
  O  O426  1  0.03528988  0.52841812  0.58946555  1
  O  O427  1  0.30772506  0.54144147  0.58731480  1
  O  O428  1  0.42091354  0.11589690  0.59502171  1
  O  O429  1  0.94875907  0.96100115  0.59756378  1
  O  O430  1  0.09117284  0.78612982  0.61179588  1
  O  O431  1  0.26511787  0.27562140  0.61349862  1
  O  O432  1  0.68465168  0.17470203  0.61416413  1
  O  O433  1  0.66599329  0.90185557  0.61421096  1
  O  O434  1  0.03730240  0.32573832  0.62514992  1
  O  O435  1  0.31526083  0.74861678  0.62427569  1
  O  O436  1  0.81851961  0.45038265  0.63029562  1
  O  O437  1  0.54015805  0.35396745  0.62817372  1
  O  O438  1  0.80048647  0.72335089  0.62773351  1
  O  O439  1  0.52414032  0.61999046  0.63050661  1
  O  O440  1  0.28157403  0.98049246  0.64276176  1
  O  O441  1  0.06758023  0.09055105  0.64465493  1
  O  O442  1  0.06424643  0.58426012  0.65037479  1
  O  O443  1  0.28049307  0.48459899  0.65008972  1
  O  O444  1  0.52974280  0.12291132  0.66030528  1
  O  O445  1  0.80854017  0.22187276  0.66192542  1
  O  O446  1  0.53518049  0.85497014  0.66156557  1
  O  O447  1  0.81298529  0.94865316  0.66187459  1
  O  O448  1  0.31908918  0.24959414  0.66803665  1
  O  O449  1  0.02634290  0.81451570  0.66719702  1
  O  O450  1  0.66421575  0.40463000  0.67576724  1
  O  O451  1  0.68067725  0.67581834  0.67695149  1
  O  O452  1  0.25239707  0.77323218  0.68177181  1
  O  O453  1  0.09411352  0.29957152  0.68242127  1
  O  O454  1  0.93223432  0.45654961  0.69769016  1
  O  O455  1  0.41107679  0.61801124  0.69826264  1
  O  O456  1  0.30747317  0.04528836  0.70127784  1
  O  O457  1  0.03926744  0.03069584  0.70350909  1
  O  O458  1  0.45211966  0.39438686  0.71202249  1
  O  O459  1  0.88047201  0.67799919  0.71191628  1
  O  O460  1  0.58192810  0.18006254  0.71638748  1
  O  O461  1  0.48633633  0.90129564  0.71641706  1
  O  O462  1  0.85244284  0.16915805  0.71713416  1
  O  O463  1  0.75606748  0.89302320  0.71817197  1
  O  O464  1  0.11751917  0.64559614  0.72937437  1
  O  O465  1  0.22198439  0.42944717  0.73056094  1
  O  O466  1  0.72189829  0.42926945  0.73588977  1
  O  O467  1  0.61777098  0.64569048  0.73705610  1
  O  O468  1  0.25612019  0.89302490  0.74816371  1
  O  O469  1  0.35223121  0.16897108  0.74930303  1
  O  O470  1  0.98625127  0.90104356  0.74994885  1
  O  O471  1  0.08181143  0.17988862  0.74996766  1
  O  O472  1  0.38078409  0.67856445  0.75448948  1
  O  O473  1  0.95199176  0.39410693  0.75442902  1
  O  O474  1  0.53935141  0.03083091  0.76282024  1
  O  O475  1  0.80781327  0.04529177  0.76511996  1
  O  O476  1  0.91087652  0.61777190  0.76815449  1
  O  O477  1  0.43232085  0.45686531  0.76876259  1
  O  O478  1  0.59399051  0.29980712  0.78398793  1
  O  O479  1  0.75280262  0.77350420  0.78470548  1
  O  O480  1  0.18047918  0.67545225  0.78944352  1
  O  O481  1  0.16452907  0.40470631  0.79068671  1
  O  O482  1  0.52681547  0.81486718  0.79922813  1
  O  O483  1  0.81872176  0.24948521  0.79841801  1
  O  O484  1  0.31284203  0.94848520  0.80446380  1
  O  O485  1  0.03523327  0.85452187  0.80477684  1
  O  O486  1  0.30869124  0.22186661  0.80446633  1
  O  O487  1  0.02995767  0.12268415  0.80607964  1
  O  O488  1  0.78027567  0.48461400  0.81638139  1
  O  O489  1  0.56427264  0.58448975  0.81610446  1
  O  O490  1  0.56722523  0.09060064  0.82175401  1
  O  O491  1  0.78171391  0.98061632  0.82369680  1
  O  O492  1  0.02415967  0.61986984  0.83595076  1
  O  O493  1  0.30070577  0.72317593  0.83859988  1
  O  O494  1  0.04013108  0.35371956  0.83821771  1
  O  O495  1  0.31851092  0.45035407  0.83610993  1
  O  O496  1  0.81554782  0.74874009  0.84216857  1
  O  O497  1  0.53708825  0.32585778  0.84129563  1
  O  O498  1  0.16600646  0.90165871  0.85218353  1
  O  O499  1  0.18475938  0.17441375  0.85225301  1
  O  O500  1  0.76478301  0.27566805  0.85297683  1
  O  O501  1  0.59163125  0.78666139  0.85470821  1
  O  O502  1  0.44879345  0.96115272  0.86893202  1
  O  O503  1  0.92079850  0.11614413  0.87140270  1
  O  O504  1  0.80765060  0.54166602  0.87923703  1
  O  O505  1  0.53553258  0.52863609  0.87694582  1
  O  O506  1  0.95443019  0.88075312  0.88880421  1
  O  O507  1  0.38827460  0.18325401  0.88468953  1
  O  O508  1  0.07668796  0.66661135  0.89266308  1
  O  O509  1  0.98580720  0.39325600  0.89562627  1
  O  O510  1  0.35698862  0.68138121  0.89173800  1
  O  O511  1  0.25612707  0.39910452  0.89223188  1
  O  O512  1  0.62695681  0.15057953  0.89873112  1
  O  O513  1  0.72373231  0.92807220  0.89911090  1
  O  O514  1  0.24607184  0.92009824  0.90397238  1
  O  O515  1  0.11859734  0.14789964  0.91243123  1
  O  O516  1  0.75958832  0.37727626  0.92496078  1
  O  O517  1  0.85413777  0.66122994  0.93254226  1
  O  O518  1  0.47548722  0.39806133  0.92306879  1
  O  O519  1  0.58057567  0.68673756  0.92364308  1
  O  O520  1  0.85649400  0.14922334  0.92871057  1
  O  O521  1  0.49664182  0.92758410  0.92925584  1
  O  O522  1  0.04280946  0.54056493  0.94153813  1
  O  O523  1  0.30774748  0.54503366  0.93888184  1
  O  O524  1  0.39267941  0.12289111  0.93767191  1
  O  O525  1  0.92438767  0.94225168  0.94128853  1
  O  O526  1  0.13044188  0.82317559  0.95455016  1
  O  O527  1  0.23169715  0.26091530  0.96696927  1
  O  O528  1  0.69458239  0.17484489  0.97075871  1
  O  O529  1  0.68659800  0.79499661  0.97332150  1
  O  O530  1  0.17498977  0.50243879  0.99361075  1
  O  O531  1  0.39700219  0.78763016  0.97492664  1
  O  O532  1  0.72643215  0.53785716  0.99529071  1
  O  O533  1  0.22511231  0.53827580  0.47097839  1
  O  O534  1  0.89615816  0.78781811  0.49159430  1
  O  O535  1  0.67341056  0.50246974  0.47270756  1
  O  O536  1  0.18577805  0.79397689  0.49303229  1
  O  O537  1  0.19514233  0.17439066  0.49542640  1
  O  O538  1  0.73126751  0.26084889  0.49939481  1
  O  O539  1  0.62962826  0.82291218  0.51186508  1
