# generated using pymatgen
data_Li40La18Zr10O67
_symmetry_space_group_name_H-M   'P 1'
_cell_length_a   11.29297700
_cell_length_b   11.29297737
_cell_length_c   53.69086651
_cell_angle_alpha   90.00000000
_cell_angle_beta   90.00000000
_cell_angle_gamma   111.54263211
_symmetry_Int_Tables_number   1
_chemical_formula_structural   Li40La18Zr10O67
_chemical_formula_sum   'Li160 La72 Zr40 O268'
_cell_volume   6368.94923050
_cell_formula_units_Z   4
loop_
 _symmetry_equiv_pos_site_id
 _symmetry_equiv_pos_as_xyz
  1  'x, y, z'
loop_
 _atom_site_type_symbol
 _atom_site_label
 _atom_site_symmetry_multiplicity
 _atom_site_fract_x
 _atom_site_fract_y
 _atom_site_fract_z
 _atom_site_occupancy
  Li  Li0  1  0.32800577  0.22826400  0.99791543  1
  Li  Li1  1  0.33193055  0.41586995  0.00519768  1
  Li  Li2  1  0.65145486  0.33209693  0.99393481  1
  Li  Li3  1  0.16105089  0.04846520  0.02152076  1
  Li  Li4  1  0.28492524  0.58404830  0.01508007  1
  Li  Li5  1  0.70859514  0.03578187  0.03092201  1
  Li  Li6  1  0.86636727  0.47462776  0.00716091  1
  Li  Li7  1  0.92801761  0.00786719  0.01879601  1
  Li  Li8  1  0.06292659  0.60887288  0.03205401  1
  Li  Li9  1  0.02564170  0.83820286  0.04270520  1
  Li  Li10  1  0.37012812  0.58175928  0.05671521  1
  Li  Li11  1  0.16224641  0.03519168  0.06502880  1
  Li  Li12  1  0.59039132  0.00444206  0.07991818  1
  Li  Li13  1  0.87439784  0.58394539  0.05763715  1
  Li  Li14  1  0.48305892  0.77735008  0.07631665  1
  Li  Li15  1  0.57325165  0.61267445  0.08837206  1
  Li  Li16  1  0.40508180  0.99420449  0.09504000  1
  Li  Li17  1  0.34121191  0.49299108  0.10062161  1
  Li  Li18  1  0.25123877  0.06320775  0.10557665  1
  Li  Li19  1  0.75952526  0.55882746  0.10113582  1
  Li  Li20  1  0.73028368  0.16559406  0.10549613  1
  Li  Li21  1  0.19877978  0.26303076  0.11566803  1
  Li  Li22  1  0.81356046  0.38137954  0.11810058  1
  Li  Li23  1  0.98080747  0.29091342  0.12827695  1
  Li  Li24  1  0.78078957  0.65789836  0.14323960  1
  Li  Li25  1  0.22753525  0.44277662  0.14617999  1
  Li  Li26  1  0.22458839  0.93530440  0.14729678  1
  Li  Li27  1  0.78198190  0.16031746  0.14977956  1
  Li  Li28  1  0.98523867  0.79186659  0.16559413  1
  Li  Li29  1  0.80975619  0.87290740  0.17425652  1
  Li  Li30  1  0.20358424  0.75236137  0.17685133  1
  Li  Li31  1  0.70722612  0.64652952  0.18819480  1
  Li  Li32  1  0.75937796  0.05728551  0.19002939  1
  Li  Li33  1  0.25927260  0.55633405  0.18997199  1
  Li  Li34  1  0.34808969  0.00183438  0.19041811  1
  Li  Li35  1  0.45704417  0.50068530  0.20297760  1
  Li  Li36  1  0.57319763  0.10884779  0.20477990  1
  Li  Li37  1  0.49148288  0.28480509  0.21429057  1
  Li  Li38  1  0.86464594  0.08006565  0.23117887  1
  Li  Li39  1  0.64273147  0.52524791  0.23249639  1
  Li  Li40  1  0.14437257  0.52601918  0.23348321  1
  Li  Li41  1  0.36505351  0.07936380  0.23493296  1
  Li  Li42  1  0.99149219  0.28558364  0.25184274  1
  Li  Li43  1  0.07315550  0.10938594  0.26151877  1
  Li  Li44  1  0.95722501  0.50067124  0.26312233  1
  Li  Li45  1  0.84891291  0.00327264  0.27576509  1
  Li  Li46  1  0.75823993  0.55585498  0.27586369  1
  Li  Li47  1  0.25762282  0.05629729  0.27593729  1
  Li  Li48  1  0.20716776  0.64638017  0.27793544  1
  Li  Li49  1  0.70283995  0.75331953  0.28947814  1
  Li  Li50  1  0.31004186  0.87431975  0.29172293  1
  Li  Li51  1  0.48377678  0.79109708  0.30083728  1
  Li  Li52  1  0.28238902  0.16016930  0.31634431  1
  Li  Li53  1  0.72391760  0.93523157  0.31901582  1
  Li  Li54  1  0.72718220  0.44516328  0.31928620  1
  Li  Li55  1  0.27863229  0.65706951  0.32292831  1
  Li  Li56  1  0.48062681  0.29107061  0.33799079  1
  Li  Li57  1  0.31349920  0.38120618  0.34827399  1
  Li  Li58  1  0.69950415  0.26552148  0.35038321  1
  Li  Li59  1  0.23064223  0.16566437  0.36095854  1
  Li  Li60  1  0.25936864  0.55913782  0.36506948  1
  Li  Li61  1  0.75186966  0.06464360  0.36062812  1
  Li  Li62  1  0.84016445  0.49285313  0.36574342  1
  Li  Li63  1  0.90463598  0.99467665  0.37119835  1
  Li  Li64  1  0.07279226  0.61384506  0.37795752  1
  Li  Li65  1  0.98281422  0.77819538  0.39010995  1
  Li  Li66  1  0.37493410  0.58446620  0.40883794  1
  Li  Li67  1  0.09049756  0.00464918  0.38656408  1
  Li  Li68  1  0.66461620  0.03742749  0.40119913  1
  Li  Li69  1  0.87042289  0.58245831  0.40983277  1
  Li  Li70  1  0.52722735  0.84018832  0.42337791  1
  Li  Li71  1  0.56357460  0.60863376  0.43443449  1
  Li  Li72  1  0.42757156  0.00732713  0.44777871  1
  Li  Li73  1  0.36948191  0.47378152  0.45989900  1
  Li  Li74  1  0.21034936  0.03830132  0.43571561  1
  Li  Li75  1  0.78594074  0.58502040  0.45129534  1
  Li  Li76  1  0.66056833  0.04887249  0.44475986  1
  Li  Li77  1  0.15160999  0.33273311  0.47257543  1
  Li  Li78  1  0.83327936  0.41679819  0.46125941  1
  Li  Li79  1  0.82717668  0.22824448  0.46826749  1
  Li  Li80  1  0.82212845  0.64864121  0.49784672  1
  Li  Li81  1  0.81813720  0.46072347  0.50491596  1
  Li  Li82  1  0.50133764  0.54338125  0.49394909  1
  Li  Li83  1  0.98940757  0.82799999  0.52153480  1
  Li  Li84  1  0.86461022  0.29163082  0.51472507  1
  Li  Li85  1  0.43966029  0.83863571  0.53052048  1
  Li  Li86  1  0.28500539  0.40159558  0.50675181  1
  Li  Li87  1  0.22195230  0.86765852  0.51865339  1
  Li  Li88  1  0.08755243  0.26734885  0.53203807  1
  Li  Li89  1  0.12464736  0.03752690  0.54287865  1
  Li  Li90  1  0.78073342  0.29314718  0.55636586  1
  Li  Li91  1  0.98694045  0.83955905  0.56507897  1
  Li  Li92  1  0.55919216  0.87171838  0.57991575  1
  Li  Li93  1  0.27619563  0.29187774  0.55762016  1
  Li  Li94  1  0.66761885  0.09832860  0.57654568  1
  Li  Li95  1  0.57761998  0.26194225  0.58832539  1
  Li  Li96  1  0.74532837  0.87939525  0.59500038  1
  Li  Li97  1  0.80885743  0.38059622  0.60016366  1
  Li  Li98  1  0.89994063  0.81267738  0.60563789  1
  Li  Li99  1  0.39168841  0.31671954  0.60114649  1
  Li  Li100  1  0.41994074  0.70996312  0.60557578  1
  Li  Li101  1  0.94940589  0.60906299  0.61577534  1
  Li  Li102  1  0.33728483  0.49249998  0.61800189  1
  Li  Li103  1  0.17013473  0.58390497  0.62802927  1
  Li  Li104  1  0.37009040  0.21802499  0.64333701  1
  Li  Li105  1  0.92266954  0.43046431  0.64623260  1
  Li  Li106  1  0.92641492  0.94040361  0.64762298  1
  Li  Li107  1  0.36584744  0.71474052  0.64993609  1
  Li  Li108  1  0.16390971  0.08128241  0.66550001  1
  Li  Li109  1  0.33846202  0.99971026  0.67446725  1
  Li  Li110  1  0.94661040  0.12346959  0.67718793  1
  Li  Li111  1  0.43988578  0.22597432  0.68825474  1
  Li  Li112  1  0.39147210  0.81752447  0.69004018  1
  Li  Li113  1  0.89117794  0.31951374  0.69043218  1
  Li  Li114  1  0.79902773  0.87073269  0.69053266  1
  Li  Li115  1  0.69103689  0.37277052  0.70300985  1
  Li  Li116  1  0.57492837  0.76412406  0.70478897  1
  Li  Li117  1  0.65756419  0.58813629  0.71432188  1
  Li  Li118  1  0.28593815  0.79425480  0.73113863  1
  Li  Li119  1  0.50533116  0.34834226  0.73245667  1
  Li  Li120  1  0.00775120  0.34960571  0.73438539  1
  Li  Li121  1  0.78438177  0.79404833  0.73502664  1
  Li  Li122  1  0.15840376  0.58880633  0.75227886  1
  Li  Li123  1  0.07584045  0.76493871  0.76161001  1
  Li  Li124  1  0.19224386  0.37171680  0.76344399  1
  Li  Li125  1  0.30004944  0.87125593  0.77593890  1
  Li  Li126  1  0.39164146  0.31793199  0.77633607  1
  Li  Li127  1  0.89137326  0.81715809  0.77623512  1
  Li  Li128  1  0.93980144  0.22582232  0.77834095  1
  Li  Li129  1  0.44770192  0.12306095  0.78941831  1
  Li  Li130  1  0.83879366  0.99866861  0.79189715  1
  Li  Li131  1  0.66699178  0.08290006  0.80069668  1
  Li  Li132  1  0.86615465  0.71496438  0.81650280  1
  Li  Li133  1  0.42667844  0.94050831  0.81886640  1
  Li  Li134  1  0.42372832  0.43095861  0.82000176  1
  Li  Li135  1  0.87042923  0.21811320  0.82324120  1
  Li  Li136  1  0.67012873  0.58388363  0.83848157  1
  Li  Li137  1  0.83743336  0.49390786  0.84809840  1
  Li  Li138  1  0.44960017  0.60887698  0.85067933  1
  Li  Li139  1  0.92026973  0.71010563  0.86087553  1
  Li  Li140  1  0.89101865  0.31708436  0.86524722  1
  Li  Li141  1  0.39884100  0.81219051  0.86065187  1
  Li  Li142  1  0.31029787  0.38191249  0.86612462  1
  Li  Li143  1  0.24447192  0.87999269  0.87134143  1
  Li  Li144  1  0.07647660  0.26222425  0.87797079  1
  Li  Li145  1  0.16753014  0.09830157  0.89006453  1
  Li  Li146  1  0.77609664  0.29102502  0.90884413  1
  Li  Li147  1  0.05899879  0.87163563  0.88660443  1
  Li  Li148  1  0.48602271  0.83839020  0.90114661  1
  Li  Li149  1  0.27984722  0.29356682  0.90973377  1
  Li  Li150  1  0.62449932  0.03684917  0.92337040  1
  Li  Li151  1  0.58691739  0.26679345  0.93427592  1
  Li  Li152  1  0.72188625  0.86725261  0.94781271  1
  Li  Li153  1  0.78454036  0.40123051  0.95988655  1
  Li  Li154  1  0.93975384  0.83831556  0.93566911  1
  Li  Li155  1  0.36273258  0.28960328  0.95128065  1
  Li  Li156  1  0.48965026  0.82738431  0.94469848  1
  Li  Li157  1  0.99767296  0.54344105  0.97261001  1
  Li  Li158  1  0.31714061  0.45937339  0.96139462  1
  Li  Li159  1  0.32171334  0.64760412  0.96863256  1
  La  La160  1  0.84870085  0.73405895  0.99685532  1
  La  La161  1  0.18894644  0.82888529  0.99795087  1
  La  La162  1  0.54689534  0.80588914  0.00058632  1
  La  La163  1  0.02667358  0.30799086  0.01662352  1
  La  La164  1  0.59200387  0.48539801  0.03914308  1
  La  La165  1  0.45050602  0.10421051  0.03852794  1
  La  La166  1  0.95064602  0.11894141  0.07954484  1
  La  La167  1  0.06746269  0.49562772  0.08441996  1
  La  La168  1  0.00102183  0.80580561  0.10314088  1
  La  La169  1  0.51407092  0.30392120  0.10257773  1
  La  La170  1  0.69303538  0.87033263  0.12281090  1
  La  La171  1  0.32020414  0.73821018  0.12575587  1
  La  La172  1  0.32070374  0.24279111  0.16732442  1
  La  La173  1  0.69281158  0.36989858  0.16968569  1
  La  La174  1  0.00816441  0.30727157  0.18996868  1
  La  La175  1  0.50942017  0.80566061  0.18965413  1
  La  La176  1  0.07342018  0.99184392  0.20997346  1
  La  La177  1  0.94404829  0.61932517  0.21215890  1
  La  La178  1  0.44423061  0.61934240  0.25410637  1
  La  La179  1  0.57329990  0.99164518  0.25632722  1
  La  La180  1  0.50753927  0.30674529  0.27628149  1
  La  La181  1  0.00886260  0.80527867  0.27661490  1
  La  La182  1  0.19263390  0.36989868  0.29658097  1
  La  La183  1  0.82051565  0.24295316  0.29893466  1
  La  La184  1  0.82001607  0.73842910  0.34053266  1
  La  La185  1  0.19299412  0.87052164  0.34344719  1
  La  La186  1  0.50078466  0.80617314  0.36317351  1
  La  La187  1  0.01460843  0.30429875  0.36370091  1
  La  La188  1  0.56753938  0.49613653  0.38189250  1
  La  La189  1  0.45126232  0.11939696  0.38676704  1
  La  La190  1  0.95141024  0.10495095  0.42771610  1
  La  La191  1  0.09278419  0.48584231  0.42712269  1
  La  La192  1  0.04845678  0.80694939  0.46586102  1
  La  La193  1  0.52824921  0.30778979  0.44982944  1
  La  La194  1  0.68944056  0.82957884  0.46835037  1
  La  La195  1  0.34973331  0.73316835  0.46947099  1
  La  La196  1  0.30170614  0.14162746  0.49693559  1
  La  La197  1  0.96139841  0.04742095  0.49791998  1
  La  La198  1  0.60326415  0.06983562  0.50074182  1
  La  La199  1  0.12377542  0.56751739  0.51663283  1
  La  La200  1  0.55822126  0.39014031  0.53911636  1
  La  La201  1  0.69915894  0.77159911  0.53851266  1
  La  La202  1  0.19923379  0.75642135  0.57955790  1
  La  La203  1  0.08298676  0.37950343  0.58445484  1
  La  La204  1  0.14959085  0.06951693  0.60313395  1
  La  La205  1  0.63630610  0.57129971  0.60258339  1
  La  La206  1  0.45685428  0.00471250  0.62292720  1
  La  La207  1  0.83006263  0.13624271  0.62582945  1
  La  La208  1  0.82940868  0.63165922  0.66737678  1
  La  La209  1  0.45715209  0.50492464  0.66970059  1
  La  La210  1  0.14177612  0.56738939  0.69004503  1
  La  La211  1  0.64037052  0.06904309  0.68968642  1
  La  La212  1  0.07593471  0.88244460  0.71012175  1
  La  La213  1  0.20515699  0.25499782  0.71221317  1
  La  La214  1  0.70528348  0.25513141  0.75413002  1
  La  La215  1  0.57598704  0.88233448  0.75635578  1
  La  La216  1  0.64190991  0.56724747  0.77642404  1
  La  La217  1  0.14042397  0.06891871  0.77675567  1
  La  La218  1  0.95726972  0.50485722  0.79666644  1
  La  La219  1  0.32941842  0.63153246  0.79910388  1
  La  La220  1  0.32982836  0.13626064  0.84061227  1
  La  La221  1  0.95684446  0.00469587  0.84353368  1
  La  La222  1  0.64940843  0.06908434  0.86322733  1
  La  La223  1  0.13608001  0.57103297  0.86384621  1
  La  La224  1  0.58309793  0.37906728  0.88193939  1
  La  La225  1  0.69916659  0.75618951  0.88690392  1
  La  La226  1  0.19898534  0.77101308  0.92783822  1
  La  La227  1  0.05790710  0.38980823  0.92735923  1
  La  La228  1  0.10181481  0.06877707  0.96591491  1
  La  La229  1  0.62289147  0.56661078  0.94980925  1
  La  La230  1  0.46100044  0.04662090  0.96841227  1
  La  La231  1  0.80056021  0.14134318  0.96960266  1
  Zr  Zr232  1  0.75437329  0.80971117  0.05849514  1
  Zr  Zr233  1  0.27342291  0.30524345  0.05757996  1
  Zr  Zr234  1  0.76907656  0.30391429  0.05773967  1
  Zr  Zr235  1  0.25289338  0.80159771  0.06211824  1
  Zr  Zr236  1  0.00757098  0.06092258  0.14549981  1
  Zr  Zr237  1  0.50804376  0.55519089  0.14549192  1
  Zr  Zr238  1  0.51151507  0.05671596  0.14657375  1
  Zr  Zr239  1  0.00724888  0.55872799  0.14820541  1
  Zr  Zr240  1  0.25815854  0.30616000  0.23236620  1
  Zr  Zr241  1  0.75925605  0.80734919  0.23266900  1
  Zr  Zr242  1  0.25905065  0.80693439  0.23347996  1
  Zr  Zr243  1  0.75793134  0.30592814  0.23385828  1
  Zr  Zr244  1  0.50683866  0.55869617  0.31812173  1
  Zr  Zr245  1  0.01152412  0.05678457  0.31974431  1
  Zr  Zr246  1  0.00728298  0.55510169  0.32068569  1
  Zr  Zr247  1  0.50740913  0.06118078  0.32079782  1
  Zr  Zr248  1  0.75296536  0.80204923  0.40419874  1
  Zr  Zr249  1  0.26999713  0.30459222  0.40871012  1
  Zr  Zr250  1  0.77434315  0.30635260  0.40873621  1
  Zr  Zr251  1  0.25438427  0.81054500  0.40785080  1
  Zr  Zr252  1  0.39601243  0.06559572  0.55853155  1
  Zr  Zr253  1  0.87651640  0.57019158  0.55743133  1
  Zr  Zr254  1  0.38120690  0.57162599  0.55780550  1
  Zr  Zr255  1  0.89722786  0.07401553  0.56211277  1
  Zr  Zr256  1  0.14209639  0.81335624  0.64544014  1
  Zr  Zr257  1  0.64236916  0.31970901  0.64552008  1
  Zr  Zr258  1  0.63826088  0.81806290  0.64654375  1
  Zr  Zr259  1  0.14302983  0.31593773  0.64826971  1
  Zr  Zr260  1  0.89156541  0.56809212  0.73243256  1
  Zr  Zr261  1  0.39020099  0.06684332  0.73280739  1
  Zr  Zr262  1  0.89024601  0.06693345  0.73366276  1
  Zr  Zr263  1  0.39155260  0.56781469  0.73404777  1
  Zr  Zr264  1  0.64327919  0.31567702  0.81820557  1
  Zr  Zr265  1  0.13822908  0.81787340  0.81980371  1
  Zr  Zr266  1  0.14252552  0.31959737  0.82091496  1
  Zr  Zr267  1  0.64214561  0.81328969  0.82099845  1
  Zr  Zr268  1  0.39706745  0.07335550  0.90423120  1
  Zr  Zr269  1  0.88071637  0.57106505  0.90864100  1
  Zr  Zr270  1  0.37619093  0.56964583  0.90893636  1
  Zr  Zr271  1  0.89585488  0.06542183  0.90792917  1
  O  O272  1  0.40265750  0.57977893  0.99086904  1
  O  O273  1  0.55244940  0.01375052  0.01117407  1
  O  O274  1  0.75131082  0.89098966  0.02334774  1
  O  O275  1  0.25380544  0.71159001  0.02905880  1
  O  O276  1  0.39867072  0.30784387  0.02722504  1
  O  O277  1  0.65556871  0.30875543  0.02833920  1
  O  O278  1  0.21772275  0.94102622  0.04207380  1
  O  O279  1  0.79358736  0.66599119  0.03786444  1
  O  O280  1  0.11388995  0.16055089  0.04401548  1
  O  O281  1  0.23344784  0.43988498  0.03491183  1
  O  O282  1  0.84872807  0.17855079  0.04256048  1
  O  O283  1  0.93581881  0.44835727  0.04318848  1
  O  O284  1  0.56019108  0.69063423  0.05443108  1
  O  O285  1  0.43948421  0.91945154  0.06392145  1
  O  O286  1  0.95333030  0.91369830  0.06602992  1
  O  O287  1  0.05147500  0.69595334  0.06526081  1
  O  O288  1  0.43803020  0.44664370  0.07445004  1
  O  O289  1  0.33132550  0.16881047  0.07617805  1
  O  O290  1  0.70711000  0.44698478  0.07337583  1
  O  O291  1  0.60877168  0.17445618  0.07623356  1
  O  O292  1  0.29329169  0.65419078  0.08182465  1
  O  O293  1  0.72613710  0.95301371  0.07954809  1
  O  O294  1  0.15713776  0.33083420  0.08627277  1
  O  O295  1  0.87825328  0.30345516  0.09166935  1
  O  O296  1  0.76033153  0.72493606  0.09428249  1
  O  O297  1  0.23146920  0.87979572  0.09863914  1
  O  O298  1  0.08823420  0.05775390  0.11027405  1
  O  O299  1  0.92311930  0.56934126  0.11335327  1
  O  O300  1  0.49693098  0.66911755  0.11476280  1
  O  O301  1  0.51551734  0.94271480  0.11554409  1
  O  O302  1  0.14750299  0.52619823  0.12635391  1
  O  O303  1  0.86366171  0.09879388  0.12470111  1
  O  O304  1  0.36252261  0.39359954  0.12982471  1
  O  O305  1  0.64379433  0.49036525  0.12898322  1
  O  O306  1  0.38013666  0.12242844  0.12936436  1
  O  O307  1  0.65484544  0.22267579  0.13231459  1
  O  O308  1  0.89853355  0.86260230  0.14186234  1
  O  O309  1  0.11288818  0.75324776  0.14576053  1
  O  O310  1  0.11238458  0.25879289  0.14878771  1
  O  O311  1  0.89682411  0.36015980  0.15149637  1
  O  O312  1  0.65133286  0.71995801  0.16052142  1
  O  O313  1  0.37456919  0.62243242  0.16242059  1
  O  O314  1  0.64559490  0.98976069  0.16263163  1
  O  O315  1  0.36683002  0.89380078  0.16270305  1
  O  O316  1  0.86163352  0.59534725  0.16840284  1
  O  O317  1  0.15135488  0.02852670  0.16671242  1
  O  O318  1  0.51298248  0.43587545  0.17562187  1
  O  O319  1  0.49784847  0.16667476  0.17801258  1
  O  O320  1  0.92631680  0.07075977  0.18055663  1
  O  O321  1  0.08600700  0.54387546  0.18316063  1
  O  O322  1  0.24506893  0.38411174  0.19723572  1
  O  O323  1  0.76804565  0.22356743  0.19884763  1
  O  O324  1  0.87097592  0.79932452  0.20105111  1
  O  O325  1  0.13958115  0.81263357  0.20365448  1
  O  O326  1  0.72778621  0.44845115  0.21246610  1
  O  O327  1  0.29687220  0.16288955  0.21153707  1
  O  O328  1  0.59767080  0.66272408  0.21631864  1
  O  O329  1  0.69361323  0.94271362  0.21679292  1
  O  O330  1  0.32722688  0.67376491  0.21709733  1
  O  O331  1  0.42328910  0.94931516  0.21840999  1
  O  O332  1  0.06029569  0.19612048  0.22893828  1
  O  O333  1  0.95627236  0.41202899  0.23078033  1
  O  O334  1  0.45639566  0.41200313  0.23538767  1
  O  O335  1  0.56006448  0.19551043  0.23730861  1
  O  O336  1  0.92345286  0.94963478  0.24779852  1
  O  O337  1  0.82722705  0.67387912  0.24900698  1
  O  O338  1  0.19337305  0.94219031  0.24935229  1
  O  O339  1  0.09760263  0.66243194  0.24978801  1
  O  O340  1  0.79683661  0.16289505  0.25473847  1
  O  O341  1  0.22826548  0.44890742  0.25378483  1
  O  O342  1  0.63947094  0.81257241  0.26247183  1
  O  O343  1  0.37081953  0.79914167  0.26513933  1
  O  O344  1  0.26777446  0.22363722  0.26741598  1
  O  O345  1  0.74450125  0.38372469  0.26901707  1
  O  O346  1  0.58547407  0.54352551  0.28313801  1
  O  O347  1  0.42539094  0.07046013  0.28573742  1
  O  O348  1  0.99784280  0.16678587  0.28830634  1
  O  O349  1  0.01269017  0.43572695  0.29056223  1
  O  O350  1  0.65099294  0.02857102  0.29953703  1
  O  O351  1  0.36130153  0.59550304  0.29789209  1
  O  O352  1  0.86641656  0.89396239  0.30359426  1
  O  O353  1  0.14520005  0.98956702  0.30357717  1
  O  O354  1  0.87348286  0.62190114  0.30368391  1
  O  O355  1  0.15058387  0.71978668  0.30557930  1
  O  O356  1  0.39645946  0.36016280  0.31478942  1
  O  O357  1  0.61202048  0.25903132  0.31735786  1
  O  O358  1  0.61234256  0.75334015  0.32054935  1
  O  O359  1  0.39803636  0.86291349  0.32443351  1
  O  O360  1  0.15485764  0.22273726  0.33405205  1
  O  O361  1  0.88047581  0.12300566  0.33694731  1
  O  O362  1  0.14353253  0.49068114  0.33724177  1
  O  O363  1  0.86211670  0.39386892  0.33634255  1
  O  O364  1  0.36376797  0.09919743  0.34158284  1
  O  O365  1  0.64741783  0.52625260  0.33989152  1
  O  O366  1  0.01537071  0.94283834  0.35075596  1
  O  O367  1  0.99669391  0.66942421  0.35135852  1
  O  O368  1  0.42310775  0.56917240  0.35300419  1
  O  O369  1  0.58837807  0.05825371  0.35599272  1
  O  O370  1  0.73128283  0.88012319  0.36765761  1
  O  O371  1  0.25991035  0.72512785  0.37209580  1
  O  O372  1  0.37871381  0.30382395  0.37471248  1
  O  O373  1  0.65806150  0.33189560  0.38005833  1
  O  O374  1  0.22663442  0.95381733  0.38669897  1
  O  O375  1  0.79339603  0.65452394  0.38451717  1
  O  O376  1  0.10942489  0.17486539  0.39023126  1
  O  O377  1  0.20787537  0.44732980  0.39298552  1
  O  O378  1  0.83214942  0.16974057  0.39008880  1
  O  O379  1  0.93859550  0.44750119  0.39186975  1
  O  O380  1  0.55169450  0.69645596  0.40111848  1
  O  O381  1  0.45334320  0.91420112  0.40014877  1
  O  O382  1  0.93949358  0.91992204  0.40236948  1
  O  O383  1  0.06030043  0.69159728  0.41195937  1
  O  O384  1  0.43672029  0.44866583  0.42328707  1
  O  O385  1  0.34993656  0.17936549  0.42387330  1
  O  O386  1  0.73452731  0.44063147  0.43152207  1
  O  O387  1  0.61489417  0.16148839  0.42228544  1
  O  O388  1  0.29338905  0.66643893  0.42845354  1
  O  O389  1  0.71859988  0.94216779  0.42420597  1
  O  O390  1  0.15601327  0.30886658  0.43807293  1
  O  O391  1  0.89927982  0.30819981  0.43911597  1
  O  O392  1  0.75422431  0.71218020  0.43725439  1
  O  O393  1  0.25148332  0.89206577  0.44299178  1
  O  O394  1  0.05256855  0.01446871  0.45525810  1
  O  O395  1  0.90365868  0.58099907  0.47559220  1
  O  O396  1  0.50911139  0.64038722  0.46592029  1
  O  O397  1  0.52458817  0.91182541  0.45917125  1
  O  O398  1  0.79437849  0.06297330  0.47157198  1
  O  O399  1  0.42697801  0.36841886  0.48441787  1
  O  O400  1  0.47250211  0.12842829  0.47392602  1
  O  O401  1  0.97156708  0.12869852  0.99255963  1
  O  O402  1  0.92460333  0.36849777  0.98225947  1
  O  O403  1  0.29556915  0.06270416  0.99507372  1
  O  O404  1  0.02476394  0.91280446  0.00685291  1
  O  O405  1  0.00761633  0.64096596  0.00068884  1
  O  O406  1  0.74684801  0.29666054  0.49051842  1
  O  O407  1  0.59677674  0.86187259  0.51107059  1
  O  O408  1  0.39845210  0.98453906  0.52334050  1
  O  O409  1  0.89583527  0.16450598  0.52907310  1
  O  O410  1  0.75131028  0.56830240  0.52710884  1
  O  O411  1  0.49479852  0.56698755  0.52838238  1
  O  O412  1  0.93264007  0.93492503  0.54208817  1
  O  O413  1  0.35679044  0.20951729  0.53793587  1
  O  O414  1  0.03607955  0.71512633  0.54399998  1
  O  O415  1  0.91615544  0.43592718  0.53461388  1
  O  O416  1  0.30110845  0.69675747  0.54261241  1
  O  O417  1  0.21432960  0.42746267  0.54322706  1
  O  O418  1  0.59028616  0.18421347  0.55430301  1
  O  O419  1  0.71072568  0.95625907  0.56395132  1
  O  O420  1  0.19707017  0.96195154  0.56610289  1
  O  O421  1  0.09878426  0.17977444  0.56522207  1
  O  O422  1  0.71197973  0.42856115  0.57429750  1
  O  O423  1  0.81859594  0.70673667  0.57612928  1
  O  O424  1  0.44322935  0.42868821  0.57341549  1
  O  O425  1  0.54142163  0.70135576  0.57627232  1
  O  O426  1  0.85687460  0.22152642  0.58186551  1
  O  O427  1  0.42342439  0.92239916  0.57968800  1
  O  O428  1  0.99256216  0.54373785  0.58611342  1
  O  O429  1  0.27190802  0.57142757  0.59176723  1
  O  O430  1  0.39040367  0.15073582  0.59427348  1
  O  O431  1  0.91904651  0.99553118  0.59857671  1
  O  O432  1  0.06224545  0.81748387  0.61022685  1
  O  O433  1  0.22768729  0.30563245  0.61344495  1
  O  O434  1  0.65322741  0.20536707  0.61479657  1
  O  O435  1  0.63452846  0.93201533  0.61556378  1
  O  O436  1  0.00296561  0.34820396  0.62637070  1
  O  O437  1  0.28621226  0.77597985  0.62465811  1
  O  O438  1  0.78755320  0.48080438  0.62972825  1
  O  O439  1  0.50654009  0.38490116  0.62904289  1
  O  O440  1  0.77012660  0.75288344  0.62933906  1
  O  O441  1  0.49512649  0.65204285  0.63238513  1
  O  O442  1  0.25121653  0.01179918  0.64186147  1
  O  O443  1  0.03696484  0.12144930  0.64586092  1
  O  O444  1  0.03741131  0.61566447  0.64873900  1
  O  O445  1  0.25299376  0.51450301  0.65158799  1
  O  O446  1  0.49873241  0.15502908  0.66055310  1
  O  O447  1  0.77594325  0.25300761  0.66253725  1
  O  O448  1  0.50420295  0.88522151  0.66264473  1
  O  O449  1  0.78284515  0.98098396  0.66283104  1
  O  O450  1  0.28848752  0.27922768  0.66852444  1
  O  O451  1  0.99925072  0.84630974  0.66682826  1
  O  O452  1  0.63765235  0.43951762  0.67561344  1
  O  O453  1  0.65190579  0.70804262  0.67802511  1
  O  O454  1  0.22419760  0.80319957  0.68044885  1
  O  O455  1  0.06404163  0.33055406  0.68324200  1
  O  O456  1  0.90537847  0.49106301  0.69728110  1
  O  O457  1  0.38176687  0.65089864  0.69903033  1
  O  O458  1  0.27836068  0.07469411  0.70112422  1
  O  O459  1  0.01021934  0.06200113  0.70389956  1
  O  O460  1  0.42139384  0.42572547  0.71246146  1
  O  O461  1  0.85260104  0.71110372  0.71157948  1
  O  O462  1  0.55144280  0.21147418  0.71635061  1
  O  O463  1  0.45584505  0.93148058  0.71688889  1
  O  O464  1  0.82195774  0.20004045  0.71723619  1
  O  O465  1  0.72590694  0.92461997  0.71861007  1
  O  O466  1  0.08942567  0.67813513  0.72905096  1
  O  O467  1  0.19333726  0.46170009  0.73108973  1
  O  O468  1  0.69317139  0.46180926  0.73545213  1
  O  O469  1  0.58941611  0.67820177  0.73740968  1
  O  O470  1  0.22603918  0.92462933  0.74786464  1
  O  O471  1  0.32239127  0.20042417  0.74920443  1
  O  O472  1  0.95590164  0.93152211  0.74950376  1
  O  O473  1  0.05155163  0.21126683  0.75015030  1
  O  O474  1  0.35272950  0.71102181  0.75488160  1
  O  O475  1  0.92124985  0.42569872  0.75395702  1
  O  O476  1  0.51021586  0.06178566  0.76252511  1
  O  O477  1  0.77846055  0.07469817  0.76537731  1
  O  O478  1  0.88190889  0.65064061  0.76748787  1
  O  O479  1  0.40570897  0.49032219  0.76915147  1
  O  O480  1  0.56422107  0.33019092  0.78325122  1
  O  O481  1  0.72425842  0.80328474  0.78597476  1
  O  O482  1  0.15205044  0.70780376  0.78836536  1
  O  O483  1  0.13767169  0.43907698  0.79077299  1
  O  O484  1  0.49893724  0.84572268  0.79963277  1
  O  O485  1  0.78896948  0.27915547  0.79795926  1
  O  O486  1  0.28326214  0.98088658  0.80362765  1
  O  O487  1  0.00440141  0.88508460  0.80365625  1
  O  O488  1  0.27587858  0.25253781  0.80391428  1
  O  O489  1  0.99895399  0.15491029  0.80593137  1
  O  O490  1  0.75305974  0.51440127  0.81489212  1
  O  O491  1  0.53783692  0.61549025  0.81767773  1
  O  O492  1  0.53800564  0.12121549  0.82057146  1
  O  O493  1  0.75164527  0.01157638  0.82454144  1
  O  O494  1  0.99485563  0.65202353  0.83400167  1
  O  O495  1  0.26944996  0.75193985  0.83701865  1
  O  O496  1  0.00676598  0.38467753  0.83746361  1
  O  O497  1  0.28789026  0.48075517  0.83664876  1
  O  O498  1  0.78629513  0.77607132  0.84179136  1
  O  O499  1  0.50276654  0.34776017  0.84001882  1
  O  O500  1  0.13395443  0.93158576  0.85081221  1
  O  O501  1  0.15297711  0.20507405  0.85161821  1
  O  O502  1  0.72766086  0.30577165  0.85300613  1
  O  O503  1  0.56173055  0.81715766  0.85619410  1
  O  O504  1  0.41836841  0.99514052  0.86769864  1
  O  O505  1  0.88996407  0.15063946  0.87217574  1
  O  O506  1  0.77185138  0.57138326  0.87462576  1
  O  O507  1  0.49213889  0.54296306  0.88025172  1
  O  O508  1  0.92319692  0.92205620  0.88682925  1
  O  O509  1  0.35679525  0.22108757  0.88455132  1
  O  O510  1  0.04109106  0.70101389  0.89020768  1
  O  O511  1  0.94301157  0.42813962  0.89310604  1
  O  O512  1  0.31819530  0.70599768  0.89021502  1
  O  O513  1  0.21182352  0.42823199  0.89207497  1
  O  O514  1  0.59868641  0.17901018  0.90111030  1
  O  O515  1  0.69698589  0.96159845  0.90024575  1
  O  O516  1  0.21042670  0.95598996  0.90246571  1
  O  O517  1  0.08990991  0.18425057  0.91205642  1
  O  O518  1  0.71372015  0.42687827  0.92313055  1
  O  O519  1  0.80066003  0.69610461  0.92388385  1
  O  O520  1  0.41555166  0.43510089  0.93172185  1
  O  O521  1  0.53580971  0.71457811  0.92231108  1
  O  O522  1  0.85660436  0.20904009  0.92860864  1
  O  O523  1  0.43197092  0.93371892  0.92418251  1
  O  O524  1  0.99404082  0.56639410  0.93811223  1
  O  O525  1  0.25112729  0.56789945  0.93926556  1
  O  O526  1  0.39605929  0.16340402  0.93728314  1
  O  O527  1  0.89826311  0.98373807  0.94311141  1
  O  O528  1  0.09704820  0.86123801  0.95529277  1
  O  O529  1  0.24597995  0.29519667  0.97569754  1
  O  O530  1  0.64205642  0.23487893  0.96581603  1
  O  O531  1  0.62524464  0.96293916  0.95945063  1
  O  O532  1  0.35502908  0.81326134  0.97142627  1
  O  O533  1  0.72502651  0.50715504  0.98428450  1
  O  O534  1  0.67730167  0.74604241  0.97392225  1
  O  O535  1  0.17910710  0.74672870  0.49247003  1
  O  O536  1  0.22615990  0.50709446  0.48230249  1
  O  O537  1  0.85463035  0.81395036  0.49509849  1
  O  O538  1  0.12549720  0.96304641  0.50679900  1
  O  O539  1  0.14292986  0.23516753  0.50061618  1
