# generated using pymatgen
data_Li40La18Zr10O67
_symmetry_space_group_name_H-M   'P 1'
_cell_length_a   11.29297700
_cell_length_b   11.29297737
_cell_length_c   53.86224456
_cell_angle_alpha   90.00000000
_cell_angle_beta   90.00000000
_cell_angle_gamma   111.54263211
_symmetry_Int_Tables_number   1
_chemical_formula_structural   Li40La18Zr10O67
_chemical_formula_sum   'Li160 La72 Zr40 O268'
_cell_volume   6389.27853809
_cell_formula_units_Z   4
loop_
 _symmetry_equiv_pos_site_id
 _symmetry_equiv_pos_as_xyz
  1  'x, y, z'
loop_
 _atom_site_type_symbol
 _atom_site_label
 _atom_site_symmetry_multiplicity
 _atom_site_fract_x
 _atom_site_fract_y
 _atom_site_fract_z
 _atom_site_occupancy
  Li  Li0  1  0.27529157  0.46773289  0.01833826  1
  Li  Li1  1  0.75370790  0.94782526  0.02035882  1
  Li  Li2  1  0.87095401  0.44324590  0.01686263  1
  Li  Li3  1  0.97871746  0.89436317  0.02990376  1
  Li  Li4  1  0.07643682  0.49294230  0.02924343  1
  Li  Li5  1  0.00112323  0.66355240  0.04399351  1
  Li  Li6  1  0.39219176  0.46861999  0.05710834  1
  Li  Li7  1  0.17070135  0.91886612  0.05980292  1
  Li  Li8  1  0.65240682  0.91011741  0.06505338  1
  Li  Li9  1  0.87924108  0.46452055  0.06345679  1
  Li  Li10  1  0.50880089  0.67281921  0.08065759  1
  Li  Li11  1  0.59707283  0.50235342  0.08915947  1
  Li  Li12  1  0.46959942  0.90056849  0.08917662  1
  Li  Li13  1  0.36642485  0.39200940  0.10101126  1
  Li  Li14  1  0.27781910  0.95057142  0.10382843  1
  Li  Li15  1  0.77934594  0.44873795  0.10362658  1
  Li  Li16  1  0.73052478  0.04277348  0.10362892  1
  Li  Li17  1  0.22472734  0.15133371  0.11612902  1
  Li  Li18  1  0.83258691  0.26398286  0.11708973  1
  Li  Li19  1  0.00842982  0.18419559  0.12887192  1
  Li  Li20  1  0.80120171  0.55949176  0.14414882  1
  Li  Li21  1  0.24881520  0.33761206  0.14592037  1
  Li  Li22  1  0.24633999  0.83402457  0.14681058  1
  Li  Li23  1  0.80124849  0.05825540  0.14872025  1
  Li  Li24  1  0.00898870  0.68477632  0.16540567  1
  Li  Li25  1  0.83303051  0.76657389  0.17550466  1
  Li  Li26  1  0.22217259  0.64567691  0.17579924  1
  Li  Li27  1  0.72197264  0.53677784  0.18889678  1
  Li  Li28  1  0.77909018  0.95041319  0.18974045  1
  Li  Li29  1  0.27776454  0.44976876  0.18958630  1
  Li  Li30  1  0.36392318  0.89294800  0.19003186  1
  Li  Li31  1  0.47232254  0.39408742  0.20339131  1
  Li  Li32  1  0.59349841  0.00343783  0.20382295  1
  Li  Li33  1  0.51316213  0.18207378  0.21415412  1
  Li  Li34  1  0.88640682  0.97326990  0.23123001  1
  Li  Li35  1  0.66420518  0.41883342  0.23221110  1
  Li  Li36  1  0.16226882  0.41777001  0.23343998  1
  Li  Li37  1  0.38568978  0.97381355  0.23462361  1
  Li  Li38  1  0.01234145  0.18162816  0.25166629  1
  Li  Li39  1  0.09361910  0.00380511  0.26188040  1
  Li  Li40  1  0.97355024  0.39492623  0.26240314  1
  Li  Li41  1  0.86471263  0.89396839  0.27572418  1
  Li  Li42  1  0.77774568  0.44995964  0.27609439  1
  Li  Li43  1  0.27871613  0.94995881  0.27602033  1
  Li  Li44  1  0.22019154  0.53445766  0.27681716  1
  Li  Li45  1  0.72152569  0.64486590  0.28988594  1
  Li  Li46  1  0.33236285  0.76548777  0.29024654  1
  Li  Li47  1  0.51128927  0.68659180  0.30032797  1
  Li  Li48  1  0.30136239  0.05782857  0.31684764  1
  Li  Li49  1  0.74850542  0.83632913  0.31903038  1
  Li  Li50  1  0.74817162  0.33804425  0.31983610  1
  Li  Li51  1  0.30247601  0.56056074  0.32128153  1
  Li  Li52  1  0.50613689  0.18265049  0.33715998  1
  Li  Li53  1  0.33304698  0.26468849  0.34892031  1
  Li  Li54  1  0.72456645  0.15130647  0.34944612  1
  Li  Li55  1  0.22998514  0.04164552  0.36222699  1
  Li  Li56  1  0.27785984  0.44813627  0.36209712  1
  Li  Li57  1  0.77778579  0.94968200  0.36201972  1
  Li  Li58  1  0.86663918  0.39210675  0.36461983  1
  Li  Li59  1  0.97222877  0.90131134  0.37668473  1
  Li  Li60  1  0.09588033  0.50210348  0.37688739  1
  Li  Li61  1  0.00942888  0.67396358  0.38523060  1
  Li  Li62  1  0.37931820  0.46478997  0.40173136  1
  Li  Li63  1  0.15395556  0.91062740  0.40083563  1
  Li  Li64  1  0.67018587  0.91790902  0.40604207  1
  Li  Li65  1  0.89268548  0.46792811  0.40847479  1
  Li  Li66  1  0.50088833  0.66248501  0.42168797  1
  Li  Li67  1  0.57584647  0.49265889  0.43664825  1
  Li  Li68  1  0.47772300  0.89385454  0.43600996  1
  Li  Li69  1  0.36956208  0.44397674  0.44830289  1
  Li  Li70  1  0.25385103  0.94756126  0.44520288  1
  Li  Li71  1  0.77522809  0.46760733  0.44736785  1
  Li  Li72  1  0.69060892  0.98874302  0.45473116  1
  Li  Li73  1  0.84458979  0.30728100  0.45609844  1
  Li  Li74  1  0.87958949  0.14601606  0.47561910  1
  Li  Li75  1  0.22275909  0.25125930  0.47365351  1
  Li  Li76  1  0.72227197  0.25007811  0.99198723  1
  Li  Li77  1  0.38009084  0.14575489  0.99027632  1
  Li  Li78  1  0.34424827  0.30686360  0.00945135  1
  Li  Li79  1  0.19027511  0.98811314  0.01088802  1
  Li  Li80  1  0.59966308  0.65732570  0.51833124  1
  Li  Li81  1  0.12129029  0.17716654  0.52035974  1
  Li  Li82  1  0.00405246  0.68173934  0.51686032  1
  Li  Li83  1  0.89627150  0.23063118  0.52990614  1
  Li  Li84  1  0.79860413  0.63208461  0.52924385  1
  Li  Li85  1  0.87387083  0.46143195  0.54398969  1
  Li  Li86  1  0.48279559  0.65638627  0.55710192  1
  Li  Li87  1  0.70414378  0.20615316  0.55984178  1
  Li  Li88  1  0.22267100  0.21481985  0.56507284  1
  Li  Li89  1  0.99574189  0.66046236  0.56345803  1
  Li  Li90  1  0.36617203  0.45214799  0.58066021  1
  Li  Li91  1  0.27792142  0.62263566  0.58915726  1
  Li  Li92  1  0.40540751  0.22442412  0.58917615  1
  Li  Li93  1  0.50855867  0.73297051  0.60101081  1
  Li  Li94  1  0.59723736  0.17469420  0.60386768  1
  Li  Li95  1  0.09564321  0.67625897  0.60362612  1
  Li  Li96  1  0.14445248  0.08222405  0.60363093  1
  Li  Li97  1  0.65024443  0.97372438  0.61612262  1
  Li  Li98  1  0.04239548  0.86100050  0.61709056  1
  Li  Li99  1  0.86653922  0.94079627  0.62887108  1
  Li  Li100  1  0.07377448  0.56549683  0.64415209  1
  Li  Li101  1  0.62616971  0.78738770  0.64592399  1
  Li  Li102  1  0.62865245  0.29099124  0.64681273  1
  Li  Li103  1  0.07372261  0.06673983  0.64872130  1
  Li  Li104  1  0.86599815  0.44022708  0.66541669  1
  Li  Li105  1  0.04186004  0.35823210  0.67551677  1
  Li  Li106  1  0.65280751  0.47931280  0.67580401  1
  Li  Li107  1  0.15298334  0.58820373  0.68889390  1
  Li  Li108  1  0.09591354  0.17446147  0.68973964  1
  Li  Li109  1  0.59721072  0.67521454  0.68958880  1
  Li  Li110  1  0.51114193  0.23209732  0.69000749  1
  Li  Li111  1  0.40255827  0.73098246  0.70334037  1
  Li  Li112  1  0.28192425  0.12181432  0.70386224  1
  Li  Li113  1  0.36181590  0.94291544  0.71415646  1
  Li  Li114  1  0.98858018  0.15172245  0.73122666  1
  Li  Li115  1  0.21077897  0.70615124  0.73221108  1
  Li  Li116  1  0.71271306  0.70718770  0.73345522  1
  Li  Li117  1  0.48931770  0.15118059  0.73462581  1
  Li  Li118  1  0.86265261  0.94337814  0.75166375  1
  Li  Li119  1  0.78135543  0.12117546  0.76188076  1
  Li  Li120  1  0.90139842  0.73004392  0.76241037  1
  Li  Li121  1  0.01027033  0.23100791  0.77572550  1
  Li  Li122  1  0.09725447  0.67505505  0.77610324  1
  Li  Li123  1  0.59624198  0.17506357  0.77602285  1
  Li  Li124  1  0.65447751  0.59002091  0.77691551  1
  Li  Li125  1  0.15344949  0.48014490  0.78988402  1
  Li  Li126  1  0.54257863  0.36012209  0.79037805  1
  Li  Li127  1  0.36388861  0.43860552  0.80035132  1
  Li  Li128  1  0.57363034  0.06717107  0.81684673  1
  Li  Li129  1  0.12648511  0.28866052  0.81902769  1
  Li  Li130  1  0.12715765  0.78732376  0.81997908  1
  Li  Li131  1  0.57315184  0.56586637  0.82157206  1
  Li  Li132  1  0.36890247  0.94236411  0.83716370  1
  Li  Li133  1  0.54194974  0.86031396  0.84891865  1
  Li  Li134  1  0.15042831  0.97376264  0.84945698  1
  Li  Li135  1  0.64501137  0.08333365  0.86222882  1
  Li  Li136  1  0.59720949  0.67696058  0.86214246  1
  Li  Li137  1  0.09719843  0.17529890  0.86202455  1
  Li  Li138  1  0.00835839  0.73286566  0.86463653  1
  Li  Li139  1  0.90276420  0.22367567  0.87668500  1
  Li  Li140  1  0.77933470  0.62298436  0.87688044  1
  Li  Li141  1  0.86557189  0.45103094  0.88523077  1
  Li  Li142  1  0.49590225  0.66033812  0.90171396  1
  Li  Li143  1  0.72104554  0.21436381  0.90083683  1
  Li  Li144  1  0.20481252  0.20707630  0.90604258  1
  Li  Li145  1  0.98235540  0.65682926  0.90853149  1
  Li  Li146  1  0.37412112  0.46252334  0.92168354  1
  Li  Li147  1  0.29915121  0.63234345  0.93664799  1
  Li  Li148  1  0.39727743  0.23116923  0.93600510  1
  Li  Li149  1  0.50543036  0.68104894  0.94829965  1
  Li  Li150  1  0.62116062  0.17743413  0.94520432  1
  Li  Li151  1  0.09978545  0.65739294  0.94737547  1
  Li  Li152  1  0.18448639  0.13625915  0.95475518  1
  Li  Li153  1  0.03040288  0.81770288  0.95609942  1
  Li  Li154  1  0.99542038  0.97897106  0.97561881  1
  Li  Li155  1  0.65255025  0.87349630  0.97365335  1
  Li  Li156  1  0.15282198  0.87483473  0.49197905  1
  Li  Li157  1  0.49542621  0.97981972  0.49030895  1
  Li  Li158  1  0.53039701  0.81863250  0.50946583  1
  Li  Li159  1  0.68477776  0.13697891  0.51090573  1
  La  La160  1  0.84459819  0.66690372  0.99649284  1
  La  La161  1  0.20135030  0.74085862  0.00132588  1
  La  La162  1  0.53653391  0.69645225  0.01966204  1
  La  La163  1  0.03483153  0.20600547  0.01939029  1
  La  La164  1  0.60263359  0.38288443  0.03686292  1
  La  La165  1  0.47439298  0.00497313  0.03080180  1
  La  La166  1  0.97001832  0.01359142  0.08176239  1
  La  La167  1  0.09228973  0.38604468  0.08330425  1
  La  La168  1  0.03073995  0.70007930  0.10383478  1
  La  La169  1  0.52929992  0.19705277  0.10193734  1
  La  La170  1  0.71390405  0.76838202  0.12474287  1
  La  La171  1  0.34167286  0.63488190  0.12547600  1
  La  La172  1  0.34146169  0.13679516  0.16769498  1
  La  La173  1  0.71189868  0.26495318  0.16879008  1
  La  La174  1  0.02859813  0.20029410  0.18996711  1
  La  La175  1  0.52804411  0.69920361  0.18971261  1
  La  La176  1  0.09393368  0.88523764  0.21039778  1
  La  La177  1  0.96430782  0.51271557  0.21136323  1
  La  La178  1  0.46414634  0.51252224  0.25441288  1
  La  La179  1  0.59370962  0.88534256  0.25535132  1
  La  La180  1  0.52870188  0.20043800  0.27584737  1
  La  La181  1  0.02790534  0.69932185  0.27609354  1
  La  La182  1  0.21196149  0.26486142  0.29705816  1
  La  La183  1  0.84144745  0.13702972  0.29807571  1
  La  La184  1  0.84170982  0.63512566  0.34030578  1
  La  La185  1  0.21408906  0.76796479  0.34102834  1
  La  La186  1  0.53099234  0.69979795  0.36185469  1
  La  La187  1  0.02931501  0.19667379  0.36377490  1
  La  La188  1  0.59314134  0.38605513  0.38254823  1
  La  La189  1  0.47032672  0.01326557  0.38402442  1
  La  La190  1  0.97462548  0.00514427  0.43497897  1
  La  La191  1  0.10244663  0.38281986  0.42893409  1
  La  La192  1  0.03649035  0.69646301  0.44614939  1
  La  La193  1  0.53498578  0.20591129  0.44636598  1
  La  La194  1  0.70106533  0.74111672  0.46442899  1
  La  La195  1  0.34430823  0.66686531  0.46929585  1
  La  La196  1  0.03039937  0.45804109  0.49649119  1
  La  La197  1  0.67360144  0.38417795  0.50132302  1
  La  La198  1  0.33844610  0.42855489  0.51966061  1
  La  La199  1  0.84014796  0.91895340  0.51938471  1
  La  La200  1  0.27230281  0.74206948  0.53687617  1
  La  La201  1  0.40058320  0.12002680  0.53083895  1
  La  La202  1  0.90500532  0.11139469  0.58175589  1
  La  La203  1  0.78269762  0.73892080  0.58330945  1
  La  La204  1  0.84430681  0.42494095  0.60384116  1
  La  La205  1  0.34573434  0.92793997  0.60193979  1
  La  La206  1  0.16104716  0.35657901  0.62475019  1
  La  La207  1  0.53330084  0.49010991  0.62547725  1
  La  La208  1  0.53349138  0.98820751  0.66768840  1
  La  La209  1  0.16303560  0.86005026  0.66879482  1
  La  La210  1  0.84635969  0.92468955  0.68996363  1
  La  La211  1  0.34688140  0.42581227  0.68971315  1
  La  La212  1  0.78098799  0.23973371  0.71040735  1
  La  La213  1  0.91065516  0.61226636  0.71137389  1
  La  La214  1  0.41086353  0.61249168  0.75440603  1
  La  La215  1  0.28128540  0.23965676  0.75537181  1
  La  La216  1  0.34626534  0.92458897  0.77584821  1
  La  La217  1  0.84705892  0.42557415  0.77609538  1
  La  La218  1  0.66301586  0.86013513  0.79704573  1
  La  La219  1  0.03354345  0.98791934  0.79807270  1
  La  La220  1  0.03330776  0.48981201  0.84030991  1
  La  La221  1  0.66087759  0.35702451  0.84103825  1
  La  La222  1  0.34401139  0.42516695  0.86184843  1
  La  La223  1  0.84567278  0.92832576  0.86378169  1
  La  La224  1  0.28186716  0.73889298  0.88256554  1
  La  La225  1  0.40464596  0.11169381  0.88403129  1
  La  La226  1  0.90041359  0.11980170  0.93496648  1
  La  La227  1  0.77260341  0.74213659  0.92892150  1
  La  La228  1  0.83851151  0.42847046  0.94615294  1
  La  La229  1  0.34004217  0.91911914  0.94637811  1
  La  La230  1  0.17394030  0.38387056  0.96442150  1
  La  La231  1  0.53072597  0.45821179  0.96927519  1
  Zr  Zr232  1  0.78152062  0.70127476  0.06174047  1
  Zr  Zr233  1  0.28674318  0.19051109  0.05821172  1
  Zr  Zr234  1  0.77760334  0.19582564  0.05827415  1
  Zr  Zr235  1  0.28321669  0.70167029  0.06183434  1
  Zr  Zr236  1  0.02967389  0.95139808  0.14642172  1
  Zr  Zr237  1  0.52753193  0.44930704  0.14589303  1
  Zr  Zr238  1  0.52747716  0.95038936  0.14617233  1
  Zr  Zr239  1  0.02658513  0.44896936  0.14694326  1
  Zr  Zr240  1  0.27781900  0.19995489  0.23276279  1
  Zr  Zr241  1  0.77830001  0.69934676  0.23290203  1
  Zr  Zr242  1  0.27845251  0.69909485  0.23291382  1
  Zr  Zr243  1  0.77787966  0.19982605  0.23303730  1
  Zr  Zr244  1  0.52658032  0.44891463  0.31887228  1
  Zr  Zr245  1  0.02790286  0.95030495  0.31962113  1
  Zr  Zr246  1  0.02757554  0.44927550  0.31988453  1
  Zr  Zr247  1  0.52954831  0.95130415  0.31933836  1
  Zr  Zr248  1  0.78362412  0.70180703  0.40395226  1
  Zr  Zr249  1  0.27805261  0.19616868  0.40741528  1
  Zr  Zr250  1  0.78677236  0.19013304  0.40746322  1
  Zr  Zr251  1  0.28160219  0.70094522  0.40397037  1
  Zr  Zr252  1  0.09345887  0.42370038  0.56174112  1
  Zr  Zr253  1  0.58831615  0.93453313  0.55822549  1
  Zr  Zr254  1  0.09736141  0.92910089  0.55826877  1
  Zr  Zr255  1  0.59176773  0.42334456  0.56183550  1
  Zr  Zr256  1  0.84528770  0.17357954  0.64642521  1
  Zr  Zr257  1  0.34740348  0.67567045  0.64587896  1
  Zr  Zr258  1  0.34746975  0.17459708  0.64617375  1
  Zr  Zr259  1  0.84838186  0.67600769  0.64695092  1
  Zr  Zr260  1  0.59712314  0.92499873  0.73275385  1
  Zr  Zr261  1  0.09667057  0.42564203  0.73289960  1
  Zr  Zr262  1  0.59652431  0.42585624  0.73292778  1
  Zr  Zr263  1  0.09709591  0.92516850  0.73303475  1
  Zr  Zr264  1  0.34846132  0.67608476  0.81887017  1
  Zr  Zr265  1  0.84708519  0.17465141  0.81962294  1
  Zr  Zr266  1  0.84756116  0.67569343  0.81988999  1
  Zr  Zr267  1  0.34541625  0.17367330  0.81935463  1
  Zr  Zr268  1  0.09138663  0.42318438  0.90394990  1
  Zr  Zr269  1  0.59693783  0.92883302  0.90742583  1
  Zr  Zr270  1  0.08821728  0.93481134  0.90746817  1
  Zr  Zr271  1  0.59341252  0.42405850  0.90396512  1
  O  O272  1  0.77673581  0.79204615  0.02735842  1
  O  O273  1  0.30640899  0.63031158  0.02679664  1
  O  O274  1  0.39896200  0.18734793  0.02584305  1
  O  O275  1  0.66957260  0.20323047  0.02687720  1
  O  O276  1  0.25866489  0.84763685  0.04025900  1
  O  O277  1  0.80998510  0.55483866  0.04149921  1
  O  O278  1  0.12265012  0.05111323  0.04124946  1
  O  O279  1  0.23721316  0.33016277  0.04033146  1
  O  O280  1  0.85253293  0.06696954  0.04293342  1
  O  O281  1  0.93956459  0.34550802  0.04459909  1
  O  O282  1  0.58681372  0.59402785  0.05804599  1
  O  O283  1  0.48076900  0.80466084  0.05889741  1
  O  O284  1  0.98243893  0.80469767  0.06318778  1
  O  O285  1  0.08524460  0.58826742  0.06567426  1
  O  O286  1  0.45022691  0.33794718  0.07368468  1
  O  O287  1  0.34669018  0.06350979  0.07671448  1
  O  O288  1  0.71522022  0.33219725  0.07565617  1
  O  O289  1  0.61868446  0.05710687  0.07527562  1
  O  O290  1  0.31842974  0.55198085  0.08117725  1
  O  O291  1  0.75669452  0.84866557  0.08283454  1
  O  O292  1  0.16476638  0.20636140  0.08735699  1
  O  O293  1  0.89253050  0.18904392  0.09048989  1
  O  O294  1  0.79335890  0.61972604  0.09633171  1
  O  O295  1  0.26741842  0.77855359  0.09656627  1
  O  O296  1  0.10738404  0.93794510  0.11135855  1
  O  O297  1  0.94639522  0.45735849  0.11159059  1
  O  O298  1  0.51942255  0.56272168  0.11482492  1
  O  O299  1  0.53253283  0.83141935  0.11642003  1
  O  O300  1  0.16923856  0.41780550  0.12534920  1
  O  O301  1  0.88962089  0.99370114  0.12579624  1
  O  O302  1  0.38378706  0.28937212  0.12967068  1
  O  O303  1  0.66349012  0.38476336  0.13007955  1
  O  O304  1  0.39522415  0.01860877  0.13048475  1
  O  O305  1  0.67196205  0.11391399  0.13124087  1
  O  O306  1  0.91913673  0.75511116  0.14316760  1
  O  O307  1  0.13295065  0.64780131  0.14366525  1
  O  O308  1  0.13597106  0.15052130  0.14933886  1
  O  O309  1  0.91690099  0.25259622  0.15056588  1
  O  O310  1  0.67013763  0.61454933  0.16133811  1
  O  O311  1  0.39345508  0.51695053  0.16222682  1
  O  O312  1  0.66432349  0.88536255  0.16257228  1
  O  O313  1  0.38399884  0.78706822  0.16246302  1
  O  O314  1  0.88507745  0.48974582  0.16734740  1
  O  O315  1  0.17326770  0.92045846  0.16771708  1
  O  O316  1  0.53237982  0.33125571  0.17613785  1
  O  O317  1  0.51833751  0.06185567  0.17768081  1
  O  O318  1  0.94811275  0.96225461  0.18143222  1
  O  O319  1  0.10662205  0.43751427  0.18169133  1
  O  O320  1  0.26487671  0.27974674  0.19793639  1
  O  O321  1  0.78922318  0.11819162  0.19816212  1
  O  O322  1  0.89004904  0.69001974  0.20159074  1
  O  O323  1  0.15923872  0.70509796  0.20298065  1
  O  O324  1  0.74811184  0.34350569  0.21148146  1
  O  O325  1  0.31716231  0.05847145  0.21177758  1
  O  O326  1  0.61607683  0.55590515  0.21674804  1
  O  O327  1  0.71337461  0.83531891  0.21673758  1
  O  O328  1  0.34646492  0.56620759  0.21671706  1
  O  O329  1  0.44247261  0.84244707  0.21785025  1
  O  O330  1  0.08083112  0.08998249  0.22918590  1
  O  O331  1  0.97701211  0.30600368  0.22995240  1
  O  O332  1  0.47695673  0.30614715  0.23583893  1
  O  O333  1  0.58096414  0.09008190  0.23658431  1
  O  O334  1  0.94262068  0.84246880  0.24795035  1
  O  O335  1  0.84620191  0.56616292  0.24899495  1
  O  O336  1  0.21327527  0.83506463  0.24905272  1
  O  O337  1  0.11579337  0.55556010  0.24900396  1
  O  O338  1  0.81744051  0.05839170  0.25397869  1
  O  O339  1  0.24769624  0.34355308  0.25426853  1
  O  O340  1  0.65906143  0.70506598  0.26282647  1
  O  O341  1  0.39006927  0.68973669  0.26415457  1
  O  O342  1  0.28925038  0.11795674  0.26760308  1
  O  O343  1  0.76484791  0.27960434  0.26785488  1
  O  O344  1  0.60701573  0.43730746  0.28416683  1
  O  O345  1  0.44806141  0.96218015  0.28431769  1
  O  O346  1  0.01854023  0.06199248  0.28811538  1
  O  O347  1  0.03269291  0.33149821  0.28961150  1
  O  O348  1  0.67315046  0.92042911  0.29804389  1
  O  O349  1  0.38542265  0.48935291  0.29835153  1
  O  O350  1  0.88452390  0.78709391  0.30328785  1
  O  O351  1  0.16449119  0.88507213  0.30320791  1
  O  O352  1  0.89353298  0.51705639  0.30351542  1
  O  O353  1  0.17018234  0.61422837  0.30438248  1
  O  O354  1  0.41691937  0.25260163  0.31526170  1
  O  O355  1  0.63541773  0.15051122  0.31650110  1
  O  O356  1  0.63327041  0.64793689  0.32211346  1
  O  O357  1  0.41923476  0.75479876  0.32254305  1
  O  O358  1  0.17193387  0.11362625  0.33458131  1
  O  O359  1  0.89470411  0.01749371  0.33521681  1
  O  O360  1  0.16311983  0.38380724  0.33557721  1
  O  O361  1  0.88360375  0.28900888  0.33599770  1
  O  O362  1  0.38923897  0.99305871  0.33993181  1
  O  O363  1  0.66952715  0.41848332  0.34051930  1
  O  O364  1  0.03323464  0.83163690  0.34941686  1
  O  O365  1  0.01942578  0.56235704  0.35094403  1
  O  O366  1  0.44594944  0.45743980  0.35420811  1
  O  O367  1  0.60740209  0.93772789  0.35440284  1
  O  O368  1  0.76734307  0.77818273  0.36918806  1
  O  O369  1  0.29315799  0.61942077  0.36942159  1
  O  O370  1  0.39329270  0.18875936  0.37520818  1
  O  O371  1  0.66530455  0.20616285  0.37834864  1
  O  O372  1  0.25688388  0.84848341  0.38290419  1
  O  O373  1  0.81898170  0.55226706  0.38462726  1
  O  O374  1  0.11935442  0.05701459  0.39044914  1
  O  O375  1  0.21525273  0.33162195  0.38993149  1
  O  O376  1  0.84722687  0.06323522  0.38907392  1
  O  O377  1  0.95045659  0.33781392  0.39201530  1
  O  O378  1  0.58580438  0.58831267  0.40006685  1
  O  O379  1  0.48241196  0.80435477  0.40260471  1
  O  O380  1  0.98141028  0.80509414  0.40693931  1
  O  O381  1  0.08676678  0.59394784  0.40774630  1
  O  O382  1  0.43993273  0.34587349  0.42100062  1
  O  O383  1  0.35267296  0.06697500  0.42277612  1
  O  O384  1  0.73737559  0.33007506  0.42532900  1
  O  O385  1  0.62257545  0.05097599  0.42443916  1
  O  O386  1  0.31002210  0.55419247  0.42407073  1
  O  O387  1  0.75907128  0.84784694  0.42554690  1
  O  O388  1  0.17023657  0.20419535  0.43880798  1
  O  O389  1  0.89879172  0.18717266  0.43993176  1
  O  O390  1  0.80632221  0.63063743  0.43903364  1
  O  O391  1  0.27669423  0.79170323  0.43835143  1
  O  O392  1  0.08966016  0.90822641  0.45918269  1
  O  O393  1  0.97116795  0.46965561  0.45401869  1
  O  O394  1  0.50606068  0.59975907  0.45478945  1
  O  O395  1  0.53572543  0.86328453  0.47075913  1
  O  O396  1  0.23027938  0.43095067  0.47464399  1
  O  O397  1  0.83655856  0.97385908  0.47640800  1
  O  O398  1  0.61559481  0.40349518  0.46282968  1
  O  O399  1  0.11552260  0.40375376  0.00287540  1
  O  O400  1  0.33635948  0.97371217  0.98936208  1
  O  O401  1  0.73116029  0.43056471  0.99093272  1
  O  O402  1  0.03606054  0.86267912  0.99502854  1
  O  O403  1  0.00656850  0.59984148  0.01097647  1
  O  O404  1  0.47140681  0.46964771  0.01169627  1
  O  O405  1  0.58911902  0.90756868  0.00651402  1
  O  O406  1  0.09830155  0.33295383  0.52736844  1
  O  O407  1  0.56851119  0.49470110  0.52679934  1
  O  O408  1  0.47613456  0.93804489  0.52586462  1
  O  O409  1  0.20537724  0.92162056  0.52687636  1
  O  O410  1  0.61631223  0.27735562  0.54026400  1
  O  O411  1  0.06499533  0.57013914  0.54150255  1
  O  O412  1  0.75240636  0.07388455  0.54126539  1
  O  O413  1  0.63775808  0.79488486  0.54033380  1
  O  O414  1  0.02244505  0.05794412  0.54292359  1
  O  O415  1  0.93540751  0.77943067  0.54459962  1
  O  O416  1  0.28816584  0.53095632  0.55804557  1
  O  O417  1  0.39422417  0.32028493  0.55891039  1
  O  O418  1  0.89253895  0.32030320  0.56319392  1
  O  O419  1  0.78973066  0.53671282  0.56567352  1
  O  O420  1  0.42476149  0.78706647  0.57368295  1
  O  O421  1  0.52839356  0.06153218  0.57674698  1
  O  O422  1  0.15976959  0.79274672  0.57565461  1
  O  O423  1  0.25631757  0.06785060  0.57526302  1
  O  O424  1  0.55653795  0.57301347  0.58117868  1
  O  O425  1  0.11830264  0.27631737  0.58283519  1
  O  O426  1  0.71028342  0.91866900  0.58736621  1
  O  O427  1  0.98248855  0.93593449  0.59048783  1
  O  O428  1  0.08160022  0.50525112  0.59633381  1
  O  O429  1  0.60751745  0.34648069  0.59657416  1
  O  O430  1  0.76757573  0.18707694  0.61137053  1
  O  O431  1  0.92858220  0.66762968  0.61159404  1
  O  O432  1  0.35556225  0.56227402  0.61482126  1
  O  O433  1  0.34240714  0.29355839  0.61641965  1
  O  O434  1  0.70575700  0.70720069  0.62534855  1
  O  O435  1  0.98533367  0.13127442  0.62580042  1
  O  O436  1  0.49115277  0.83562067  0.62966107  1
  O  O437  1  0.21146291  0.74021406  0.63007834  1
  O  O438  1  0.47973403  0.10638144  0.63048854  1
  O  O439  1  0.20303121  0.01107749  0.63124724  1
  O  O440  1  0.95582659  0.36987120  0.64317356  1
  O  O441  1  0.74202262  0.47718857  0.64367152  1
  O  O442  1  0.73899125  0.97449235  0.64934332  1
  O  O443  1  0.95804541  0.87239348  0.65057031  1
  O  O444  1  0.20483947  0.51042903  0.66133377  1
  O  O445  1  0.48148652  0.60807325  0.66222648  1
  O  O446  1  0.21059801  0.23961802  0.66256809  1
  O  O447  1  0.49095970  0.33792747  0.66246393  1
  O  O448  1  0.98989562  0.63526282  0.66735296  1
  O  O449  1  0.70171317  0.20454336  0.66771676  1
  O  O450  1  0.34248830  0.79373566  0.67612418  1
  O  O451  1  0.35665595  0.06319040  0.67768491  1
  O  O452  1  0.92687865  0.16272942  0.68143440  1
  O  O453  1  0.76835160  0.68749333  0.68169016  1
  O  O454  1  0.61005591  0.84524599  0.69792741  1
  O  O455  1  0.08568113  0.00674723  0.69816499  1
  O  O456  1  0.98492493  0.43498105  0.70159312  1
  O  O457  1  0.71573933  0.41995740  0.70298668  1
  O  O458  1  0.12683883  0.78147038  0.71148680  1
  O  O459  1  0.55780768  0.06650720  0.71177760  1
  O  O460  1  0.25888304  0.56905871  0.71673331  1
  O  O461  1  0.16162126  0.28968542  0.71673335  1
  O  O462  1  0.52850840  0.55872931  0.71672431  1
  O  O463  1  0.43251479  0.28250064  0.71785615  1
  O  O464  1  0.79411811  0.03498868  0.72918445  1
  O  O465  1  0.89795155  0.81893545  0.72996426  1
  O  O466  1  0.39799066  0.81879093  0.73582391  1
  O  O467  1  0.29404325  0.03489540  0.73659631  1
  O  O468  1  0.93234809  0.28252033  0.74795399  1
  O  O469  1  0.02880210  0.55883196  0.74900108  1
  O  O470  1  0.66172537  0.28981263  0.74902903  1
  O  O471  1  0.75914817  0.56931446  0.74904374  1
  O  O472  1  0.05753927  0.06659478  0.75397781  1
  O  O473  1  0.62723859  0.78143638  0.75426584  1
  O  O474  1  0.21592791  0.41992164  0.76282552  1
  O  O475  1  0.48496375  0.43524675  0.76417828  1
  O  O476  1  0.58563048  0.00696615  0.76759993  1
  O  O477  1  0.11015009  0.84540972  0.76785556  1
  O  O478  1  0.26806093  0.68766190  0.78416775  1
  O  O479  1  0.42686874  0.16277434  0.78433868  1
  O  O480  1  0.85644070  0.06296846  0.78811483  1
  O  O481  1  0.84232142  0.79349731  0.78963333  1
  O  O482  1  0.20176399  0.20444016  0.79805301  1
  O  O483  1  0.48973842  0.63567138  0.79838789  1
  O  O484  1  0.99047219  0.33783456  0.80329030  1
  O  O485  1  0.71051314  0.23987484  0.80320363  1
  O  O486  1  0.98138759  0.60776135  0.80350922  1
  O  O487  1  0.70469339  0.51074544  0.80445559  1
  O  O488  1  0.45809927  0.87240199  0.81526732  1
  O  O489  1  0.23955014  0.97443164  0.81652160  1
  O  O490  1  0.24171862  0.47706521  0.82211014  1
  O  O491  1  0.45558961  0.37015822  0.82261162  1
  O  O492  1  0.70305266  0.01131225  0.83458317  1
  O  O493  1  0.98025941  0.10744896  0.83522973  1
  O  O494  1  0.71189350  0.74106344  0.83561710  1
  O  O495  1  0.99144982  0.83596510  0.83601990  1
  O  O496  1  0.48577020  0.13192250  0.83993764  1
  O  O497  1  0.20556579  0.70643579  0.84054256  1
  O  O498  1  0.84174777  0.29329883  0.84941903  1
  O  O499  1  0.85574183  0.56269225  0.85095936  1
  O  O500  1  0.42921502  0.66748449  0.85419885  1
  O  O501  1  0.26750594  0.18714540  0.85442216  1
  O  O502  1  0.10766066  0.34681876  0.86918325  1
  O  O503  1  0.58195080  0.50563608  0.86940629  1
  O  O504  1  0.48169295  0.93619049  0.87521403  1
  O  O505  1  0.20964170  0.91876627  0.87835378  1
  O  O506  1  0.61810120  0.27648278  0.88290848  1
  O  O507  1  0.05603019  0.57271650  0.88463938  1
  O  O508  1  0.75564146  0.06796321  0.89045397  1
  O  O509  1  0.65977027  0.79338759  0.88994151  1
  O  O510  1  0.02772898  0.06174235  0.88909446  1
  O  O511  1  0.92452389  0.78712777  0.89202986  1
  O  O512  1  0.28917507  0.53666479  0.90006626  1
  O  O513  1  0.39260589  0.32064284  0.90260133  1
  O  O514  1  0.89358133  0.31990045  0.90693887  1
  O  O515  1  0.78823739  0.53100692  0.90775147  1
  O  O516  1  0.43506983  0.77912159  0.92099751  1
  O  O517  1  0.52232637  0.05802476  0.92277650  1
  O  O518  1  0.13764513  0.79492884  0.92534491  1
  O  O519  1  0.25243461  0.07401210  0.92443734  1
  O  O520  1  0.56496132  0.57079422  0.92406367  1
  O  O521  1  0.11592293  0.27712372  0.92554546  1
  O  O522  1  0.70480172  0.92074996  0.93880501  1
  O  O523  1  0.97618935  0.93778002  0.93992852  1
  O  O524  1  0.06868950  0.49438923  0.93902852  1
  O  O525  1  0.59830478  0.33329265  0.93834843  1
  O  O526  1  0.78538300  0.21674317  0.95918362  1
  O  O527  1  0.90383907  0.65528859  0.95401375  1
  O  O528  1  0.36893214  0.52528111  0.95478462  1
  O  O529  1  0.33928445  0.26191651  0.97072715  1
  O  O530  1  0.64477145  0.69400969  0.97464036  1
  O  O531  1  0.03853960  0.15112329  0.97641963  1
  O  O532  1  0.25945325  0.72153748  0.96283917  1
  O  O533  1  0.75957090  0.72118917  0.50287407  1
  O  O534  1  0.53883630  0.15163241  0.48935986  1
  O  O535  1  0.14388244  0.69435987  0.49092798  1
  O  O536  1  0.83899733  0.26225171  0.49504115  1
  O  O537  1  0.86846477  0.52513123  0.51096867  1
  O  O538  1  0.40369182  0.65555050  0.51172064  1
  O  O539  1  0.28593017  0.21741774  0.50653124  1
