# generated using pymatgen
data_Li40La18Zr10O67
_symmetry_space_group_name_H-M   'P 1'
_cell_length_a   11.29297700
_cell_length_b   11.29297737
_cell_length_c   53.86260828
_cell_angle_alpha   90.00000000
_cell_angle_beta   90.00000000
_cell_angle_gamma   111.54263211
_symmetry_Int_Tables_number   1
_chemical_formula_structural   Li40La18Zr10O67
_chemical_formula_sum   'Li160 La72 Zr40 O268'
_cell_volume   6389.32168257
_cell_formula_units_Z   4
loop_
 _symmetry_equiv_pos_site_id
 _symmetry_equiv_pos_as_xyz
  1  'x, y, z'
loop_
 _atom_site_type_symbol
 _atom_site_label
 _atom_site_symmetry_multiplicity
 _atom_site_fract_x
 _atom_site_fract_y
 _atom_site_fract_z
 _atom_site_occupancy
  Li  Li0  1  0.26021949  0.55210734  0.02007320  1
  Li  Li1  1  0.73678484  0.03328784  0.01879882  1
  Li  Li2  1  0.82310586  0.51154331  0.01072153  1
  Li  Li3  1  0.93671649  0.00767475  0.02914915  1
  Li  Li4  1  0.03600747  0.60549067  0.02985807  1
  Li  Li5  1  0.01103419  0.83832744  0.04420058  1
  Li  Li6  1  0.35618318  0.58952929  0.06460482  1
  Li  Li7  1  0.13371729  0.03655194  0.06435844  1
  Li  Li8  1  0.61859605  0.03211220  0.05760240  1
  Li  Li9  1  0.84402439  0.58394369  0.05922292  1
  Li  Li10  1  0.50017005  0.82407962  0.08061783  1
  Li  Li11  1  0.53947734  0.59995334  0.08895089  1
  Li  Li12  1  0.41596893  0.99906828  0.08901075  1
  Li  Li13  1  0.28473101  0.46313994  0.10326877  1
  Li  Li14  1  0.23329271  0.05199574  0.10437904  1
  Li  Li15  1  0.73281069  0.55069259  0.10290884  1
  Li  Li16  1  0.64661094  0.11310743  0.10154032  1
  Li  Li17  1  0.17649003  0.23723315  0.11640218  1
  Li  Li18  1  0.78502297  0.35386165  0.11657970  1
  Li  Li19  1  0.99846205  0.31459854  0.12843239  1
  Li  Li20  1  0.75608443  0.65661005  0.14432819  1
  Li  Li21  1  0.20721150  0.44295070  0.14853800  1
  Li  Li22  1  0.20228035  0.93350235  0.14694880  1
  Li  Li23  1  0.76362281  0.16562851  0.14582942  1
  Li  Li24  1  0.96665194  0.78618191  0.16563196  1
  Li  Li25  1  0.78693057  0.86301499  0.17567965  1
  Li  Li26  1  0.17861172  0.74460517  0.17566838  1
  Li  Li27  1  0.67377464  0.63108938  0.18903245  1
  Li  Li28  1  0.73327858  0.05134404  0.18902063  1
  Li  Li29  1  0.23183929  0.55022536  0.19034139  1
  Li  Li30  1  0.31997050  0.99235935  0.19003271  1
  Li  Li31  1  0.42710633  0.49491248  0.20338734  1
  Li  Li32  1  0.54807688  0.10332707  0.20399854  1
  Li  Li33  1  0.46979801  0.28269956  0.21436793  1
  Li  Li34  1  0.84145530  0.07335626  0.23081314  1
  Li  Li35  1  0.61947697  0.51734303  0.23232137  1
  Li  Li36  1  0.11961183  0.51771410  0.23380400  1
  Li  Li37  1  0.34066258  0.07301353  0.23504044  1
  Li  Li38  1  0.97021958  0.28270738  0.25170414  1
  Li  Li39  1  0.04923549  0.10326752  0.26187839  1
  Li  Li40  1  0.92873924  0.49413244  0.26240377  1
  Li  Li41  1  0.82081990  0.99282778  0.27569637  1
  Li  Li42  1  0.73166263  0.55025908  0.27571555  1
  Li  Li43  1  0.23377827  0.05072434  0.27694066  1
  Li  Li44  1  0.17582462  0.63492390  0.27676737  1
  Li  Li45  1  0.67753862  0.74588054  0.29007792  1
  Li  Li46  1  0.28722469  0.86335599  0.29017952  1
  Li  Li47  1  0.46620740  0.78565818  0.30044007  1
  Li  Li48  1  0.26347374  0.16621044  0.32012988  1
  Li  Li49  1  0.70199918  0.93329927  0.31882757  1
  Li  Li50  1  0.70766248  0.44259671  0.31754847  1
  Li  Li51  1  0.25579771  0.65692019  0.32160041  1
  Li  Li52  1  0.49777909  0.31443347  0.33717309  1
  Li  Li53  1  0.28442754  0.35330981  0.34947681  1
  Li  Li54  1  0.67672622  0.23816443  0.34924559  1
  Li  Li55  1  0.14833151  0.11508401  0.36445446  1
  Li  Li56  1  0.23349885  0.55031583  0.36287068  1
  Li  Li57  1  0.73384668  0.05163408  0.36146567  1
  Li  Li58  1  0.78284019  0.46164922  0.36273318  1
  Li  Li59  1  0.91741374  0.99907389  0.37695783  1
  Li  Li60  1  0.04163200  0.59895011  0.37668926  1
  Li  Li61  1  0.00002418  0.82311001  0.38516047  1
  Li  Li62  1  0.34416597  0.58292227  0.40671582  1
  Li  Li63  1  0.11896521  0.03086954  0.40822448  1
  Li  Li64  1  0.63303885  0.03497181  0.40151307  1
  Li  Li65  1  0.85761577  0.58926663  0.40103989  1
  Li  Li66  1  0.51176524  0.83783205  0.42173850  1
  Li  Li67  1  0.53587031  0.60574069  0.43625050  1
  Li  Li68  1  0.43718030  0.00810831  0.43711615  1
  Li  Li69  1  0.32272567  0.51188053  0.45525404  1
  Li  Li70  1  0.23676112  0.03296562  0.44699047  1
  Li  Li71  1  0.75859675  0.55316058  0.44545615  1
  Li  Li72  1  0.64303563  0.05430252  0.44830619  1
  Li  Li73  1  0.16770358  0.19251905  0.45647863  1
  Li  Li74  1  0.78898194  0.24873639  0.47386564  1
  Li  Li75  1  0.13102125  0.35272759  0.47548917  1
  Li  Li76  1  0.63027169  0.35422365  0.99014992  1
  Li  Li77  1  0.28944217  0.24847560  0.99207252  1
  Li  Li78  1  0.66810982  0.19345028  0.00967108  1
  Li  Li79  1  0.14221051  0.05546993  0.01750302  1
  Li  Li80  1  0.89212911  0.32210984  0.52049927  1
  Li  Li81  1  0.41255732  0.84193116  0.51904108  1
  Li  Li82  1  0.32609248  0.36347813  0.51049233  1
  Li  Li83  1  0.21232029  0.86676463  0.52901931  1
  Li  Li84  1  0.11362941  0.26805541  0.52975288  1
  Li  Li85  1  0.13875574  0.03727330  0.54414546  1
  Li  Li86  1  0.79294881  0.28513891  0.56461126  1
  Li  Li87  1  0.01677400  0.83845379  0.56437107  1
  Li  Li88  1  0.53189979  0.84348808  0.55784148  1
  Li  Li89  1  0.30720874  0.29230199  0.55908690  1
  Li  Li90  1  0.65034749  0.05141061  0.58068746  1
  Li  Li91  1  0.60986815  0.27506032  0.58916977  1
  Li  Li92  1  0.73271665  0.87558479  0.58898640  1
  Li  Li93  1  0.86541449  0.41113072  0.60331070  1
  Li  Li94  1  0.91677853  0.82365073  0.60438834  1
  Li  Li95  1  0.41734060  0.32494081  0.60280328  1
  Li  Li96  1  0.50045370  0.75994992  0.60146264  1
  Li  Li97  1  0.97313719  0.63619489  0.61662708  1
  Li  Li98  1  0.36463872  0.51980011  0.61646031  1
  Li  Li99  1  0.15143475  0.55978164  0.62867515  1
  Li  Li100  1  0.39441059  0.21904694  0.64422016  1
  Li  Li101  1  0.94193020  0.43211034  0.64856871  1
  Li  Li102  1  0.94847612  0.94181465  0.64686170  1
  Li  Li103  1  0.38678835  0.70859503  0.64591534  1
  Li  Li104  1  0.18406763  0.09006702  0.66534919  1
  Li  Li105  1  0.36130901  0.01022193  0.67570831  1
  Li  Li106  1  0.97103455  0.13005689  0.67583735  1
  Li  Li107  1  0.47272131  0.24008250  0.68896920  1
  Li  Li108  1  0.41676528  0.82451938  0.68897966  1
  Li  Li109  1  0.91780132  0.32601644  0.69034138  1
  Li  Li110  1  0.82764894  0.88110925  0.69022970  1
  Li  Li111  1  0.71951150  0.38001978  0.70338010  1
  Li  Li112  1  0.60009244  0.77140812  0.70413751  1
  Li  Li113  1  0.68026075  0.59351345  0.71401367  1
  Li  Li114  1  0.30870839  0.80174262  0.73055846  1
  Li  Li115  1  0.52941456  0.35730554  0.73207136  1
  Li  Li116  1  0.02963217  0.35712386  0.73366452  1
  Li  Li117  1  0.80859751  0.80163407  0.73517775  1
  Li  Li118  1  0.18133450  0.59325721  0.75158965  1
  Li  Li119  1  0.10169035  0.77173791  0.76161664  1
  Li  Li120  1  0.22006515  0.38051447  0.76230128  1
  Li  Li121  1  0.32833969  0.88114376  0.77558145  1
  Li  Li122  1  0.41731906  0.32522285  0.77554533  1
  Li  Li123  1  0.91739146  0.82493838  0.77691166  1
  Li  Li124  1  0.97156008  0.24018485  0.77686085  1
  Li  Li125  1  0.47051160  0.12957012  0.79007130  1
  Li  Li126  1  0.86270050  0.01087446  0.79000411  1
  Li  Li127  1  0.68558286  0.09121438  0.80029161  1
  Li  Li128  1  0.88675889  0.70856852  0.81998519  1
  Li  Li129  1  0.44868283  0.94203452  0.81855588  1
  Li  Li130  1  0.44217786  0.43261506  0.81727452  1
  Li  Li131  1  0.89451980  0.21881483  0.82158602  1
  Li  Li132  1  0.65205849  0.56080063  0.83710098  1
  Li  Li133  1  0.86496392  0.52115291  0.84914897  1
  Li  Li134  1  0.47300340  0.63769178  0.84928460  1
  Li  Li135  1  0.00121246  0.75996942  0.86427046  1
  Li  Li136  1  0.91752418  0.32520485  0.86270331  1
  Li  Li137  1  0.41667670  0.82419755  0.86108912  1
  Li  Li138  1  0.36694566  0.41352899  0.86244525  1
  Li  Li139  1  0.23301246  0.87519823  0.87687160  1
  Li  Li140  1  0.10968713  0.27557191  0.87664648  1
  Li  Li141  1  0.14866679  0.04967731  0.88505586  1
  Li  Li142  1  0.80878004  0.29317766  0.90623544  1
  Li  Li143  1  0.03158046  0.84342950  0.90802993  1
  Li  Li144  1  0.51595578  0.83842384  0.90110192  1
  Li  Li145  1  0.29207860  0.28390444  0.90093196  1
  Li  Li146  1  0.63793971  0.03625405  0.92165112  1
  Li  Li147  1  0.61479501  0.26898934  0.93578615  1
  Li  Li148  1  0.71476462  0.86797129  0.93667316  1
  Li  Li149  1  0.82788729  0.36413270  0.95511940  1
  Li  Li150  1  0.91434776  0.84257606  0.94720057  1
  Li  Li151  1  0.39204967  0.32227992  0.94545028  1
  Li  Li152  1  0.50809824  0.82037426  0.94779513  1
  Li  Li153  1  0.98260694  0.68178856  0.95598203  1
  Li  Li154  1  0.36177601  0.62717750  0.97356354  1
  Li  Li155  1  0.01931293  0.52134881  0.97539239  1
  Li  Li156  1  0.51761420  0.52120776  0.49064093  1
  Li  Li157  1  0.86037959  0.62564873  0.49215795  1
  Li  Li158  1  0.48255969  0.68298244  0.50960142  1
  Li  Li159  1  0.00671425  0.81896363  0.51773319  1
  La  La160  1  0.81090813  0.75917451  0.00132589  1
  La  La161  1  0.16780681  0.83295988  0.99643053  1
  La  La162  1  0.47593340  0.80393970  0.01970008  1
  La  La163  1  0.97738694  0.29480741  0.01941764  1
  La  La164  1  0.53784372  0.49511821  0.03103120  1
  La  La165  1  0.40960301  0.11750420  0.03686608  1
  La  La166  1  0.91720401  0.11498372  0.08296782  1
  La  La167  1  0.04083312  0.48756623  0.08193124  1
  La  La168  1  0.98024542  0.80156224  0.10396788  1
  La  La169  1  0.48121431  0.30423002  0.10202118  1
  La  La170  1  0.66861710  0.86621729  0.12527124  1
  La  La171  1  0.29612231  0.73328578  0.12492707  1
  La  La172  1  0.29732800  0.23674031  0.16799139  1
  La  La173  1  0.66772505  0.36422723  0.16859108  1
  La  La174  1  0.98325739  0.29947710  0.18995560  1
  La  La175  1  0.48318472  0.79923409  0.18972665  1
  La  La176  1  0.04962894  0.98443660  0.21050767  1
  La  La177  1  0.92019449  0.61167213  0.21128489  1
  La  La178  1  0.42018484  0.61169737  0.25458456  1
  La  La179  1  0.54962765  0.98443628  0.25534890  1
  La  La180  1  0.48319622  0.29932151  0.27588957  1
  La  La181  1  0.98277773  0.79911726  0.27610330  1
  La  La182  1  0.16765215  0.36467323  0.29732182  1
  La  La183  1  0.79723547  0.23655259  0.29785641  1
  La  La184  1  0.79615725  0.73302183  0.34089255  1
  La  La185  1  0.16851454  0.86640900  0.34059521  1
  La  La186  1  0.48030654  0.80134061  0.36192387  1
  La  La187  1  0.98084763  0.30388455  0.36385652  1
  La  La188  1  0.54063970  0.48713468  0.38396217  1
  La  La189  1  0.41764111  0.11461410  0.38291264  1
  La  La190  1  0.90971347  0.11710118  0.42895369  1
  La  La191  1  0.03732498  0.49458419  0.43480770  1
  La  La192  1  0.97598427  0.80340992  0.44610815  1
  La  La193  1  0.47707765  0.29477417  0.44649053  1
  La  La194  1  0.66806840  0.83278891  0.46944328  1
  La  La195  1  0.31101613  0.75901053  0.46451937  1
  La  La196  1  0.33871468  0.11567284  0.50144644  1
  La  La197  1  0.98159348  0.04104366  0.49650437  1
  La  La198  1  0.67426849  0.07108107  0.51975494  1
  La  La199  1  0.17280374  0.58006398  0.51944890  1
  La  La200  1  0.61247968  0.37995605  0.53111871  1
  La  La201  1  0.74035979  0.75739560  0.53696034  1
  La  La202  1  0.23249214  0.75992353  0.58298666  1
  La  La203  1  0.10928282  0.38749663  0.58192565  1
  La  La204  1  0.17017782  0.07369931  0.60391275  1
  La  La205  1  0.66898575  0.57099690  0.60207484  1
  La  La206  1  0.48148090  0.00853800  0.62531677  1
  La  La207  1  0.85385759  0.14161036  0.62499791  1
  La  La208  1  0.85276960  0.63862649  0.66795549  1
  La  La209  1  0.48214604  0.51040337  0.66854789  1
  La  La210  1  0.16673672  0.57579935  0.68997312  1
  La  La211  1  0.66684996  0.07588195  0.68972101  1
  La  La212  1  0.09997122  0.89082780  0.71039928  1
  La  La213  1  0.22920142  0.26340051  0.71126774  1
  La  La214  1  0.72909172  0.26365532  0.75444504  1
  La  La215  1  0.60006825  0.89101086  0.75532750  1
  La  La216  1  0.66681020  0.57588769  0.77575645  1
  La  La217  1  0.16679426  0.07609555  0.77603432  1
  La  La218  1  0.98251667  0.51080246  0.79711958  1
  La  La219  1  0.35281495  0.63856989  0.79780256  1
  La  La220  1  0.35392423  0.14193584  0.84084625  1
  La  La221  1  0.98153876  0.00878520  0.84045818  1
  La  La222  1  0.67011360  0.07396080  0.86181895  1
  La  La223  1  0.16913929  0.57112542  0.86372082  1
  La  La224  1  0.60967808  0.38785341  0.88381045  1
  La  La225  1  0.73260158  0.76049748  0.88274117  1
  La  La226  1  0.24082768  0.75782110  0.92891209  1
  La  La227  1  0.11321711  0.38023763  0.93468368  1
  La  La228  1  0.17459012  0.07132238  0.94601658  1
  La  La229  1  0.67339339  0.58076433  0.94633387  1
  La  La230  1  0.48244793  0.04198888  0.96932322  1
  La  La231  1  0.83929311  0.11644149  0.96443178  1
  Zr  Zr232  1  0.72786818  0.79872939  0.06178932  1
  Zr  Zr233  1  0.23362297  0.30454587  0.05824723  1
  Zr  Zr234  1  0.72486732  0.31045630  0.05840952  1
  Zr  Zr235  1  0.23011448  0.79957813  0.06181482  1
  Zr  Zr236  1  0.98420214  0.05156403  0.14672890  1
  Zr  Zr237  1  0.48231214  0.55012777  0.14606872  1
  Zr  Zr238  1  0.48299621  0.05118469  0.14603778  1
  Zr  Zr239  1  0.98103925  0.54910021  0.14663172  1
  Zr  Zr240  1  0.23356522  0.29947071  0.23281779  1
  Zr  Zr241  1  0.73393744  0.79864798  0.23272316  1
  Zr  Zr242  1  0.23395732  0.79879317  0.23302906  1
  Zr  Zr243  1  0.73367064  0.29958435  0.23307944  1
  Zr  Zr244  1  0.48094662  0.54903709  0.31923329  1
  Zr  Zr245  1  0.98298129  0.05112327  0.31980097  1
  Zr  Zr246  1  0.98218532  0.55013224  0.31982588  1
  Zr  Zr247  1  0.48421545  0.05150544  0.31915295  1
  Zr  Zr248  1  0.73013815  0.79893272  0.40399892  1
  Zr  Zr249  1  0.22460755  0.30981331  0.40755371  1
  Zr  Zr250  1  0.73335791  0.30377179  0.40767145  1
  Zr  Zr251  1  0.22830820  0.79811719  0.40404062  1
  Zr  Zr252  1  0.42218683  0.07625060  0.56183986  1
  Zr  Zr253  1  0.91641201  0.57039953  0.55833689  1
  Zr  Zr254  1  0.42536903  0.56490332  0.55836040  1
  Zr  Zr255  1  0.91987036  0.07535991  0.56194611  1
  Zr  Zr256  1  0.16586471  0.82328347  0.64664932  1
  Zr  Zr257  1  0.66756613  0.32476653  0.64611828  1
  Zr  Zr258  1  0.66699230  0.82380720  0.64605075  1
  Zr  Zr259  1  0.16857716  0.32585548  0.64667200  1
  Zr  Zr260  1  0.91609752  0.57565324  0.73268277  1
  Zr  Zr261  1  0.41571077  0.07623120  0.73274672  1
  Zr  Zr262  1  0.91575880  0.07637278  0.73306328  1
  Zr  Zr263  1  0.41613798  0.57547845  0.73305599  1
  Zr  Zr264  1  0.66890195  0.32616854  0.81906272  1
  Zr  Zr265  1  0.16723350  0.82416950  0.81972499  1
  Zr  Zr266  1  0.16776945  0.32496860  0.81967781  1
  Zr  Zr267  1  0.66602947  0.82362800  0.81901565  1
  Zr  Zr268  1  0.42022224  0.07569406  0.90383536  1
  Zr  Zr269  1  0.92565397  0.56513698  0.90735647  1
  Zr  Zr270  1  0.41683159  0.57060781  0.90747932  1
  Zr  Zr271  1  0.92212935  0.07681976  0.90396294  1
  O  O272  1  0.70551533  0.86980948  0.02671277  1
  O  O273  1  0.23631319  0.70843018  0.02744535  1
  O  O274  1  0.34187435  0.29592892  0.02692632  1
  O  O275  1  0.61303599  0.31242624  0.02588418  1
  O  O276  1  0.20192374  0.94643203  0.04178200  1
  O  O277  1  0.75272684  0.65288182  0.04023641  1
  O  O278  1  0.07225043  0.15455185  0.04467622  1
  O  O279  1  0.16027302  0.43419121  0.04267398  1
  O  O280  1  0.77576628  0.17002410  0.04108743  1
  O  O281  1  0.88945250  0.44906404  0.04135070  1
  O  O282  1  0.52979503  0.69526840  0.05866624  1
  O  O283  1  0.42495228  0.90642443  0.05814961  1
  O  O284  1  0.92538458  0.91219571  0.06574038  1
  O  O285  1  0.02931088  0.69592306  0.06302699  1
  O  O286  1  0.39241769  0.44401004  0.07507050  1
  O  O287  1  0.29618358  0.16933174  0.07608552  1
  O  O288  1  0.66268144  0.43723792  0.07631609  1
  O  O289  1  0.56117401  0.16281412  0.07394278  1
  O  O290  1  0.25451787  0.65199150  0.08299301  1
  O  O291  1  0.69179009  0.94756817  0.08118815  1
  O  O292  1  0.11710035  0.31248688  0.09012123  1
  O  O293  1  0.84486821  0.29561765  0.08793511  1
  O  O294  1  0.74291639  0.72188445  0.09653821  1
  O  O295  1  0.21719153  0.88059519  0.09636053  1
  O  O296  1  0.06473997  0.04383861  0.11141782  1
  O  O297  1  0.90267918  0.56351637  0.11149613  1
  O  O298  1  0.47571612  0.66843316  0.11612456  1
  O  O299  1  0.48964052  0.93756816  0.11512515  1
  O  O300  1  0.12046044  0.50859949  0.12576832  1
  O  O301  1  0.84192322  0.08491465  0.12511029  1
  O  O302  1  0.33800744  0.38732498  0.13073426  1
  O  O303  1  0.61769859  0.48571341  0.13023430  1
  O  O304  1  0.34968382  0.11951976  0.13046784  1
  O  O305  1  0.62639159  0.21238478  0.13025427  1
  O  O306  1  0.87528898  0.85370629  0.14306830  1
  O  O307  1  0.08911603  0.74658892  0.14383222  1
  O  O308  1  0.09211311  0.24894076  0.15023814  1
  O  O309  1  0.87339882  0.35125380  0.14952418  1
  O  O310  1  0.62581208  0.71441410  0.16178966  1
  O  O311  1  0.34632466  0.61490431  0.16265337  1
  O  O312  1  0.61724949  0.98260466  0.16217018  1
  O  O313  1  0.34014225  0.88742285  0.16218711  1
  O  O314  1  0.83914229  0.58705128  0.16748424  1
  O  O315  1  0.12730411  0.01848527  0.16773074  1
  O  O316  1  0.48956317  0.43219928  0.17645060  1
  O  O317  1  0.47512208  0.16209812  0.17750938  1
  O  O318  1  0.90231498  0.06109390  0.18143599  1
  O  O319  1  0.06092552  0.53532697  0.18158180  1
  O  O320  1  0.22055468  0.37978375  0.19801119  1
  O  O321  1  0.74518737  0.21851574  0.19817450  1
  O  O322  1  0.84722909  0.78960308  0.20162990  1
  O  O323  1  0.11590050  0.80451919  0.20296637  1
  O  O324  1  0.70326129  0.44249131  0.21146946  1
  O  O325  1  0.27307829  0.15767976  0.21190814  1
  O  O326  1  0.57134948  0.65520420  0.21686579  1
  O  O327  1  0.66900182  0.93464400  0.21643614  1
  O  O328  1  0.30167459  0.66541200  0.21704477  1
  O  O329  1  0.39817196  0.94205057  0.21784591  1
  O  O330  1  0.03660550  0.18939840  0.22919078  1
  O  O331  1  0.93282319  0.40557777  0.23002200  1
  O  O332  1  0.43251044  0.40570853  0.23588033  1
  O  O333  1  0.53650422  0.18944257  0.23670726  1
  O  O334  1  0.89827815  0.94195196  0.24793060  1
  O  O335  1  0.80144040  0.66549931  0.24886785  1
  O  O336  1  0.16884265  0.93453565  0.24939142  1
  O  O337  1  0.07146426  0.65526938  0.24899078  1
  O  O338  1  0.77306474  0.15763195  0.25395356  1
  O  O339  1  0.20314743  0.44219389  0.25448211  1
  O  O340  1  0.61546929  0.80469946  0.26275390  1
  O  O341  1  0.34650168  0.78920327  0.26421926  1
  O  O342  1  0.24531205  0.21793111  0.26765038  1
  O  O343  1  0.72052250  0.37986858  0.26783140  1
  O  O344  1  0.56041660  0.53518773  0.28425216  1
  O  O345  1  0.40243733  0.06049525  0.28440705  1
  O  O346  1  0.97525157  0.16203919  0.28829325  1
  O  O347  1  0.98899016  0.43140076  0.28953065  1
  O  O348  1  0.62726558  0.01856345  0.29810529  1
  O  O349  1  0.33916745  0.58753586  0.29845773  1
  O  O350  1  0.84007513  0.88752320  0.30359077  1
  O  O351  1  0.11717249  0.98252188  0.30367723  1
  O  O352  1  0.84603960  0.61476815  0.30333837  1
  O  O353  1  0.12562907  0.71456036  0.30410006  1
  O  O354  1  0.37304132  0.35131219  0.31635038  1
  O  O355  1  0.59210660  0.24917485  0.31554237  1
  O  O356  1  0.58907151  0.74667699  0.32200919  1
  O  O357  1  0.37512795  0.85376824  0.32283294  1
  O  O358  1  0.12623160  0.21249578  0.33563994  1
  O  O359  1  0.84982317  0.11972724  0.33535446  1
  O  O360  1  0.11756265  0.48582797  0.33567819  1
  O  O361  1  0.83779271  0.38736012  0.33519921  1
  O  O362  1  0.34206599  0.08522788  0.34074310  1
  O  O363  1  0.62022604  0.50838238  0.34011437  1
  O  O364  1  0.98937431  0.93725695  0.35068297  1
  O  O365  1  0.97602350  0.66852042  0.34977944  1
  O  O366  1  0.40301815  0.56349648  0.35441086  1
  O  O367  1  0.56509321  0.04384122  0.35437576  1
  O  O368  1  0.71701730  0.88012475  0.36951929  1
  O  O369  1  0.24281639  0.72124661  0.36928200  1
  O  O370  1  0.34436949  0.29469032  0.37795209  1
  O  O371  1  0.61738579  0.31229092  0.37569919  1
  O  O372  1  0.19228333  0.94711243  0.38464250  1
  O  O373  1  0.75467539  0.65136481  0.38288485  1
  O  O374  1  0.06109451  0.16209423  0.39197578  1
  O  O375  1  0.16291325  0.43659056  0.38947306  1
  O  O376  1  0.79612199  0.16865154  0.38986493  1
  O  O377  1  0.89252414  0.44314960  0.39083682  1
  O  O378  1  0.52935436  0.69522887  0.40286401  1
  O  O379  1  0.42600151  0.91122472  0.40004196  1
  O  O380  1  0.92505737  0.90551947  0.40769661  1
  O  O381  1  0.03037847  0.69454076  0.40712590  1
  O  O382  1  0.38903231  0.44862114  0.42463411  1
  O  O383  1  0.27593325  0.16952215  0.42476269  1
  O  O384  1  0.65931607  0.43336268  0.42314570  1
  O  O385  1  0.57190589  0.15387760  0.42117106  1
  O  O386  1  0.25278118  0.65227368  0.42564798  1
  O  O387  1  0.70193662  0.94575217  0.42412008  1
  O  O388  1  0.11250126  0.31119996  0.43996931  1
  O  O389  1  0.84171917  0.29547213  0.43894738  1
  O  O390  1  0.73549906  0.70832064  0.43844198  1
  O  O391  1  0.20568832  0.86948909  0.43910237  1
  O  O392  1  0.04125840  0.03022923  0.45401895  1
  O  O393  1  0.92342628  0.59217039  0.45927796  1
  O  O394  1  0.47697610  0.63696483  0.47095067  1
  O  O395  1  0.50601198  0.90007159  0.45489534  1
  O  O396  1  0.17670789  0.52538042  0.47656587  1
  O  O397  1  0.78181193  0.06842769  0.47476484  1
  O  O398  1  0.39497253  0.09697103  0.46285226  1
  O  O399  1  0.89529470  0.09701220  0.00307195  1
  O  O400  1  0.28221944  0.06891421  0.99112145  1
  O  O401  1  0.67684117  0.52658383  0.98930216  1
  O  O402  1  0.00601372  0.90022454  0.01099511  1
  O  O403  1  0.97748607  0.63684325  0.99492655  1
  O  O404  1  0.42462347  0.59315874  0.00636867  1
  O  O405  1  0.54153532  0.03106030  0.01182391  1
  O  O406  1  0.44484771  0.00563654  0.52670716  1
  O  O407  1  0.91459610  0.16614772  0.52752636  1
  O  O408  1  0.80816263  0.57882120  0.52702821  1
  O  O409  1  0.53748364  0.56356978  0.52594674  1
  O  O410  1  0.94812521  0.92848204  0.54189999  1
  O  O411  1  0.39763228  0.22210935  0.54029602  1
  O  O412  1  0.07757557  0.72052676  0.54471624  1
  O  O413  1  0.99081577  0.44119555  0.54284914  1
  O  O414  1  0.37394215  0.70520471  0.54116370  1
  O  O415  1  0.26110721  0.42596759  0.54122952  1
  O  O416  1  0.62005068  0.17955913  0.55880583  1
  O  O417  1  0.72500793  0.96853498  0.55820929  1
  O  O418  1  0.22457660  0.96304631  0.56571484  1
  O  O419  1  0.12079571  0.17924080  0.56307447  1
  O  O420  1  0.75754276  0.43083703  0.57507414  1
  O  O421  1  0.85387205  0.70567732  0.57613260  1
  O  O422  1  0.48734108  0.43799709  0.57628498  1
  O  O423  1  0.58886359  0.71240513  0.57398309  1
  O  O424  1  0.89525911  0.22315128  0.58300117  1
  O  O425  1  0.45800009  0.92728103  0.58124379  1
  O  O426  1  0.03311057  0.56260506  0.59020127  1
  O  O427  1  0.30578652  0.57974748  0.58795187  1
  O  O428  1  0.40727257  0.15336405  0.59656858  1
  O  O429  1  0.93286056  0.99479670  0.59649237  1
  O  O430  1  0.08540559  0.83130923  0.61139335  1
  O  O431  1  0.24738623  0.31206814  0.61151760  1
  O  O432  1  0.67447892  0.20659250  0.61618317  1
  O  O433  1  0.66048186  0.93757636  0.61519489  1
  O  O434  1  0.02918167  0.36631648  0.62580670  1
  O  O435  1  0.30828817  0.78958385  0.62513311  1
  O  O436  1  0.81193594  0.48750887  0.63073470  1
  O  O437  1  0.53208298  0.38895234  0.63020200  1
  O  O438  1  0.80036032  0.75531858  0.63051297  1
  O  O439  1  0.52374724  0.66223669  0.63026332  1
  O  O440  1  0.27477047  0.02115219  0.64297968  1
  O  O441  1  0.06082847  0.12846374  0.64386185  1
  O  O442  1  0.05780847  0.62587761  0.65025656  1
  O  O443  1  0.27663899  0.52354958  0.64956553  1
  O  O444  1  0.52413208  0.16042469  0.66176419  1
  O  O445  1  0.80368548  0.26019732  0.66266636  1
  O  O446  1  0.53278525  0.89241709  0.66217404  1
  O  O447  1  0.80980230  0.98729411  0.66227116  1
  O  O448  1  0.31037941  0.28731171  0.66745151  1
  O  O449  1  0.02302906  0.85644513  0.66764810  1
  O  O450  1  0.66055299  0.44374930  0.67630561  1
  O  O451  1  0.67448305  0.71315303  0.67763247  1
  O  O452  1  0.24780026  0.81453488  0.68141488  1
  O  O453  1  0.08894738  0.33979109  0.68163972  1
  O  O454  1  0.92923322  0.49589352  0.69785904  1
  O  O455  1  0.40442603  0.65734562  0.69824076  1
  O  O456  1  0.30306847  0.08575315  0.70156993  1
  O  O457  1  0.03409315  0.07064770  0.70305816  1
  O  O458  1  0.44600513  0.43268215  0.71135107  1
  O  O459  1  0.87684754  0.71796259  0.71183722  1
  O  O460  1  0.57807508  0.21983812  0.71675918  1
  O  O461  1  0.48099970  0.94050481  0.71644665  1
  O  O462  1  0.84817390  0.20957609  0.71698941  1
  O  O463  1  0.75128768  0.93306338  0.71795661  1
  O  O464  1  0.11327568  0.68554710  0.72904418  1
  O  O465  1  0.21698172  0.46938021  0.72998584  1
  O  O466  1  0.71692334  0.46982741  0.73568347  1
  O  O467  1  0.61313700  0.68560305  0.73666692  1
  O  O468  1  0.25139213  0.93291982  0.74784028  1
  O  O469  1  0.34813516  0.20956006  0.74879549  1
  O  O470  1  0.98104675  0.94086551  0.74942829  1
  O  O471  1  0.07782243  0.22001666  0.74900371  1
  O  O472  1  0.37640131  0.71752168  0.75387945  1
  O  O473  1  0.94579819  0.43261777  0.75429291  1
  O  O474  1  0.53401977  0.07070359  0.76275435  1
  O  O475  1  0.80293327  0.08596208  0.76423897  1
  O  O476  1  0.90476337  0.65746356  0.76750714  1
  O  O477  1  0.42925033  0.49539420  0.76777928  1
  O  O478  1  0.58942842  0.34019537  0.78407455  1
  O  O479  1  0.74804249  0.81469614  0.78431462  1
  O  O480  1  0.17477979  0.71341910  0.78817225  1
  O  O481  1  0.16093671  0.44402476  0.78942765  1
  O  O482  1  0.52277630  0.85608914  0.79798351  1
  O  O483  1  0.81099607  0.28766740  0.79828696  1
  O  O484  1  0.30996161  0.98753946  0.80349680  1
  O  O485  1  0.03306386  0.89302597  0.80364700  1
  O  O486  1  0.30386054  0.26022206  0.80318664  1
  O  O487  1  0.02418288  0.16076895  0.80400697  1
  O  O488  1  0.77691558  0.52396045  0.81616734  1
  O  O489  1  0.55796262  0.62617286  0.81544868  1
  O  O490  1  0.56126242  0.12872070  0.82186837  1
  O  O491  1  0.77500549  0.02143174  0.82273003  1
  O  O492  1  0.02388964  0.66261007  0.83549155  1
  O  O493  1  0.30039176  0.75539465  0.83518227  1
  O  O494  1  0.03255328  0.38937792  0.83551248  1
  O  O495  1  0.31215115  0.48787522  0.83503950  1
  O  O496  1  0.80812615  0.78982085  0.84059630  1
  O  O497  1  0.52970036  0.36674083  0.83993431  1
  O  O498  1  0.16074464  0.93771195  0.85063388  1
  O  O499  1  0.17428991  0.20662349  0.84961071  1
  O  O500  1  0.74767157  0.31227973  0.85419523  1
  O  O501  1  0.58532975  0.83166349  0.85428447  1
  O  O502  1  0.43307814  0.99482515  0.86932700  1
  O  O503  1  0.90751318  0.15394252  0.86919177  1
  O  O504  1  0.80624228  0.58057912  0.87778548  1
  O  O505  1  0.53304361  0.56266273  0.87552630  1
  O  O506  1  0.95799516  0.92754797  0.88452676  1
  O  O507  1  0.39591914  0.22339922  0.88276270  1
  O  O508  1  0.08913929  0.71257102  0.89178130  1
  O  O509  1  0.98721889  0.43792872  0.88941053  1
  O  O510  1  0.35400325  0.70568811  0.88954102  1
  O  O511  1  0.25777793  0.43108207  0.89073815  1
  O  O512  1  0.62108108  0.17949010  0.90259985  1
  O  O513  1  0.72475397  0.96355268  0.89996873  1
  O  O514  1  0.22527671  0.96871893  0.90758976  1
  O  O515  1  0.12000115  0.17948185  0.90698517  1
  O  O516  1  0.76149427  0.42633019  0.92434973  1
  O  O517  1  0.87497942  0.70546141  0.92479999  1
  O  O518  1  0.49122324  0.44162610  0.92300680  1
  O  O519  1  0.57825685  0.72104930  0.92095936  1
  O  O520  1  0.89812337  0.22289944  0.92552588  1
  O  O521  1  0.44856971  0.92869631  0.92383680  1
  O  O522  1  0.03785089  0.56298464  0.93981443  1
  O  O523  1  0.30866009  0.57929797  0.93874574  1
  O  O524  1  0.41471397  0.16627036  0.93827133  1
  O  O525  1  0.94459563  0.00567637  0.93906421  1
  O  O526  1  0.10893556  0.84435513  0.95394017  1
  O  O527  1  0.22724820  0.28256758  0.95918671  1
  O  O528  1  0.67295576  0.23850501  0.97075682  1
  O  O529  1  0.64440200  0.97499513  0.95474465  1
  O  O530  1  0.97381115  0.34900715  0.97648876  1
  O  O531  1  0.36766959  0.80633328  0.97441491  1
  O  O532  1  0.75504049  0.77843274  0.96270977  1
  O  O533  1  0.25464043  0.77802100  0.50311600  1
  O  O534  1  0.86739736  0.80551356  0.49124856  1
  O  O535  1  0.47266451  0.34889310  0.48943178  1
  O  O536  1  0.14351373  0.97424798  0.51100190  1
  O  O537  1  0.17226287  0.23730731  0.49499369  1
  O  O538  1  0.72703576  0.28260934  0.50668197  1
  O  O539  1  0.60909667  0.84438965  0.51191115  1
