# generated using pymatgen
data_Li7La3Zr2O12
_symmetry_space_group_name_H-M   'P 1'
_cell_length_a   11.29297700
_cell_length_b   11.29297737
_cell_length_c   58.35335457
_cell_angle_alpha   90.00000000
_cell_angle_beta   90.00000000
_cell_angle_gamma   111.54263211
_symmetry_Int_Tables_number   1
_chemical_formula_structural   Li7La3Zr2O12
_chemical_formula_sum   'Li168 La72 Zr48 O288'
_cell_volume   6922.02560490
_cell_formula_units_Z   24
loop_
 _symmetry_equiv_pos_site_id
 _symmetry_equiv_pos_as_xyz
  1  'x, y, z'
loop_
 _atom_site_type_symbol
 _atom_site_label
 _atom_site_symmetry_multiplicity
 _atom_site_fract_x
 _atom_site_fract_y
 _atom_site_fract_z
 _atom_site_occupancy
  Li  Li0  1  0.65180634  0.84153088  0.98045573  1
  Li  Li1  1  0.73009952  0.48445519  0.00041533  1
  Li  Li2  1  0.37025833  0.46395753  0.01415830  1
  Li  Li3  1  0.55106712  0.43604838  0.02864370  1
  Li  Li4  1  0.49877718  0.78849072  0.01623813  1
  Li  Li5  1  0.24572420  0.26641587  0.02989363  1
  Li  Li6  1  0.19195645  0.87913356  0.02404082  1
  Li  Li7  1  0.71863937  0.39098130  0.03625139  1
  Li  Li8  1  0.64184355  0.00291626  0.02357907  1
  Li  Li9  1  0.14186916  0.07127771  0.04770223  1
  Li  Li10  1  0.76360656  0.19479305  0.04630655  1
  Li  Li11  1  0.96454773  0.14080204  0.05936460  1
  Li  Li12  1  0.71484456  0.49947989  0.07268766  1
  Li  Li13  1  0.17879931  0.28035285  0.07521841  1
  Li  Li14  1  0.18073085  0.82701551  0.06252670  1
  Li  Li15  1  0.72935927  0.00396640  0.07158477  1
  Li  Li16  1  0.90920039  0.61230887  0.09338945  1
  Li  Li17  1  0.74803441  0.70689140  0.10123560  1
  Li  Li18  1  0.14126456  0.68347188  0.09630950  1
  Li  Li19  1  0.63624656  0.46913447  0.11295365  1
  Li  Li20  1  0.70578873  0.89561863  0.11171023  1
  Li  Li21  1  0.19571083  0.39876467  0.11432832  1
  Li  Li22  1  0.31109551  0.85595468  0.11330174  1
  Li  Li23  1  0.39373117  0.33688916  0.12627492  1
  Li  Li24  1  0.52559465  0.94924244  0.12656921  1
  Li  Li25  1  0.44890325  0.13160848  0.13717076  1
  Li  Li26  1  0.80336083  0.91072042  0.15048302  1
  Li  Li27  1  0.58848428  0.35949605  0.15348675  1
  Li  Li28  1  0.08275898  0.35482582  0.15508235  1
  Li  Li29  1  0.31265237  0.91628965  0.15495918  1
  Li  Li30  1  0.93297263  0.11266705  0.17201227  1
  Li  Li31  1  0.01973673  0.94360979  0.18020240  1
  Li  Li32  1  0.89652832  0.33361846  0.18189368  1
  Li  Li33  1  0.78989810  0.83779496  0.19205675  1
  Li  Li34  1  0.70081193  0.39049146  0.19378149  1
  Li  Li35  1  0.20405815  0.89152004  0.19335616  1
  Li  Li36  1  0.15019484  0.48270888  0.19446877  1
  Li  Li37  1  0.64619069  0.58999566  0.20579987  1
  Li  Li38  1  0.25553924  0.70734692  0.20702058  1
  Li  Li39  1  0.43053133  0.62566260  0.21657638  1
  Li  Li40  1  0.22448359  0.99740827  0.23160437  1
  Li  Li41  1  0.67038859  0.77688535  0.23282691  1
  Li  Li42  1  0.67059026  0.27665336  0.23421789  1
  Li  Li43  1  0.22504778  0.49830370  0.23594071  1
  Li  Li44  1  0.43215155  0.12751390  0.25052013  1
  Li  Li45  1  0.25569722  0.20738831  0.26026175  1
  Li  Li46  1  0.64652173  0.08868205  0.26110437  1
  Li  Li47  1  0.15028878  0.98256307  0.27289374  1
  Li  Li48  1  0.20428605  0.39143985  0.27396258  1
  Li  Li49  1  0.70268330  0.89093513  0.27327462  1
  Li  Li50  1  0.78786636  0.33423268  0.27501336  1
  Li  Li51  1  0.89693864  0.83400105  0.28538152  1
  Li  Li52  1  0.01951648  0.44346510  0.28707505  1
  Li  Li53  1  0.93576836  0.61587979  0.29529656  1
  Li  Li54  1  0.31605176  0.41907910  0.31261404  1
  Li  Li55  1  0.08348005  0.85519428  0.31221557  1
  Li  Li56  1  0.59271000  0.86345434  0.31292601  1
  Li  Li57  1  0.80803007  0.41211368  0.31587381  1
  Li  Li58  1  0.46272651  0.64422440  0.33034620  1
  Li  Li59  1  0.52784698  0.44977657  0.34010300  1
  Li  Li60  1  0.39314798  0.83664905  0.34078808  1
  Li  Li61  1  0.31111762  0.35179619  0.35340733  1
  Li  Li62  1  0.19842799  0.89997240  0.35277313  1
  Li  Li63  1  0.70775147  0.39403977  0.35493309  1
  Li  Li64  1  0.63089241  0.96402716  0.35401090  1
  Li  Li65  1  0.14366051  0.18481376  0.37177053  1
  Li  Li66  1  0.74558362  0.20240151  0.36732596  1
  Li  Li67  1  0.91167929  0.11191156  0.37439330  1
  Li  Li68  1  0.73340809  0.50074831  0.39517301  1
  Li  Li69  1  0.18131965  0.33135338  0.40716520  1
  Li  Li70  1  0.18140247  0.77992601  0.39177503  1
  Li  Li71  1  0.71695612  0.00231036  0.39481516  1
  Li  Li72  1  0.96729673  0.63739332  0.40802620  1
  Li  Li73  1  0.76453682  0.68412613  0.42162905  1
  Li  Li74  1  0.14554903  0.57347641  0.41935544  1
  Li  Li75  1  0.63679870  0.47933218  0.44471490  1
  Li  Li76  1  0.71902899  0.88131487  0.43033911  1
  Li  Li77  1  0.17899148  0.37249203  0.44776494  1
  Li  Li78  1  0.25198697  0.76969994  0.43669828  1
  Li  Li79  1  0.40126946  0.32730511  0.44519622  1
  Li  Li80  1  0.54931484  0.92846779  0.43842790  1
  Li  Li81  1  0.37351924  0.96314836  0.45345329  1
  Li  Li82  1  0.73593868  0.97589619  0.46573920  1
  Li  Li83  1  0.65521265  0.33130006  0.48582611  1
  Li  Li84  1  0.49585039  0.80655361  0.48058761  1
  Li  Li85  1  0.41943984  0.16653509  0.50081269  1
  Li  Li86  1  0.78210627  0.18833095  0.51475683  1
  Li  Li87  1  0.60080561  0.21569257  0.52855777  1
  Li  Li88  1  0.65026661  0.85924502  0.51639562  1
  Li  Li89  1  0.90410460  0.38565775  0.53037161  1
  Li  Li90  1  0.95475711  0.76938259  0.52435166  1
  Li  Li91  1  0.43197756  0.25925207  0.53681658  1
  Li  Li92  1  0.50602656  0.64608810  0.52405173  1
  Li  Li93  1  0.00801804  0.58001842  0.54805173  1
  Li  Li94  1  0.38542233  0.45462029  0.54663587  1
  Li  Li95  1  0.18682767  0.51110128  0.55943501  1
  Li  Li96  1  0.43443482  0.15010181  0.57296016  1
  Li  Li97  1  0.97195732  0.37004394  0.57502277  1
  Li  Li98  1  0.96918010  0.82378390  0.56264200  1
  Li  Li99  1  0.42138888  0.64626408  0.57167503  1
  Li  Li100  1  0.24216646  0.03887470  0.59353580  1
  Li  Li101  1  0.40196984  0.94268078  0.60140576  1
  Li  Li102  1  0.00960342  0.96515600  0.59658015  1
  Li  Li103  1  0.51524332  0.18309825  0.61308660  1
  Li  Li104  1  0.44452179  0.75436189  0.61178602  1
  Li  Li105  1  0.95320762  0.25059200  0.61455120  1
  Li  Li106  1  0.83952344  0.79376275  0.61384452  1
  Li  Li107  1  0.75600634  0.31242005  0.62649910  1
  Li  Li108  1  0.62444639  0.69989996  0.62686932  1
  Li  Li109  1  0.70345078  0.51907050  0.63755863  1
  Li  Li110  1  0.34576763  0.73908782  0.65081534  1
  Li  Li111  1  0.56150905  0.29072119  0.65362940  1
  Li  Li112  1  0.06622531  0.29483995  0.65528491  1
  Li  Li113  1  0.83818945  0.73384635  0.65570657  1
  Li  Li114  1  0.21649113  0.53675476  0.67195950  1
  Li  Li115  1  0.13069070  0.70654433  0.68031317  1
  Li  Li116  1  0.25071570  0.31560662  0.68180732  1
  Li  Li117  1  0.36190277  0.81556104  0.69237818  1
  Li  Li118  1  0.44848902  0.26008991  0.69398267  1
  Li  Li119  1  0.94718169  0.75969957  0.69383933  1
  Li  Li120  1  0.99675488  0.16660929  0.69476069  1
  Li  Li121  1  0.50389448  0.06106783  0.70614738  1
  Li  Li122  1  0.89444782  0.94260282  0.70721090  1
  Li  Li123  1  0.72140366  0.02577502  0.71686089  1
  Li  Li124  1  0.92535692  0.65151017  0.73190661  1
  Li  Li125  1  0.47998035  0.87342991  0.73293548  1
  Li  Li126  1  0.47905176  0.37311626  0.73430653  1
  Li  Li127  1  0.92547260  0.15348218  0.73647198  1
  Li  Li128  1  0.71626408  0.52219153  0.75062921  1
  Li  Li129  1  0.89433113  0.44278137  0.76030776  1
  Li  Li130  1  0.50279355  0.56215139  0.76140474  1
  Li  Li131  1  0.00022552  0.66736497  0.77313119  1
  Li  Li132  1  0.94716441  0.26001812  0.77425767  1
  Li  Li133  1  0.44773096  0.76022082  0.77326457  1
  Li  Li134  1  0.36199252  0.31582928  0.77485215  1
  Li  Li135  1  0.25089723  0.81478941  0.78570108  1
  Li  Li136  1  0.13080874  0.20649950  0.78705204  1
  Li  Li137  1  0.21302100  0.03255431  0.79544279  1
  Li  Li138  1  0.83373309  0.23065407  0.81247365  1
  Li  Li139  1  0.06542051  0.79393290  0.81232184  1
  Li  Li140  1  0.55781881  0.78616840  0.81279046  1
  Li  Li141  1  0.34294327  0.23695360  0.81582203  1
  Li  Li142  1  0.68836645  0.00589828  0.83035143  1
  Li  Li143  1  0.62223853  0.20022548  0.84007244  1
  Li  Li144  1  0.75749184  0.81236783  0.84079613  1
  Li  Li145  1  0.83887133  0.29653165  0.85312109  1
  Li  Li146  1  0.95257990  0.75050106  0.85279749  1
  Li  Li147  1  0.44265389  0.25573342  0.85461905  1
  Li  Li148  1  0.51917779  0.68731486  0.85403885  1
  Li  Li149  1  0.00605324  0.46470992  0.87159834  1
  Li  Li150  1  0.40379270  0.44730548  0.86733541  1
  Li  Li151  1  0.23797597  0.53707355  0.87404873  1
  Li  Li152  1  0.41768373  0.15033970  0.89470951  1
  Li  Li153  1  0.96925561  0.31839434  0.90670670  1
  Li  Li154  1  0.96933377  0.87065145  0.89186594  1
  Li  Li155  1  0.43347004  0.64835320  0.89463304  1
  Li  Li156  1  0.18447534  0.01439898  0.90798972  1
  Li  Li157  1  0.38515607  0.96494110  0.92124701  1
  Li  Li158  1  0.00463026  0.07807731  0.91930696  1
  Li  Li159  1  0.51254649  0.16807625  0.94421182  1
  Li  Li160  1  0.43157429  0.76749072  0.93031166  1
  Li  Li161  1  0.97025238  0.27740495  0.94744649  1
  Li  Li162  1  0.89890845  0.88070829  0.93663657  1
  Li  Li163  1  0.74436231  0.32287311  0.94516766  1
  Li  Li164  1  0.60047156  0.72045473  0.93844623  1
  Li  Li165  1  0.77644711  0.68601765  0.95324985  1
  Li  Li166  1  0.41426861  0.67383992  0.96566841  1
  Li  Li167  1  0.49621559  0.31829475  0.98542419  1
  La  La168  1  0.89357333  0.96754377  0.01656527  1
  La  La169  1  0.01365278  0.33275563  0.01806309  1
  La  La170  1  0.94652838  0.63315329  0.03913662  1
  La  La171  1  0.45824231  0.16105953  0.03363291  1
  La  La172  1  0.64095929  0.71243950  0.05085749  1
  La  La173  1  0.26571568  0.57916780  0.05630470  1
  La  La174  1  0.27179430  0.08376061  0.09409520  1
  La  La175  1  0.64053960  0.20367581  0.09490296  1
  La  La176  1  0.95359818  0.13741899  0.11536344  1
  La  La177  1  0.45012470  0.64510945  0.11348841  1
  La  La178  1  0.02095919  0.82483643  0.13337626  1
  La  La179  1  0.88696660  0.45107104  0.13478686  1
  La  La180  1  0.38963839  0.45554292  0.17340774  1
  La  La181  1  0.51457577  0.82635346  0.17504455  1
  La  La182  1  0.45172242  0.14179089  0.19395088  1
  La  La183  1  0.95215712  0.64061888  0.19368920  1
  La  La184  1  0.13719012  0.20726548  0.21271573  1
  La  La185  1  0.76429652  0.07696317  0.21427756  1
  La  La186  1  0.76428767  0.57678733  0.25301008  1
  La  La187  1  0.13757810  0.70688348  0.25465705  1
  La  La188  1  0.45275947  0.64181648  0.27347391  1
  La  La189  1  0.95294738  0.14081807  0.27382937  1
  La  La190  1  0.51586696  0.32587565  0.29232257  1
  La  La191  1  0.38989725  0.95593608  0.29382600  1
  La  La192  1  0.88832554  0.95148392  0.33281652  1
  La  La193  1  0.02117492  0.32411864  0.33420636  1
  La  La194  1  0.95574185  0.63705240  0.35216246  1
  La  La195  1  0.45246845  0.14431854  0.35388865  1
  La  La196  1  0.64378965  0.70440644  0.37279242  1
  La  La197  1  0.27348258  0.58036828  0.37303096  1
  La  La198  1  0.26925420  0.07816103  0.41108970  1
  La  La199  1  0.63914751  0.21246721  0.41978555  1
  La  La200  1  0.94792353  0.12880302  0.42880517  1
  La  La201  1  0.45848821  0.65343797  0.43235310  1
  La  La202  1  0.01620245  0.82916178  0.44957807  1
  La  La203  1  0.90200935  0.46619579  0.45141466  1
  La  La204  1  0.25529947  0.68254365  0.51677222  1
  La  La205  1  0.13582065  0.31723286  0.51824656  1
  La  La206  1  0.20325416  0.01662202  0.53925721  1
  La  La207  1  0.69105050  0.48963759  0.53393864  1
  La  La208  1  0.50921807  0.93837486  0.55090045  1
  La  La209  1  0.88417820  0.07057509  0.55652198  1
  La  La210  1  0.87824299  0.56598285  0.59436988  1
  La  La211  1  0.50941704  0.44652373  0.59514425  1
  La  La212  1  0.19614376  0.51240248  0.61543490  1
  La  La213  1  0.69949664  0.00459226  0.61365842  1
  La  La214  1  0.12910220  0.82534893  0.63357478  1
  La  La215  1  0.26241579  0.19886301  0.63491668  1
  La  La216  1  0.75942627  0.19449190  0.67360999  1
  La  La217  1  0.63483819  0.82378300  0.67518973  1
  La  La218  1  0.69796383  0.50858409  0.69414294  1
  La  La219  1  0.19769094  0.01004367  0.69381906  1
  La  La220  1  0.01293541  0.44325747  0.71283408  1
  La  La221  1  0.38544972  0.57326938  0.71432275  1
  La  La222  1  0.38556974  0.07315606  0.75319013  1
  La  La223  1  0.01258117  0.94312083  0.75467225  1
  La  La224  1  0.69762333  0.00851165  0.77349956  1
  La  La225  1  0.19759220  0.50945172  0.77384815  1
  La  La226  1  0.63415963  0.32438967  0.79241744  1
  La  La227  1  0.76045026  0.69413857  0.79384391  1
  La  La228  1  0.26202551  0.69854383  0.83278689  1
  La  La229  1  0.12921382  0.32584285  0.83410281  1
  La  La230  1  0.19465200  0.01277738  0.85213032  1
  La  La231  1  0.69744820  0.50528748  0.85387930  1
  La  La232  1  0.50660139  0.94551577  0.87270603  1
  La  La233  1  0.87679678  0.06896256  0.87295309  1
  La  La234  1  0.88123606  0.57157188  0.91093047  1
  La  La235  1  0.51088800  0.43750111  0.91962625  1
  La  La236  1  0.20212513  0.52095802  0.92865208  1
  La  La237  1  0.69164977  0.99591723  0.93228104  1
  La  La238  1  0.13399601  0.82065802  0.94939069  1
  La  La239  1  0.24866524  0.18393870  0.95130298  1
  Zr  Zr240  1  0.72752469  0.22538250  0.98928596  1
  Zr  Zr241  1  0.20111694  0.65702252  0.00058878  1
  Zr  Zr242  1  0.95669988  0.89058434  0.07533327  1
  Zr  Zr243  1  0.44820660  0.39672646  0.07376783  1
  Zr  Zr244  1  0.45758101  0.89787540  0.07051600  1
  Zr  Zr245  1  0.95277788  0.38638056  0.07685473  1
  Zr  Zr246  1  0.20567207  0.14235419  0.15363880  1
  Zr  Zr247  1  0.70231273  0.63938850  0.15286672  1
  Zr  Zr248  1  0.20257143  0.64011448  0.15300892  1
  Zr  Zr249  1  0.70261767  0.13875676  0.15478166  1
  Zr  Zr250  1  0.45183173  0.39244722  0.23313574  1
  Zr  Zr251  1  0.95172646  0.89133190  0.23310678  1
  Zr  Zr252  1  0.95186316  0.39134257  0.23413231  1
  Zr  Zr253  1  0.45169342  0.89192448  0.23412942  1
  Zr  Zr254  1  0.70484335  0.63944554  0.31246724  1
  Zr  Zr255  1  0.20357456  0.14056223  0.31423889  1
  Zr  Zr256  1  0.70341388  0.14011250  0.31443642  1
  Zr  Zr257  1  0.20623151  0.64138468  0.31369014  1
  Zr  Zr258  1  0.95627871  0.88450814  0.39079298  1
  Zr  Zr259  1  0.46298941  0.39665922  0.39468859  1
  Zr  Zr260  1  0.45071309  0.89556256  0.39315498  1
  Zr  Zr261  1  0.95689479  0.38800015  0.39228028  1
  Zr  Zr262  1  0.20075757  0.14758202  0.46838716  1
  Zr  Zr263  1  0.73451953  0.72128463  0.47878322  1
  Zr  Zr264  1  0.42240141  0.42464982  0.48956581  1
  Zr  Zr265  1  0.94838295  0.99234991  0.50075807  1
  Zr  Zr266  1  0.19330964  0.75966589  0.57552498  1
  Zr  Zr267  1  0.70160905  0.25329086  0.57403570  1
  Zr  Zr268  1  0.69265156  0.75260110  0.57075580  1
  Zr  Zr269  1  0.19690603  0.26327137  0.57699503  1
  Zr  Zr270  1  0.94437405  0.50783556  0.65385184  1
  Zr  Zr271  1  0.44710576  0.01078597  0.65297659  1
  Zr  Zr272  1  0.94684447  0.00997719  0.65326909  1
  Zr  Zr273  1  0.44711097  0.51088731  0.65491668  1
  Zr  Zr274  1  0.69823670  0.25789471  0.73329581  1
  Zr  Zr275  1  0.19840866  0.75897927  0.73328589  1
  Zr  Zr276  1  0.19802949  0.25890280  0.73416684  1
  Zr  Zr277  1  0.69803290  0.75804803  0.73423986  1
  Zr  Zr278  1  0.44563238  0.01014389  0.81243896  1
  Zr  Zr279  1  0.94669637  0.50953029  0.81431687  1
  Zr  Zr280  1  0.44687687  0.50970035  0.81442229  1
  Zr  Zr281  1  0.94401541  0.00886224  0.81368563  1
  Zr  Zr282  1  0.19402070  0.76505440  0.89069431  1
  Zr  Zr283  1  0.68786081  0.25307280  0.89450515  1
  Zr  Zr284  1  0.69947840  0.75394650  0.89310879  1
  Zr  Zr285  1  0.19347258  0.26191503  0.89216105  1
  Zr  Zr286  1  0.94925023  0.50214452  0.96815288  1
  Zr  Zr287  1  0.41488896  0.92817944  0.97863989  1
  O  O288  1  0.22335195  0.85421168  0.99050291  1
  O  O289  1  0.99526613  0.55562871  0.00247862  1
  O  O290  1  0.38833406  0.30350733  0.01068276  1
  O  O291  1  0.39132126  0.74100721  0.99290970  1
  O  O292  1  0.63628229  0.30735700  0.00991082  1
  O  O293  1  0.52766064  0.04370943  0.00188024  1
  O  O294  1  0.22244056  0.49850427  0.01449995  1
  O  O295  1  0.67680857  0.84569860  0.01368931  1
  O  O296  1  0.06623780  0.15098739  0.02562602  1
  O  O297  1  0.80150294  0.14021604  0.01502258  1
  O  O298  1  0.72696641  0.56852675  0.02872623  1
  O  O299  1  0.17780109  0.71366332  0.03311816  1
  O  O300  1  0.03856556  0.87864993  0.04137154  1
  O  O301  1  0.87275533  0.38714312  0.04358782  1
  O  O302  1  0.44961355  0.51274031  0.04487250  1
  O  O303  1  0.45443193  0.76869133  0.04598670  1
  O  O304  1  0.09471976  0.35906514  0.05760426  1
  O  O305  1  0.83395758  0.94569729  0.05408662  1
  O  O306  1  0.30675699  0.23092916  0.05945548  1
  O  O307  1  0.58522047  0.33797657  0.05752120  1
  O  O308  1  0.32394485  0.97479542  0.05560375  1
  O  O309  1  0.59996409  0.06184366  0.05578144  1
  O  O310  1  0.83850740  0.69825684  0.07188371  1
  O  O311  1  0.04258944  0.58187764  0.07305845  1
  O  O312  1  0.06769350  0.08754073  0.07888528  1
  O  O313  1  0.84167018  0.18658636  0.07764686  1
  O  O314  1  0.59091824  0.55979532  0.08794426  1
  O  O315  1  0.31630397  0.45931036  0.08924208  1
  O  O316  1  0.59859327  0.84106513  0.08570822  1
  O  O317  1  0.31645700  0.74194130  0.08742470  1
  O  O318  1  0.80035263  0.42432916  0.09370953  1
  O  O319  1  0.10550346  0.85413043  0.09206020  1
  O  O320  1  0.46321581  0.27862855  0.10119817  1
  O  O321  1  0.45073985  0.00828409  0.10126148  1
  O  O322  1  0.87668701  0.89987441  0.10687792  1
  O  O323  1  0.01604459  0.36109496  0.10932052  1
  O  O324  1  0.19549795  0.22522776  0.12173682  1
  O  O325  1  0.71581519  0.05754033  0.12268123  1
  O  O326  1  0.81508558  0.62827543  0.12428236  1
  O  O327  1  0.08018586  0.64350523  0.12628964  1
  O  O328  1  0.66806961  0.27798838  0.13449566  1
  O  O329  1  0.24541701  0.00069605  0.13371203  1
  O  O330  1  0.54003747  0.49549292  0.13890342  1
  O  O331  1  0.63946591  0.77365951  0.13644438  1
  O  O332  1  0.27635371  0.51027120  0.13926756  1
  O  O333  1  0.36761970  0.78507304  0.13912917  1
  O  O334  1  0.00843176  0.03139822  0.15028830  1
  O  O335  1  0.89922795  0.24338667  0.15283107  1
  O  O336  1  0.40347567  0.24751648  0.15678747  1
  O  O337  1  0.50477381  0.02909766  0.15746593  1
  O  O338  1  0.86778390  0.78317866  0.16670749  1
  O  O339  1  0.76913780  0.50591574  0.16840485  1
  O  O340  1  0.13863798  0.77792803  0.16815118  1
  O  O341  1  0.04124332  0.49712843  0.16864960  1
  O  O342  1  0.73934159  0.99302198  0.17338516  1
  O  O343  1  0.17496286  0.28491065  0.17344153  1
  O  O344  1  0.58512626  0.64964390  0.18050046  1
  O  O345  1  0.31381613  0.63327587  0.18264872  1
  O  O346  1  0.21509852  0.05940495  0.18574591  1
  O  O347  1  0.68841189  0.21821085  0.18691692  1
  O  O348  1  0.53091287  0.37950018  0.20094338  1
  O  O349  1  0.37105528  0.90256631  0.20166576  1
  O  O350  1  0.94268693  0.00373481  0.20412093  1
  O  O351  1  0.95651079  0.27113767  0.20671422  1
  O  O352  1  0.59432022  0.86166365  0.21417165  1
  O  O353  1  0.30911703  0.43226449  0.21414119  1
  O  O354  1  0.80814174  0.72974875  0.21803063  1
  O  O355  1  0.08763193  0.82663209  0.21811337  1
  O  O356  1  0.81916274  0.45896899  0.21876923  1
  O  O357  1  0.09447807  0.55583986  0.22000616  1
  O  O358  1  0.34138766  0.19495936  0.22979565  1
  O  O359  1  0.55789181  0.09072823  0.23123775  1
  O  O360  1  0.55815495  0.59082908  0.23581106  1
  O  O361  1  0.34145027  0.69490527  0.23734296  1
  O  O362  1  0.09472200  0.05546310  0.24719398  1
  O  O363  1  0.81915808  0.95936930  0.24824235  1
  O  O364  1  0.08801951  0.32659530  0.24899057  1
  O  O365  1  0.80793275  0.22938023  0.24897813  1
  O  O366  1  0.30936436  0.93158388  0.25306275  1
  O  O367  1  0.59423572  0.36119966  0.25286180  1
  O  O368  1  0.95658599  0.77122991  0.26046015  1
  O  O369  1  0.94313944  0.50371065  0.26297811  1
  O  O370  1  0.37131482  0.40301311  0.26548735  1
  O  O371  1  0.53228407  0.87966721  0.26610470  1
  O  O372  1  0.68988466  0.71878425  0.28022800  1
  O  O373  1  0.21555900  0.55940984  0.28137153  1
  O  O374  1  0.31435917  0.13299036  0.28448876  1
  O  O375  1  0.58693258  0.14990205  0.28647153  1
  O  O376  1  0.17458478  0.78407533  0.29378724  1
  O  O377  1  0.74057171  0.49407593  0.29357690  1
  O  O378  1  0.04170299  0.99748643  0.29863420  1
  O  O379  1  0.13790999  0.27639902  0.29891593  1
  O  O380  1  0.76989039  0.00556522  0.29887604  1
  O  O381  1  0.86896648  0.28289938  0.30033798  1
  O  O382  1  0.50660007  0.53125508  0.30969559  1
  O  O383  1  0.40404212  0.74764125  0.31028301  1
  O  O384  1  0.90069328  0.74501676  0.31446363  1
  O  O385  1  0.00805079  0.53122397  0.31692972  1
  O  O386  1  0.36922859  0.28572467  0.32749873  1
  O  O387  1  0.27717075  0.00998039  0.32776463  1
  O  O388  1  0.64029273  0.27530563  0.32999099  1
  O  O389  1  0.54045633  0.99568598  0.32798817  1
  O  O390  1  0.24069716  0.49699712  0.33355112  1
  O  O391  1  0.66761364  0.77816140  0.33263432  1
  O  O392  1  0.08239156  0.14399605  0.34130272  1
  O  O393  1  0.81549249  0.12835784  0.34308831  1
  O  O394  1  0.71919783  0.55827193  0.34442753  1
  O  O395  1  0.19687899  0.72545313  0.34533417  1
  O  O396  1  0.01909425  0.86145843  0.35821810  1
  O  O397  1  0.87841335  0.39871531  0.36090360  1
  O  O398  1  0.45341444  0.50743684  0.36480547  1
  O  O399  1  0.46527817  0.77806391  0.36553864  1
  O  O400  1  0.10579591  0.35079754  0.37589535  1
  O  O401  1  0.80535664  0.92466171  0.37403420  1
  O  O402  1  0.32142390  0.23749881  0.37865320  1
  O  O403  1  0.60245907  0.33837951  0.38064069  1
  O  O404  1  0.31753319  0.95801592  0.37806426  1
  O  O405  1  0.59121637  0.05641163  0.37885166  1
  O  O406  1  0.84704629  0.68586092  0.38956117  1
  O  O407  1  0.07051211  0.58542706  0.38841544  1
  O  O408  1  0.04716711  0.08149749  0.39546265  1
  O  O409  1  0.84012999  0.19599588  0.39626100  1
  O  O410  1  0.60397304  0.56101139  0.40958109  1
  O  O411  1  0.33006470  0.47428445  0.40946887  1
  O  O412  1  0.58708276  0.83516745  0.40905920  1
  O  O413  1  0.30864548  0.72858914  0.40742112  1
  O  O414  1  0.83985569  0.44873419  0.41365782  1
  O  O415  1  0.09916626  0.85877764  0.41010839  1
  O  O416  1  0.45757248  0.27050177  0.42036104  1
  O  O417  1  0.44992086  0.01018333  0.42249096  1
  O  O418  1  0.87620534  0.88234184  0.42423530  1
  O  O419  1  0.04239040  0.37598641  0.42701023  1
  O  O420  1  0.19097023  0.21980333  0.43608153  1
  O  O421  1  0.72814392  0.05870723  0.43843901  1
  O  O422  1  0.79957902  0.63200111  0.45327770  1
  O  O423  1  0.07198854  0.65252571  0.44171497  1
  O  O424  1  0.69447987  0.33888936  0.45378963  1
  O  O425  1  0.22183961  0.99167433  0.45331765  1
  O  O426  1  0.48632524  0.49821838  0.45899550  1
  O  O427  1  0.63832226  0.79010063  0.45687483  1
  O  O428  1  0.39092430  0.23681349  0.47361075  1
  O  O429  1  0.39341371  0.80285385  0.45609798  1
  O  O430  1  0.99424563  0.04720760  0.46574862  1
  O  O431  1  0.22117576  0.34520193  0.47927673  1
  O  O432  1  0.92599584  0.79515352  0.49066985  1
  O  O433  1  0.15444958  0.09323794  0.50262917  1
  O  O434  1  0.76202532  0.34721870  0.51110921  1
  O  O435  1  0.75817821  0.90828879  0.49307172  1
  O  O436  1  0.51361397  0.34284715  0.51027372  1
  O  O437  1  0.62122412  0.60639912  0.50210605  1
  O  O438  1  0.92765605  0.15095827  0.51468296  1
  O  O439  1  0.47205939  0.80384895  0.51392154  1
  O  O440  1  0.08313668  0.49924536  0.52593887  1
  O  O441  1  0.34759818  0.50937776  0.51529048  1
  O  O442  1  0.42351610  0.08192072  0.52898940  1
  O  O443  1  0.97177082  0.93606277  0.53330367  1
  O  O444  1  0.11119186  0.77156710  0.54158758  1
  O  O445  1  0.27700268  0.26252137  0.54374890  1
  O  O446  1  0.70073903  0.13786564  0.54510023  1
  O  O447  1  0.69530556  0.88155378  0.54616637  1
  O  O448  1  0.05460076  0.28956686  0.55768533  1
  O  O449  1  0.31535682  0.70352743  0.55428459  1
  O  O450  1  0.84295348  0.41961448  0.55981911  1
  O  O451  1  0.56485297  0.31251106  0.55791133  1
  O  O452  1  0.82617303  0.67592982  0.55553360  1
  O  O453  1  0.54985640  0.58818511  0.55603157  1
  O  O454  1  0.31163674  0.95174592  0.57205618  1
  O  O455  1  0.10790731  0.06754764  0.57325823  1
  O  O456  1  0.08228266  0.56239592  0.57904513  1
  O  O457  1  0.30782462  0.46308509  0.57775966  1
  O  O458  1  0.55895179  0.09031950  0.58818305  1
  O  O459  1  0.83338288  0.19037413  0.58947269  1
  O  O460  1  0.55148971  0.80917240  0.58585167  1
  O  O461  1  0.83379368  0.90775028  0.58767565  1
  O  O462  1  0.34935977  0.22575337  0.59389139  1
  O  O463  1  0.04396308  0.79522217  0.59228053  1
  O  O464  1  0.68613731  0.37083819  0.60153976  1
  O  O465  1  0.69951266  0.64179160  0.60141604  1
  O  O466  1  0.27330059  0.75012358  0.60702782  1
  O  O467  1  0.13334197  0.28863714  0.60943803  1
  O  O468  1  0.95432056  0.42514484  0.62192239  1
  O  O469  1  0.43426289  0.59205811  0.62275475  1
  O  O470  1  0.33392190  0.02130168  0.62443148  1
  O  O471  1  0.06899237  0.00598987  0.62658148  1
  O  O472  1  0.48085873  0.37113280  0.63467108  1
  O  O473  1  0.90384696  0.64944434  0.63403528  1
  O  O474  1  0.60964705  0.15463248  0.63910500  1
  O  O475  1  0.50995767  0.87656131  0.63654744  1
  O  O476  1  0.87301292  0.13974044  0.63949929  1
  O  O477  1  0.78195650  0.86481817  0.63948086  1
  O  O478  1  0.14153040  0.61896716  0.65041565  1
  O  O479  1  0.25009118  0.40651258  0.65290979  1
  O  O480  1  0.74648059  0.40230956  0.65700128  1
  O  O481  1  0.64481728  0.62045985  0.65763961  1
  O  O482  1  0.28192757  0.86705604  0.66691680  1
  O  O483  1  0.37994903  0.14413524  0.66854333  1
  O  O484  1  0.01139437  0.87284566  0.66853348  1
  O  O485  1  0.10781256  0.15321819  0.66887839  1
  O  O486  1  0.41031260  0.65664447  0.67348428  1
  O  O487  1  0.97467487  0.36521517  0.67361723  1
  O  O488  1  0.56347674  0.00011084  0.68067661  1
  O  O489  1  0.83525384  0.01683778  0.68290882  1
  O  O490  1  0.93506797  0.59135386  0.68590183  1
  O  O491  1  0.46165264  0.43206527  0.68705441  1
  O  O492  1  0.61854954  0.27027001  0.70113775  1
  O  O493  1  0.77889965  0.74760214  0.70176096  1
  O  O494  1  0.20704583  0.64672216  0.70431020  1
  O  O495  1  0.19332894  0.37945027  0.70680151  1
  O  O496  1  0.55545007  0.78842287  0.71426482  1
  O  O497  1  0.84109946  0.21798710  0.71432175  1
  O  O498  1  0.34204810  0.92099364  0.71829405  1
  O  O499  1  0.06252660  0.82438867  0.71847403  1
  O  O500  1  0.33081997  0.19142525  0.71891896  1
  O  O501  1  0.05515956  0.09470950  0.72014384  1
  O  O502  1  0.80839964  0.45541879  0.72991091  1
  O  O503  1  0.59165287  0.55938300  0.73131861  1
  O  O504  1  0.59246572  0.05951910  0.73596924  1
  O  O505  1  0.80862057  0.95510174  0.73753326  1
  O  O506  1  0.05535286  0.59476191  0.74733508  1
  O  O507  1  0.33093884  0.69087366  0.74833546  1
  O  O508  1  0.06224540  0.32405216  0.74914115  1
  O  O509  1  0.34190762  0.42090733  0.74903652  1
  O  O510  1  0.84010228  0.71824407  0.75316081  1
  O  O511  1  0.55600493  0.28929815  0.75298792  1
  O  O512  1  0.19341152  0.87875538  0.76070193  1
  O  O513  1  0.20693366  0.14651611  0.76299109  1
  O  O514  1  0.77941671  0.24744066  0.76558212  1
  O  O515  1  0.61744920  0.77042969  0.76617421  1
  O  O516  1  0.46079994  0.93165325  0.78020450  1
  O  O517  1  0.93494376  0.09132728  0.78143772  1
  O  O518  1  0.83631668  0.51734247  0.78457982  1
  O  O519  1  0.56402260  0.50070148  0.78645807  1
  O  O520  1  0.97617851  0.86644277  0.79383061  1
  O  O521  1  0.40970252  0.15532682  0.79356124  1
  O  O522  1  0.10872755  0.65276876  0.79871881  1
  O  O523  1  0.01293379  0.37403838  0.79905459  1
  O  O524  1  0.38083648  0.64438030  0.79881423  1
  O  O525  1  0.28159636  0.36708624  0.80027622  1
  O  O526  1  0.64368537  0.11863456  0.80972384  1
  O  O527  1  0.74639792  0.90212614  0.81027112  1
  O  O528  1  0.24943376  0.90472791  0.81455004  1
  O  O529  1  0.14215598  0.11897411  0.81694452  1
  O  O530  1  0.78102114  0.36434515  0.82744971  1
  O  O531  1  0.87365018  0.64059262  0.82779204  1
  O  O532  1  0.51039282  0.37403473  0.82973603  1
  O  O533  1  0.60970653  0.65385007  0.82803462  1
  O  O534  1  0.90912183  0.15308333  0.83351170  1
  O  O535  1  0.48278705  0.87135536  0.83256857  1
  O  O536  1  0.06820523  0.50623405  0.84131498  1
  O  O537  1  0.33449718  0.52099242  0.84302017  1
  O  O538  1  0.43105022  0.09141959  0.84438646  1
  O  O539  1  0.95354669  0.92488739  0.84537421  1
  O  O540  1  0.13133939  0.78858136  0.85815269  1
  O  O541  1  0.27251289  0.25143227  0.86084529  1
  O  O542  1  0.69695292  0.14170538  0.86466832  1
  O  O543  1  0.68476507  0.87130935  0.86546648  1
  O  O544  1  0.04462587  0.29903064  0.87576111  1
  O  O545  1  0.34490910  0.72512187  0.87384041  1
  O  O546  1  0.82916026  0.41185955  0.87848767  1
  O  O547  1  0.54879086  0.31128640  0.88022167  1
  O  O548  1  0.83256941  0.69164381  0.87799206  1
  O  O549  1  0.55864114  0.59326651  0.87881161  1
  O  O550  1  0.30342523  0.96389622  0.88948072  1
  O  O551  1  0.07985594  0.06463360  0.88838571  1
  O  O552  1  0.10281641  0.56823041  0.89527555  1
  O  O553  1  0.30978049  0.45406477  0.89617640  1
  O  O554  1  0.54644305  0.08917072  0.90945030  1
  O  O555  1  0.82063113  0.17524658  0.90932970  1
  O  O556  1  0.56282874  0.81456209  0.90897368  1
  O  O557  1  0.84135630  0.92090481  0.90735440  1
  O  O558  1  0.31084706  0.20127064  0.91345494  1
  O  O559  1  0.05112677  0.79064754  0.91002042  1
  O  O560  1  0.69269590  0.37991660  0.92000835  1
  O  O561  1  0.69992929  0.63934560  0.92240789  1
  O  O562  1  0.27437678  0.76684079  0.92407317  1
  O  O563  1  0.10813960  0.27405446  0.92687743  1
  O  O564  1  0.96017216  0.43078777  0.93585042  1
  O  O565  1  0.42230936  0.59048738  0.93850396  1
  O  O566  1  0.35034950  0.01726782  0.95303548  1
  O  O567  1  0.07863098  0.99789646  0.94157529  1
  O  O568  1  0.45652620  0.31026722  0.95347212  1
  O  O569  1  0.92844896  0.65847926  0.95319736  1
  O  O570  1  0.66329090  0.15166523  0.95875198  1
  O  O571  1  0.51181180  0.85944864  0.95683899  1
  O  O572  1  0.75883208  0.41366556  0.97332205  1
  O  O573  1  0.75652427  0.84674133  0.95602862  1
  O  O574  1  0.15568603  0.60292738  0.96559055  1
  O  O575  1  0.92833216  0.30471247  0.97903253  1
