# generated using pymatgen
data_Li29La11Zr7O45
_symmetry_space_group_name_H-M   'P 1'
_cell_length_a   11.27162600
_cell_length_b   18.66058700
_cell_length_c   41.47821390
_cell_angle_alpha   90.00000000
_cell_angle_beta   90.00000000
_cell_angle_gamma   89.99896220
_symmetry_Int_Tables_number   1
_chemical_formula_structural   Li29La11Zr7O45
_chemical_formula_sum   'Li232 La88 Zr56 O360'
_cell_volume   8724.32665723
_cell_formula_units_Z   8
loop_
 _symmetry_equiv_pos_site_id
 _symmetry_equiv_pos_as_xyz
  1  'x, y, z'
loop_
 _atom_site_type_symbol
 _atom_site_label
 _atom_site_symmetry_multiplicity
 _atom_site_fract_x
 _atom_site_fract_y
 _atom_site_fract_z
 _atom_site_occupancy
  Li  Li0  1  0.92665254  0.50265881  0.07428910  1
  Li  Li1  1  0.61504478  0.02319534  0.05259135  1
  Li  Li2  1  0.69365832  0.64018759  0.07731077  1
  Li  Li3  1  0.76523732  0.94631245  0.04067495  1
  Li  Li4  1  0.06657024  0.27531109  0.09130485  1
  Li  Li5  1  0.55370766  0.26316905  0.03428161  1
  Li  Li6  1  0.49127024  0.66551309  0.99095694  1
  Li  Li7  1  0.16299664  0.84715776  0.11597514  1
  Li  Li8  1  0.78423602  0.35562234  0.99495325  1
  Li  Li9  1  0.28329874  0.69467949  0.99511618  1
  Li  Li10  1  0.39373657  0.43059264  0.04785786  1
  Li  Li11  1  0.11076763  0.14718817  0.08370201  1
  Li  Li12  1  0.65520620  0.04955832  0.99183622  1
  Li  Li13  1  0.15564617  0.00030822  0.99171167  1
  Li  Li14  1  0.61309891  0.90351300  0.08409930  1
  Li  Li15  1  0.89274136  0.61975524  0.04803444  1
  Li  Li16  1  0.99249360  0.38516811  0.99072965  1
  Li  Li17  1  0.66394351  0.20404645  0.11656758  1
  Li  Li18  1  0.42681901  0.54772437  0.07418610  1
  Li  Li19  1  0.11455580  0.02625190  0.05251814  1
  Li  Li20  1  0.19461636  0.41108446  0.07736528  1
  Li  Li21  1  0.26235620  0.10476978  0.04033701  1
  Li  Li22  1  0.56622126  0.77543452  0.09142731  1
  Li  Li23  1  0.05343492  0.78687494  0.03429202  1
  Li  Li24  1  0.99809642  0.37693002  0.05610029  1
  Li  Li25  1  0.56246265  0.15943382  0.06405792  1
  Li  Li26  1  0.49725403  0.67356412  0.05602606  1
  Li  Li27  1  0.06239346  0.89060111  0.06390385  1
  Li  Li28  1  0.61626749  0.02034814  0.19189241  1
  Li  Li29  1  0.30953647  0.52150197  0.17875583  1
  Li  Li30  1  0.42465484  0.10850550  0.19949603  1
  Li  Li31  1  0.49933797  0.44453681  0.17332291  1
  Li  Li32  1  0.73204304  0.77957054  0.21673138  1
  Li  Li33  1  0.20615561  0.76924935  0.16385481  1
  Li  Li34  1  0.09216198  0.18526846  0.14026192  1
  Li  Li35  1  0.84256936  0.35737882  0.23555107  1
  Li  Li36  1  0.38473054  0.82394538  0.11834374  1
  Li  Li37  1  0.88413554  0.22743145  0.11813033  1
  Li  Li38  1  0.11134159  0.90063780  0.17243543  1
  Li  Li39  1  0.80889168  0.65275420  0.21044307  1
  Li  Li40  1  0.35330816  0.46303865  0.12141752  1
  Li  Li41  1  0.85437612  0.58767097  0.12139849  1
  Li  Li42  1  0.31259921  0.39802307  0.20846470  1
  Li  Li43  1  0.61162416  0.15059975  0.17239489  1
  Li  Li44  1  0.59386348  0.86556774  0.14090620  1
  Li  Li45  1  0.34342872  0.69276604  0.23540817  1
  Li  Li46  1  0.11646120  0.02911351  0.19198605  1
  Li  Li47  1  0.81019632  0.53058059  0.17878743  1
  Li  Li48  1  0.92409336  0.94125673  0.19956473  1
  Li  Li49  1  0.99835903  0.60593510  0.17362867  1
  Li  Li50  1  0.23225913  0.27122819  0.21666777  1
  Li  Li51  1  0.70656013  0.28198997  0.16447640  1
  Li  Li52  1  0.71934550  0.90186826  0.18656343  1
  Li  Li53  1  0.21275090  0.64655063  0.18757743  1
  Li  Li54  1  0.21892399  0.14879841  0.18610293  1
  Li  Li55  1  0.71379509  0.40449688  0.18772616  1
  Li  Li56  1  0.30626680  0.52776769  0.32109597  1
  Li  Li57  1  0.00391937  0.02394756  0.30603763  1
  Li  Li58  1  0.11704086  0.60767588  0.32918285  1
  Li  Li59  1  0.18735794  0.94115120  0.29931007  1
  Li  Li60  1  0.41340270  0.28239076  0.33950944  1
  Li  Li61  1  0.89161600  0.27288104  0.28544864  1
  Li  Li62  1  0.78140238  0.69113610  0.26761124  1
  Li  Li63  1  0.52865946  0.86131460  0.35989381  1
  Li  Li64  1  0.06431224  0.32878710  0.24980189  1
  Li  Li65  1  0.56327969  0.72188270  0.24999629  1
  Li  Li66  1  0.79688676  0.39789758  0.29590684  1
  Li  Li67  1  0.49457564  0.15271679  0.33470741  1
  Li  Li68  1  0.06477234  0.97223336  0.24626103  1
  Li  Li69  1  0.56562980  0.07823300  0.24604534  1
  Li  Li70  1  0.99384389  0.89723579  0.33420342  1
  Li  Li71  1  0.29761728  0.65264384  0.29553863  1
  Li  Li72  1  0.28127957  0.35805642  0.26683384  1
  Li  Li73  1  0.02797562  0.18876997  0.36002733  1
  Li  Li74  1  0.80810894  0.52310731  0.32118863  1
  Li  Li75  1  0.50399040  0.02587673  0.30590194  1
  Li  Li76  1  0.61702142  0.44312128  0.32925103  1
  Li  Li77  1  0.68679622  0.10810427  0.29946331  1
  Li  Li78  1  0.91239646  0.76703087  0.33931246  1
  Li  Li79  1  0.39094028  0.77723588  0.28546433  1
  Li  Li80  1  0.41012037  0.40389070  0.31396319  1
  Li  Li81  1  0.90306534  0.14817433  0.31290665  1
  Li  Li82  1  0.91019428  0.64625040  0.31407431  1
  Li  Li83  1  0.40239448  0.90209412  0.31267796  1
  Li  Li84  1  0.00021845  0.01836892  0.44572741  1
  Li  Li85  1  0.72266366  0.52156399  0.43288416  1
  Li  Li86  1  0.84121099  0.09542039  0.45453852  1
  Li  Li87  1  0.90858612  0.41980066  0.43058438  1
  Li  Li88  1  0.05747737  0.73342701  0.48898169  1
  Li  Li89  1  0.56015748  0.77163430  0.40991138  1
  Li  Li90  1  0.45488164  0.19908109  0.39021470  1
  Li  Li91  1  0.29254005  0.34723204  0.50067082  1
  Li  Li92  1  0.73600878  0.81811033  0.38166016  1
  Li  Li93  1  0.23462099  0.23212506  0.38177158  1
  Li  Li94  1  0.50395333  0.90487031  0.41651561  1
  Li  Li95  1  0.19829520  0.64410273  0.44868204  1
  Li  Li96  1  0.76750831  0.46934429  0.37664363  1
  Li  Li97  1  0.26731721  0.58049285  0.37660986  1
  Li  Li98  1  0.69817181  0.40557935  0.44883757  1
  Li  Li99  1  0.00359887  0.14411379  0.41668450  1
  Li  Li100  1  0.95463236  0.85098138  0.39005282  1
  Li  Li101  1  0.79201416  0.70275981  0.50080782  1
  Li  Li102  1  0.50138773  0.03132090  0.44549136  1
  Li  Li103  1  0.22427491  0.52879967  0.43289521  1
  Li  Li104  1  0.34273704  0.95420402  0.45445449  1
  Li  Li105  1  0.40879852  0.63047940  0.43061961  1
  Li  Li106  1  0.55725331  0.31577190  0.48884375  1
  Li  Li107  1  0.05988138  0.27788009  0.41009767  1
  Li  Li108  1  0.08321283  0.88719332  0.43493081  1
  Li  Li109  1  0.61353411  0.66402377  0.44031365  1
  Li  Li110  1  0.58340083  0.16212976  0.43489164  1
  Li  Li111  1  0.11368439  0.38553914  0.44015443  1
  Li  Li112  1  0.39070366  0.15690550  0.48331015  1
  Li  Li113  1  0.89066764  0.89409147  0.48303833  1
  Li  Li114  1  0.40652279  0.00064871  0.50752167  1
  Li  Li115  1  0.90837290  0.04970285  0.50715091  1
  Li  Li116  1  0.39846243  0.54787775  0.57443728  1
  Li  Li117  1  0.70872038  0.02780404  0.55243770  1
  Li  Li118  1  0.62987121  0.41102857  0.57742736  1
  Li  Li119  1  0.55910403  0.10481358  0.54035289  1
  Li  Li120  1  0.25821932  0.77539657  0.59156398  1
  Li  Li121  1  0.77225103  0.78681879  0.53431519  1
  Li  Li122  1  0.83322888  0.38505106  0.49083289  1
  Li  Li123  1  0.16296005  0.20321254  0.61643490  1
  Li  Li124  1  0.54047547  0.69480898  0.49521077  1
  Li  Li125  1  0.04204763  0.35529141  0.49500582  1
  Li  Li126  1  0.93176385  0.61889422  0.54791426  1
  Li  Li127  1  0.21208326  0.90297632  0.58421075  1
  Li  Li128  1  0.67105188  0.00033663  0.49173543  1
  Li  Li129  1  0.16980396  0.04912685  0.49187124  1
  Li  Li130  1  0.71219815  0.14767769  0.58412537  1
  Li  Li131  1  0.43022411  0.43059922  0.54796262  1
  Li  Li132  1  0.33264803  0.66369550  0.49088314  1
  Li  Li133  1  0.66180413  0.84701186  0.61610329  1
  Li  Li134  1  0.89845695  0.50117716  0.57459096  1
  Li  Li135  1  0.20945202  0.02265714  0.55261536  1
  Li  Li136  1  0.12996135  0.63908023  0.57720468  1
  Li  Li137  1  0.06055857  0.94543565  0.54030266  1
  Li  Li138  1  0.75871398  0.27556528  0.59152648  1
  Li  Li139  1  0.27152482  0.26338020  0.53429068  1
  Li  Li140  1  0.32759509  0.67368178  0.55614859  1
  Li  Li141  1  0.76236757  0.89140883  0.56364565  1
  Li  Li142  1  0.82674992  0.37665474  0.55612417  1
  Li  Li143  1  0.26133057  0.15926435  0.56385842  1
  Li  Li144  1  0.71019412  0.02896621  0.69191843  1
  Li  Li145  1  0.01462705  0.52954049  0.67883668  1
  Li  Li146  1  0.90133256  0.94102988  0.69927035  1
  Li  Li147  1  0.82673674  0.60592110  0.67353168  1
  Li  Li148  1  0.59305544  0.27119007  0.71669452  1
  Li  Li149  1  0.11926609  0.28107438  0.66403163  1
  Li  Li150  1  0.23286938  0.86498352  0.64094386  1
  Li  Li151  1  0.48310797  0.69233734  0.73536076  1
  Li  Li152  1  0.94125404  0.22646408  0.61833818  1
  Li  Li153  1  0.44108542  0.82313864  0.61841963  1
  Li  Li154  1  0.21467239  0.14998000  0.67250775  1
  Li  Li155  1  0.51517753  0.39790060  0.71011616  1
  Li  Li156  1  0.97044293  0.58712860  0.62129659  1
  Li  Li157  1  0.47080864  0.46295211  0.62153599  1
  Li  Li158  1  0.01746896  0.65227760  0.71064321  1
  Li  Li159  1  0.71434399  0.90007474  0.67235875  1
  Li  Li160  1  0.73163815  0.18516341  0.64086430  1
  Li  Li161  1  0.98113799  0.35727321  0.73542591  1
  Li  Li162  1  0.20960392  0.02022718  0.69199777  1
  Li  Li163  1  0.51549176  0.52153307  0.67887237  1
  Li  Li164  1  0.40087404  0.10860029  0.69953798  1
  Li  Li165  1  0.32786471  0.44441117  0.67343548  1
  Li  Li166  1  0.09373844  0.77829117  0.71672132  1
  Li  Li167  1  0.61871578  0.76844659  0.66344266  1
  Li  Li168  1  0.60549286  0.14864127  0.68644665  1
  Li  Li169  1  0.11167059  0.40382613  0.68744591  1
  Li  Li170  1  0.10567606  0.90124367  0.68640622  1
  Li  Li171  1  0.61228794  0.64587808  0.68752767  1
  Li  Li172  1  0.01648521  0.52310969  0.82111016  1
  Li  Li173  1  0.32045517  0.02565570  0.80601490  1
  Li  Li174  1  0.20824276  0.44265202  0.82895102  1
  Li  Li175  1  0.13683403  0.10814039  0.79917544  1
  Li  Li176  1  0.91259175  0.76718690  0.83933218  1
  Li  Li177  1  0.43476803  0.77769716  0.78557474  1
  Li  Li178  1  0.54265494  0.35790136  0.76747317  1
  Li  Li179  1  0.79563072  0.18838779  0.86000795  1
  Li  Li180  1  0.26290515  0.72080667  0.75014406  1
  Li  Li181  1  0.76134065  0.32867935  0.75009932  1
  Li  Li182  1  0.52715316  0.65281046  0.79567478  1
  Li  Li183  1  0.82833544  0.89789368  0.83347294  1
  Li  Li184  1  0.26055180  0.07750958  0.74652169  1
  Li  Li185  1  0.75906641  0.97184368  0.74582235  1
  Li  Li186  1  0.32928540  0.15258568  0.83429308  1
  Li  Li187  1  0.02585841  0.39727896  0.79581414  1
  Li  Li188  1  0.04319991  0.69122807  0.76800273  1
  Li  Li189  1  0.29676757  0.86108514  0.86004285  1
  Li  Li190  1  0.51630212  0.52751716  0.82096071  1
  Li  Li191  1  0.82160511  0.02449598  0.80576639  1
  Li  Li192  1  0.70721993  0.60679007  0.82916232  1
  Li  Li193  1  0.63712774  0.94103948  0.79906469  1
  Li  Li194  1  0.41189393  0.28228380  0.83914244  1
  Li  Li195  1  0.93382728  0.27281282  0.78545345  1
  Li  Li196  1  0.91498852  0.64609495  0.81417119  1
  Li  Li197  1  0.42263849  0.90199584  0.81260633  1
  Li  Li198  1  0.41544818  0.40382521  0.81395915  1
  Li  Li199  1  0.92196761  0.14816697  0.81257450  1
  Li  Li200  1  0.32435033  0.03097701  0.94538430  1
  Li  Li201  1  0.60199704  0.52824831  0.93312636  1
  Li  Li202  1  0.48436414  0.95403935  0.95426598  1
  Li  Li203  1  0.41596611  0.63064909  0.93067647  1
  Li  Li204  1  0.26799017  0.31579682  0.98890195  1
  Li  Li205  1  0.76549733  0.27726055  0.90996016  1
  Li  Li206  1  0.87033844  0.85053683  0.88980012  1
  Li  Li207  1  0.03272045  0.70256274  0.00103925  1
  Li  Li208  1  0.58955684  0.23208212  0.88171635  1
  Li  Li209  1  0.08994317  0.81790551  0.88191011  1
  Li  Li210  1  0.82090461  0.14463577  0.91666679  1
  Li  Li211  1  0.12634372  0.40567988  0.94855071  1
  Li  Li212  1  0.55791512  0.57970748  0.87663599  1
  Li  Li213  1  0.05832644  0.46937125  0.87640053  1
  Li  Li214  1  0.62595169  0.64405229  0.94905856  1
  Li  Li215  1  0.32099136  0.90532702  0.91667552  1
  Li  Li216  1  0.36981172  0.19901134  0.89001743  1
  Li  Li217  1  0.53185235  0.34726430  0.00069910  1
  Li  Li218  1  0.82250486  0.01852838  0.94537039  1
  Li  Li219  1  0.10336643  0.52188244  0.93288148  1
  Li  Li220  1  0.98260421  0.09522004  0.95464353  1
  Li  Li221  1  0.91730021  0.41962430  0.93047004  1
  Li  Li222  1  0.76758681  0.73295051  0.98910410  1
  Li  Li223  1  0.26460306  0.77166163  0.91008478  1
  Li  Li224  1  0.24110298  0.16160790  0.93470310  1
  Li  Li225  1  0.71098609  0.38443263  0.93976957  1
  Li  Li226  1  0.74201835  0.88713185  0.93485619  1
  Li  Li227  1  0.21075748  0.66505625  0.94075432  1
  Li  Li228  1  0.93411579  0.89401161  0.98329664  1
  Li  Li229  1  0.43419938  0.15498698  0.98293982  1
  Li  Li230  1  0.91812774  0.04977749  0.00749004  1
  Li  Li231  1  0.41822150  0.00057714  0.00719820  1
  La  La232  1  0.69884713  0.47255142  0.04434819  1
  La  La233  1  0.85487332  0.09664895  0.07093633  1
  La  La234  1  0.55396409  0.82500647  0.01929004  1
  La  La235  1  0.03370330  0.70641045  0.11047036  1
  La  La236  1  0.19893949  0.57776773  0.04441930  1
  La  La237  1  0.35583637  0.95464291  0.07089280  1
  La  La238  1  0.05383958  0.22563772  0.01921200  1
  La  La239  1  0.53344483  0.34399518  0.11062467  1
  La  La240  1  0.37634067  0.96069840  0.16827779  1
  La  La241  1  0.55261451  0.58983197  0.20349827  1
  La  La242  1  0.22015825  0.32834767  0.14312337  1
  La  La243  1  0.72526640  0.20971892  0.23516051  1
  La  La244  1  0.37105552  0.65102903  0.12665381  1
  La  La245  1  0.87058133  0.39970653  0.12663070  1
  La  La246  1  0.87195035  0.90417240  0.12029346  1
  La  La247  1  0.37112823  0.14615766  0.12009895  1
  La  La248  1  0.87648654  0.08964004  0.16832454  1
  La  La249  1  0.05290432  0.46040843  0.20350714  1
  La  La250  1  0.72070210  0.72190046  0.14325209  1
  La  La251  1  0.22499111  0.84034005  0.23499927  1
  La  La252  1  0.06374068  0.46185902  0.29815148  1
  La  La253  1  0.24200791  0.08983108  0.32961169  1
  La  La254  1  0.89889913  0.84063323  0.26672473  1
  La  La255  1  0.40453309  0.71517005  0.35925716  1
  La  La256  1  0.06095944  0.14870878  0.25006658  1
  La  La257  1  0.56064292  0.90156265  0.25007766  1
  La  La258  1  0.56056413  0.39911443  0.25072121  1
  La  La259  1  0.06070428  0.65106099  0.25069152  1
  La  La260  1  0.56353343  0.58816273  0.29815163  1
  La  La261  1  0.74204036  0.96023188  0.32957565  1
  La  La262  1  0.39923422  0.20938718  0.26683353  1
  La  La263  1  0.90467743  0.33489075  0.35930279  1
  La  La264  1  0.75824874  0.95629899  0.42348657  1
  La  La265  1  0.92840926  0.58004209  0.46463246  1
  La  La266  1  0.57926107  0.34054326  0.39391075  1
  La  La267  1  0.08513854  0.20893693  0.48107317  1
  La  La268  1  0.75243085  0.64503847  0.37459324  1
  La  La269  1  0.25262074  0.40502976  0.37454607  1
  La  La270  1  0.25042891  0.90251728  0.37647330  1
  La  La271  1  0.75065393  0.14727224  0.37648356  1
  La  La272  1  0.25829073  0.09350245  0.42368319  1
  La  La273  1  0.42875556  0.46963216  0.46477982  1
  La  La274  1  0.07910341  0.70950406  0.39390179  1
  La  La275  1  0.58545878  0.84082487  0.48100923  1
  La  La276  1  0.62604252  0.57753647  0.54440123  1
  La  La277  1  0.46968583  0.95382407  0.57085439  1
  La  La278  1  0.77115133  0.22535876  0.51926482  1
  La  La279  1  0.29134353  0.34384806  0.61042545  1
  La  La280  1  0.12611872  0.47236875  0.54430359  1
  La  La281  1  0.96896544  0.09571120  0.57093222  1
  La  La282  1  0.27125306  0.82439466  0.51929417  1
  La  La283  1  0.79135302  0.70616350  0.61032580  1
  La  La284  1  0.94912686  0.08938594  0.66828576  1
  La  La285  1  0.77200816  0.46032345  0.70348283  1
  La  La286  1  0.10443322  0.72133523  0.64313630  1
  La  La287  1  0.60054726  0.83990259  0.73486585  1
  La  La288  1  0.95403722  0.39878519  0.62676238  1
  La  La289  1  0.45374188  0.65070444  0.62671850  1
  La  La290  1  0.45332713  0.14615208  0.62014044  1
  La  La291  1  0.95326041  0.90379368  0.62014407  1
  La  La292  1  0.44924725  0.96056921  0.66822374  1
  La  La293  1  0.27214424  0.58934183  0.70347780  1
  La  La294  1  0.60453235  0.32863065  0.64316080  1
  La  La295  1  0.09999433  0.20947393  0.73500517  1
  La  La296  1  0.26095875  0.58810007  0.79825251  1
  La  La297  1  0.08266754  0.95983862  0.82959979  1
  La  La298  1  0.42591367  0.20900645  0.76667433  1
  La  La299  1  0.92017739  0.33474005  0.85932352  1
  La  La300  1  0.26451083  0.90099336  0.75002060  1
  La  La301  1  0.76414637  0.14846914  0.74998633  1
  La  La302  1  0.76480925  0.65085615  0.75066272  1
  La  La303  1  0.26375109  0.39883633  0.75065741  1
  La  La304  1  0.76057110  0.46168289  0.79821340  1
  La  La305  1  0.58250296  0.08945381  0.82952505  1
  La  La306  1  0.92662166  0.84042943  0.76662087  1
  La  La307  1  0.42103831  0.71519477  0.85928835  1
  La  La308  1  0.56654272  0.09348751  0.92343754  1
  La  La309  1  0.39662437  0.46977768  0.96472837  1
  La  La310  1  0.74591113  0.70912771  0.89395597  1
  La  La311  1  0.23971590  0.84086600  0.98109747  1
  La  La312  1  0.57237420  0.40477847  0.87455442  1
  La  La313  1  0.07286685  0.64491615  0.87468395  1
  La  La314  1  0.07404638  0.14711007  0.87633672  1
  La  La315  1  0.57454379  0.90250534  0.87637766  1
  La  La316  1  0.06644681  0.95636698  0.92362815  1
  La  La317  1  0.89676316  0.57984655  0.96469328  1
  La  La318  1  0.24591429  0.34034294  0.89381875  1
  La  La319  1  0.73943972  0.20920171  0.98102896  1
  Zr  Zr320  1  0.79251344  0.29171169  0.05824612  1
  Zr  Zr321  1  0.80724907  0.76990429  0.05865999  1
  Zr  Zr322  1  0.30736794  0.28076592  0.05852715  1
  Zr  Zr323  1  0.29225184  0.75904190  0.05839559  1
  Zr  Zr324  1  0.46789985  0.77734845  0.18758093  1
  Zr  Zr325  1  0.12346231  0.02211739  0.12176898  1
  Zr  Zr326  1  0.11435401  0.52207016  0.12175102  1
  Zr  Zr327  1  0.47037972  0.27436691  0.18845192  1
  Zr  Zr328  1  0.62338904  0.02850162  0.12187608  1
  Zr  Zr329  1  0.61435314  0.52842549  0.12163174  1
  Zr  Zr330  1  0.97052333  0.77603628  0.18834543  1
  Zr  Zr331  1  0.96761605  0.27286853  0.18755024  1
  Zr  Zr332  1  0.15388395  0.27456870  0.31341513  1
  Zr  Zr333  1  0.80938547  0.52491537  0.25036217  1
  Zr  Zr334  1  0.80988968  0.02499284  0.24935956  1
  Zr  Zr335  1  0.15078821  0.77478958  0.31352360  1
  Zr  Zr336  1  0.30924618  0.52499225  0.25027753  1
  Zr  Zr337  1  0.30962524  0.02532174  0.24929639  1
  Zr  Zr338  1  0.65109673  0.27530744  0.31355232  1
  Zr  Zr339  1  0.65359604  0.77569777  0.31336923  1
  Zr  Zr340  1  0.84221308  0.77006314  0.44331897  1
  Zr  Zr341  1  0.49915439  0.02814104  0.37623959  1
  Zr  Zr342  1  0.50601202  0.52518748  0.38106957  1
  Zr  Zr343  1  0.82328804  0.27244846  0.43882836  1
  Zr  Zr344  1  0.99931840  0.02153703  0.37624978  1
  Zr  Zr345  1  0.00605902  0.52477509  0.38108565  1
  Zr  Zr346  1  0.32334875  0.77713699  0.43886567  1
  Zr  Zr347  1  0.34214175  0.27984832  0.44326270  1
  Zr  Zr348  1  0.53260051  0.75864233  0.55844667  1
  Zr  Zr349  1  0.51754094  0.28077539  0.55849511  1
  Zr  Zr350  1  0.01766280  0.76941413  0.55853584  1
  Zr  Zr351  1  0.03253896  0.29125168  0.55832178  1
  Zr  Zr352  1  0.85717238  0.27267840  0.68761987  1
  Zr  Zr353  1  0.20166145  0.02812806  0.62186346  1
  Zr  Zr354  1  0.21031267  0.52811345  0.62165121  1
  Zr  Zr355  1  0.85490359  0.77556095  0.68824137  1
  Zr  Zr356  1  0.70175563  0.02218133  0.62173247  1
  Zr  Zr357  1  0.71061200  0.52171507  0.62177641  1
  Zr  Zr358  1  0.35501429  0.27428679  0.68836972  1
  Zr  Zr359  1  0.35748423  0.77688380  0.68763260  1
  Zr  Zr360  1  0.17201960  0.77547808  0.81341620  1
  Zr  Zr361  1  0.51534401  0.52514578  0.75035642  1
  Zr  Zr362  1  0.51537492  0.02492315  0.74923139  1
  Zr  Zr363  1  0.17375383  0.27526455  0.81344883  1
  Zr  Zr364  1  0.01539191  0.52461677  0.75040816  1
  Zr  Zr365  1  0.01535493  0.02445605  0.74926394  1
  Zr  Zr366  1  0.67479071  0.77455112  0.81346926  1
  Zr  Zr367  1  0.67134696  0.27409814  0.81334158  1
  Zr  Zr368  1  0.48235100  0.27948097  0.94327849  1
  Zr  Zr369  1  0.82571716  0.02152599  0.87616363  1
  Zr  Zr370  1  0.81931423  0.52448445  0.88104032  1
  Zr  Zr371  1  0.50176326  0.77743000  0.93881683  1
  Zr  Zr372  1  0.32552430  0.02799343  0.87614054  1
  Zr  Zr373  1  0.31920130  0.52505066  0.88115957  1
  Zr  Zr374  1  0.00192044  0.27220667  0.93878275  1
  Zr  Zr375  1  0.98243303  0.77014140  0.94344859  1
  O  O376  1  0.96833027  0.81265102  0.07820749  1
  O  O377  1  0.63852832  0.72645782  0.05410356  1
  O  O378  1  0.04779730  0.43386637  0.09669037  1
  O  O379  1  0.01877066  0.97261904  0.08591083  1
  O  O380  1  0.70171077  0.20057249  0.04431251  1
  O  O381  1  0.83923663  0.40159385  0.06963005  1
  O  O382  1  0.03162522  0.58494326  0.08312000  1
  O  O383  1  0.52238664  0.94680343  0.03811995  1
  O  O384  1  0.83071045  0.68414255  0.09527876  1
  O  O385  1  0.76155499  0.85023836  0.02719269  1
  O  O386  1  0.93442539  0.22716942  0.07283117  1
  O  O387  1  0.66291893  0.34940126  0.02954024  1
  O  O388  1  0.24478374  0.75787297  0.10859270  1
  O  O389  1  0.40141448  0.73388643  0.01983908  1
  O  O390  1  0.38718556  0.34294966  0.02545025  1
  O  O391  1  0.21230078  0.22447621  0.10343362  1
  O  O392  1  0.76408997  0.04217896  0.02649907  1
  O  O393  1  0.76474622  0.53238525  0.09204995  1
  O  O394  1  0.73260065  0.97926220  0.08701902  1
  O  O395  1  0.83540641  0.54403367  0.01911545  1
  O  O396  1  0.90207814  0.31691490  0.01977597  1
  O  O397  1  0.74493951  0.29295423  0.10843247  1
  O  O398  1  0.33642130  0.50685313  0.01925747  1
  O  O399  1  0.23212734  0.07166820  0.08693443  1
  O  O400  1  0.26433003  0.51766631  0.09194365  1
  O  O401  1  0.26417215  0.00851283  0.02639024  1
  O  O402  1  0.71305786  0.82601578  0.10356058  1
  O  O403  1  0.88704908  0.70765063  0.02562162  1
  O  O404  1  0.53194344  0.46523956  0.08300639  1
  O  O405  1  0.02273561  0.10380355  0.03841993  1
  O  O406  1  0.33120652  0.36618841  0.09533357  1
  O  O407  1  0.26127728  0.20084626  0.02692770  1
  O  O408  1  0.43402173  0.82359011  0.07288701  1
  O  O409  1  0.16265355  0.70076828  0.02983238  1
  O  O410  1  0.51805570  0.07707859  0.08587874  1
  O  O411  1  0.54764420  0.61637397  0.09646333  1
  O  O412  1  0.13907798  0.32443283  0.05406387  1
  O  O413  1  0.46810180  0.23763705  0.07812357  1
  O  O414  1  0.33886956  0.64900531  0.06977924  1
  O  O415  1  0.20120118  0.84971717  0.04421138  1
  O  O416  1  0.62854809  0.32331934  0.20484269  1
  O  O417  1  0.31117861  0.22796573  0.17134548  1
  O  O418  1  0.16116297  0.62102717  0.14343679  1
  O  O419  1  0.76821836  0.92417624  0.22917702  1
  O  O420  1  0.69030592  0.48310793  0.21559989  1
  O  O421  1  0.23966267  0.06896685  0.15647280  1
  O  O422  1  0.37780531  0.67744841  0.18514012  1
  O  O423  1  0.55422152  0.87715955  0.18882513  1
  O  O424  1  0.71766745  0.08512118  0.21376002  1
  O  O425  1  0.20079049  0.45923346  0.15657068  1
  O  O426  1  0.52045909  0.18398152  0.21570314  1
  O  O427  1  0.41838723  0.36325616  0.15997272  1
  O  O428  1  0.62268839  0.71494438  0.19795385  1
  O  O429  1  0.31270405  0.83701087  0.17894175  1
  O  O430  1  0.00650139  0.11171957  0.12008441  1
  O  O431  1  0.24111815  0.93297226  0.12295079  1
  O  O432  1  0.93501246  0.26308359  0.23753634  1
  O  O433  1  0.00701654  0.28626610  0.13754458  1
  O  O434  1  0.05811243  0.81560813  0.14790435  1
  O  O435  1  0.88705522  0.73131188  0.22973049  1
  O  O436  1  0.45464032  0.53441506  0.14969795  1
  O  O437  1  0.46592699  0.01448360  0.22121644  1
  O  O438  1  0.41723800  0.47988368  0.21365420  1
  O  O439  1  0.51142121  0.07130969  0.15827342  1
  O  O440  1  0.50751193  0.76412293  0.13763080  1
  O  O441  1  0.43493107  0.78722709  0.23755858  1
  O  O442  1  0.01150977  0.97937019  0.15827865  1
  O  O443  1  0.91677649  0.57098970  0.21382240  1
  O  O444  1  0.96607196  0.03578794  0.22122532  1
  O  O445  1  0.95467783  0.51641982  0.14982635  1
  O  O446  1  0.38672707  0.31931607  0.22966264  1
  O  O447  1  0.55861217  0.23570365  0.14800632  1
  O  O448  1  0.50736329  0.93843356  0.12025939  1
  O  O449  1  0.74054153  0.11783472  0.12306177  1
  O  O450  1  0.21789274  0.96474855  0.21362057  1
  O  O451  1  0.70029734  0.59128347  0.15649033  1
  O  O452  1  0.02035356  0.86631239  0.21568105  1
  O  O453  1  0.91967411  0.68753791  0.15949570  1
  O  O454  1  0.12231700  0.33532295  0.19782482  1
  O  O455  1  0.81205840  0.21320208  0.17911528  1
  O  O456  1  0.73954499  0.98135745  0.15659618  1
  O  O457  1  0.19040739  0.56733626  0.21545343  1
  O  O458  1  0.26786867  0.12596122  0.22901049  1
  O  O459  1  0.66025125  0.42933109  0.14348017  1
  O  O460  1  0.81107746  0.82262036  0.17147315  1
  O  O461  1  0.12865823  0.72737568  0.20471370  1
  O  O462  1  0.05370880  0.17317843  0.18857716  1
  O  O463  1  0.87734280  0.37271282  0.18501101  1
  O  O464  1  0.31144992  0.82229525  0.32927019  1
  O  O465  1  0.99313044  0.72603217  0.29609200  1
  O  O466  1  0.85191870  0.12543498  0.26988551  1
  O  O467  1  0.46942196  0.42644073  0.35715331  1
  O  O468  1  0.38515279  0.98114798  0.34179323  1
  O  O469  1  0.92650400  0.56800970  0.28518886  1
  O  O470  1  0.06785469  0.17489659  0.31017537  1
  O  O471  1  0.24436670  0.37573761  0.31749481  1
  O  O472  1  0.41576851  0.58701810  0.34450586  1
  O  O473  1  0.89478796  0.96382599  0.28562835  1
  O  O474  1  0.20974392  0.68587409  0.33998268  1
  O  O475  1  0.10246533  0.86263855  0.28371966  1
  O  O476  1  0.30972792  0.21455111  0.32130770  1
  O  O477  1  0.99997363  0.33788153  0.30367160  1
  O  O478  1  0.69442156  0.61535356  0.24871299  1
  O  O479  1  0.92832930  0.43689968  0.25138081  1
  O  O480  1  0.61227742  0.76447445  0.36247965  1
  O  O481  1  0.68897758  0.78571626  0.26343333  1
  O  O482  1  0.73544876  0.31991837  0.27137895  1
  O  O483  1  0.56097877  0.23645991  0.35380131  1
  O  O484  1  0.14976439  0.03500014  0.27665419  1
  O  O485  1  0.16152801  0.51630285  0.35067103  1
  O  O486  1  0.11012129  0.97743675  0.34006060  1
  O  O487  1  0.19979515  0.57005795  0.28666970  1
  O  O488  1  0.18937688  0.26451783  0.26343437  1
  O  O489  1  0.11189114  0.28565682  0.36251832  1
  O  O490  1  0.69989953  0.48032371  0.28679303  1
  O  O491  1  0.61016422  0.07245619  0.34011112  1
  O  O492  1  0.66180190  0.53391585  0.35076242  1
  O  O493  1  0.64997861  0.01522388  0.27667805  1
  O  O494  1  0.06056336  0.81357561  0.35371797  1
  O  O495  1  0.23529288  0.73036052  0.27127262  1
  O  O496  1  0.19391800  0.43495241  0.24867239  1
  O  O497  1  0.42817230  0.61331686  0.25150244  1
  O  O498  1  0.91556005  0.46292192  0.34452141  1
  O  O499  1  0.39451009  0.08617181  0.28559435  1
  O  O500  1  0.70942449  0.36437364  0.33999220  1
  O  O501  1  0.60287355  0.18728629  0.28379537  1
  O  O502  1  0.80966798  0.83540235  0.32126747  1
  O  O503  1  0.49962335  0.71231994  0.30366157  1
  O  O504  1  0.42646740  0.48204948  0.28508992  1
  O  O505  1  0.88515858  0.06877864  0.34179492  1
  O  O506  1  0.96914792  0.62358283  0.35713713  1
  O  O507  1  0.35147298  0.92475670  0.26979233  1
  O  O508  1  0.49313680  0.32367678  0.29603854  1
  O  O509  1  0.81188932  0.22803311  0.32937671  1
  O  O510  1  0.74447446  0.67445458  0.31741748  1
  O  O511  1  0.56755235  0.87531872  0.31013972  1
  O  O512  1  0.99056625  0.32342332  0.45263532  1
  O  O513  1  0.67748423  0.22967191  0.41562195  1
  O  O514  1  0.55869395  0.62432572  0.40153479  1
  O  O515  1  0.61083283  0.07456077  0.41212138  1
  O  O516  1  0.76262558  0.66166612  0.45801533  1
  O  O517  1  0.92483976  0.86749912  0.43842045  1
  O  O518  1  0.08712110  0.10065223  0.45784740  1
  O  O519  1  0.58770190  0.47030035  0.41996360  1
  O  O520  1  0.86734268  0.18784549  0.46930706  1
  O  O521  1  0.78881197  0.36635501  0.40873647  1
  O  O522  1  0.99241821  0.70716796  0.44833189  1
  O  O523  1  0.68391706  0.82257484  0.42782185  1
  O  O524  1  0.38409950  0.11703106  0.37238662  1
  O  O525  1  0.61355803  0.93749616  0.37824813  1
  O  O526  1  0.28984298  0.24256937  0.48856745  1
  O  O527  1  0.36553113  0.29683655  0.39122971  1
  O  O528  1  0.41836234  0.82352513  0.39746427  1
  O  O529  1  0.22432895  0.73242894  0.47523711  1
  O  O530  1  0.84405569  0.54212718  0.40363723  1
  O  O531  1  0.83690097  0.99848064  0.47401157  1
  O  O532  1  0.82059125  0.47280137  0.46495810  1
  O  O533  1  0.88779631  0.06584567  0.41192347  1
  O  O534  1  0.86571869  0.75307649  0.39125860  1
  O  O535  1  0.79001047  0.80774851  0.48858542  1
  O  O536  1  0.38813138  0.98369412  0.41191242  1
  O  O537  1  0.32144585  0.57684682  0.46486211  1
  O  O538  1  0.33621013  0.05131592  0.47408460  1
  O  O539  1  0.34401758  0.50778139  0.40349234  1
  O  O540  1  0.72425975  0.31702005  0.47521952  1
  O  O541  1  0.91842716  0.22596238  0.39749895  1
  O  O542  1  0.88353205  0.93288944  0.37232297  1
  O  O543  1  0.11328857  0.11226880  0.37833689  1
  O  O544  1  0.58773803  0.94893839  0.45776499  1
  O  O545  1  0.08813998  0.57948169  0.41993228  1
  O  O546  1  0.36771809  0.86167163  0.46930904  1
  O  O547  1  0.28894261  0.68335938  0.40869893  1
  O  O548  1  0.49238607  0.34276522  0.44832912  1
  O  O549  1  0.18406990  0.22703061  0.42784784  1
  O  O550  1  0.11054897  0.97487539  0.41206708  1
  O  O551  1  0.05834406  0.42561605  0.40149332  1
  O  O552  1  0.17752055  0.81992099  0.41562877  1
  O  O553  1  0.49026441  0.72608801  0.45276937  1
  O  O554  1  0.42512812  0.18249429  0.43854538  1
  O  O555  1  0.26273275  0.38833856  0.45797223  1
  O  O556  1  0.35644619  0.23747151  0.57797173  1
  O  O557  1  0.68598928  0.32416897  0.55406308  1
  O  O558  1  0.27686344  0.61635818  0.59668360  1
  O  O559  1  0.30657497  0.07712951  0.58591315  1
  O  O560  1  0.62290325  0.84973373  0.54428806  1
  O  O561  1  0.48613502  0.64862143  0.56994385  1
  O  O562  1  0.29330817  0.46532829  0.58298937  1
  O  O563  1  0.80316987  0.10367524  0.53797251  1
  O  O564  1  0.49364650  0.36610607  0.59521132  1
  O  O565  1  0.56319266  0.20066523  0.52683429  1
  O  O566  1  0.39072569  0.82306730  0.57298337  1
  O  O567  1  0.66216724  0.70074070  0.52981859  1
  O  O568  1  0.08061034  0.29236819  0.60853241  1
  O  O569  1  0.92372927  0.31631917  0.51974321  1
  O  O570  1  0.93745624  0.70716010  0.52555979  1
  O  O571  1  0.11182743  0.82558557  0.60353691  1
  O  O572  1  0.56096490  0.00854678  0.52640501  1
  O  O573  1  0.56078421  0.51728752  0.59197267  1
  O  O574  1  0.59272004  0.07176336  0.58692012  1
  O  O575  1  0.48901869  0.50658233  0.51920930  1
  O  O576  1  0.42272627  0.73287993  0.52010984  1
  O  O577  1  0.58019291  0.75765504  0.60867378  1
  O  O578  1  0.99038418  0.54380242  0.51882190  1
  O  O579  1  0.09269974  0.97865059  0.58702775  1
  O  O580  1  0.06043354  0.53252914  0.59183441  1
  O  O581  1  0.06122424  0.04154881  0.52653345  1
  O  O582  1  0.61193257  0.22458176  0.60353401  1
  O  O583  1  0.43775230  0.34291533  0.52542741  1
  O  O584  1  0.79366848  0.58404618  0.58303003  1
  O  O585  1  0.30278921  0.94632042  0.53821840  1
  O  O586  1  0.99365306  0.68389782  0.59518210  1
  O  O587  1  0.06382120  0.84941298  0.52690898  1
  O  O588  1  0.89057563  0.22694757  0.57294328  1
  O  O589  1  0.16258049  0.34940652  0.52981084  1
  O  O590  1  0.80677623  0.97343381  0.58574258  1
  O  O591  1  0.77669761  0.43285110  0.59702183  1
  O  O592  1  0.18603831  0.72596918  0.55414824  1
  O  O593  1  0.85664758  0.81287884  0.57798223  1
  O  O594  1  0.98531572  0.40137239  0.56970096  1
  O  O595  1  0.12293283  0.20041998  0.54405416  1
  O  O596  1  0.69683758  0.72685315  0.70466813  1
  O  O597  1  0.01431415  0.82201601  0.67138792  1
  O  O598  1  0.16393900  0.42899581  0.64329283  1
  O  O599  1  0.55662419  0.12587690  0.72912797  1
  O  O600  1  0.63439724  0.56713105  0.71552103  1
  O  O601  1  0.08553389  0.98109425  0.65663190  1
  O  O602  1  0.94735280  0.37255264  0.68513561  1
  O  O603  1  0.77102656  0.17294237  0.68886562  1
  O  O604  1  0.60774051  0.96466304  0.71357674  1
  O  O605  1  0.12416051  0.59077251  0.65652424  1
  O  O606  1  0.80499992  0.86598100  0.71557949  1
  O  O607  1  0.90524135  0.68723053  0.65927477  1
  O  O608  1  0.70265185  0.33534108  0.69787057  1
  O  O609  1  0.01281066  0.21305968  0.67904576  1
  O  O610  1  0.31806988  0.93824249  0.62028801  1
  O  O611  1  0.08418995  0.11743064  0.62297761  1
  O  O612  1  0.39071455  0.78671696  0.73752305  1
  O  O613  1  0.31765243  0.76385275  0.63765617  1
  O  O614  1  0.26759762  0.23472482  0.64793670  1
  O  O615  1  0.43802975  0.31899815  0.72973540  1
  O  O616  1  0.87022072  0.51585647  0.64986597  1
  O  O617  1  0.85929294  0.03523983  0.72109442  1
  O  O618  1  0.90808136  0.57072303  0.71385765  1
  O  O619  1  0.81387399  0.97908986  0.65813836  1
  O  O620  1  0.81784298  0.28588324  0.63767911  1
  O  O621  1  0.88998499  0.26278845  0.73759287  1
  O  O622  1  0.31393672  0.07093924  0.65826892  1
  O  O623  1  0.40778904  0.47958201  0.71372507  1
  O  O624  1  0.35923916  0.01410132  0.72117446  1
  O  O625  1  0.37017105  0.53392193  0.64973863  1
  O  O626  1  0.93834954  0.73096728  0.72964200  1
  O  O627  1  0.76723560  0.81522364  0.64779062  1
  O  O628  1  0.81788084  0.11199511  0.62027702  1
  O  O629  1  0.58433180  0.93284815  0.62290767  1
  O  O630  1  0.10746769  0.08484489  0.71372581  1
  O  O631  1  0.62400475  0.45925823  0.65667327  1
  O  O632  1  0.30472913  0.18381838  0.71559296  1
  O  O633  1  0.40575391  0.36269562  0.65951291  1
  O  O634  1  0.20276786  0.71416670  0.69785820  1
  O  O635  1  0.51276428  0.83658386  0.67889184  1
  O  O636  1  0.58546508  0.06888978  0.65651716  1
  O  O637  1  0.13406386  0.48267861  0.71553877  1
  O  O638  1  0.05699357  0.92363039  0.72915284  1
  O  O639  1  0.66400745  0.62081705  0.64335152  1
  O  O640  1  0.51460685  0.22805969  0.67152878  1
  O  O641  1  0.19655501  0.32285198  0.70470545  1
  O  O642  1  0.27105024  0.87658358  0.68886358  1
  O  O643  1  0.44762783  0.67695507  0.68509571  1
  O  O644  1  0.01307928  0.22784959  0.82916487  1
  O  O645  1  0.33179704  0.32378070  0.79599477  1
  O  O646  1  0.47409149  0.92423162  0.76970078  1
  O  O647  1  0.85573323  0.62325579  0.85713749  1
  O  O648  1  0.93969520  0.06880693  0.84173212  1
  O  O649  1  0.39816289  0.48222706  0.78522589  1
  O  O650  1  0.25800746  0.87489281  0.81008688  1
  O  O651  1  0.08096956  0.67410874  0.81747761  1
  O  O652  1  0.90932770  0.46272767  0.84437841  1
  O  O653  1  0.42972779  0.08560048  0.78546103  1
  O  O654  1  0.11529455  0.36414913  0.83998520  1
  O  O655  1  0.22203017  0.18702815  0.78372070  1
  O  O656  1  0.01619950  0.83509775  0.82118710  1
  O  O657  1  0.32623782  0.71208080  0.80366343  1
  O  O658  1  0.62975394  0.43459061  0.74864944  1
  O  O659  1  0.39644076  0.61333815  0.75143991  1
  O  O660  1  0.71294137  0.28522757  0.86244997  1
  O  O661  1  0.63581424  0.26434399  0.76341052  1
  O  O662  1  0.59054296  0.73014994  0.77120344  1
  O  O663  1  0.76463023  0.81357570  0.85364263  1
  O  O664  1  0.17510202  0.01464120  0.77664110  1
  O  O665  1  0.16368347  0.53382176  0.85070800  1
  O  O666  1  0.21443961  0.07219594  0.83999356  1
  O  O667  1  0.12471383  0.47993515  0.78678390  1
  O  O668  1  0.13661646  0.78502001  0.76346663  1
  O  O669  1  0.21325035  0.76407618  0.86257394  1
  O  O670  1  0.62471718  0.56988239  0.78674474  1
  O  O671  1  0.71445123  0.97759765  0.83996589  1
  O  O672  1  0.66326929  0.51584319  0.85067343  1
  O  O673  1  0.67515051  0.03475938  0.77652321  1
  O  O674  1  0.26403796  0.23636093  0.85362478  1
  O  O675  1  0.08942890  0.31979943  0.77125931  1
  O  O676  1  0.13012255  0.61510246  0.74877862  1
  O  O677  1  0.89605112  0.43664675  0.75150217  1
  O  O678  1  0.40929407  0.58714589  0.84470733  1
  O  O679  1  0.93050903  0.96356778  0.78569960  1
  O  O680  1  0.61554151  0.68568212  0.83990839  1
  O  O681  1  0.72300667  0.86257280  0.78375455  1
  O  O682  1  0.51538554  0.21423137  0.82113485  1
  O  O683  1  0.82510236  0.33765409  0.80359874  1
  O  O684  1  0.89833428  0.56786236  0.78524365  1
  O  O685  1  0.43974577  0.98103176  0.84168520  1
  O  O686  1  0.35602491  0.42647028  0.85708126  1
  O  O687  1  0.97321584  0.12494211  0.76978465  1
  O  O688  1  0.83276361  0.72610867  0.79601584  1
  O  O689  1  0.51412322  0.82222787  0.82918537  1
  O  O690  1  0.58066884  0.37540946  0.81742700  1
  O  O691  1  0.75710809  0.17446643  0.81009273  1
  O  O692  1  0.33448138  0.72648578  0.95281892  1
  O  O693  1  0.64750116  0.82002802  0.91556921  1
  O  O694  1  0.76710201  0.42509526  0.90128479  1
  O  O695  1  0.71397370  0.97509506  0.91206352  1
  O  O696  1  0.56227111  0.38828256  0.95787343  1
  O  O697  1  0.39966502  0.18208482  0.93834443  1
  O  O698  1  0.23768538  0.94889189  0.95770316  1
  O  O699  1  0.73723231  0.57916383  0.91992538  1
  O  O700  1  0.45762085  0.86196207  0.96922460  1
  O  O701  1  0.53602783  0.68355359  0.90875705  1
  O  O702  1  0.33259678  0.34251636  0.94830063  1
  O  O703  1  0.64088542  0.22722062  0.92778007  1
  O  O704  1  0.94111106  0.93294528  0.87234298  1
  O  O705  1  0.71101131  0.11212414  0.87825178  1
  O  O706  1  0.03493421  0.80767720  0.98863565  1
  O  O707  1  0.95944716  0.75292194  0.89130418  1
  O  O708  1  0.90661445  0.22578077  0.89741538  1
  O  O709  1  0.10091669  0.31691632  0.97512900  1
  O  O710  1  0.48130998  0.50755108  0.90364217  1
  O  O711  1  0.48877337  0.05113749  0.97389016  1
  O  O712  1  0.50378525  0.57719943  0.96497353  1
  O  O713  1  0.43705615  0.98365626  0.91179542  1
  O  O714  1  0.45914000  0.29667649  0.89118434  1
  O  O715  1  0.53453796  0.24206638  0.98853456  1
  O  O716  1  0.93662109  0.06582240  0.91194021  1
  O  O717  1  0.00458798  0.47276612  0.96485430  1
  O  O718  1  0.98889559  0.99850359  0.97423815  1
  O  O719  1  0.98135208  0.54179307  0.90351709  1
  O  O720  1  0.60072522  0.73290823  0.97526063  1
  O  O721  1  0.40654031  0.82363429  0.89743671  1
  O  O722  1  0.44064741  0.11682467  0.87226745  1
  O  O723  1  0.21128592  0.93725994  0.87825820  1
  O  O724  1  0.73728385  0.10101773  0.95776363  1
  O  O725  1  0.23737687  0.46989539  0.91992882  1
  O  O726  1  0.95751201  0.18786219  0.96931497  1
  O  O727  1  0.03627128  0.36599641  0.90867547  1
  O  O728  1  0.83239472  0.70695940  0.94835122  1
  O  O729  1  0.14081497  0.82253843  0.92793466  1
  O  O730  1  0.21395824  0.07424350  0.91200173  1
  O  O731  1  0.26560242  0.62375533  0.90200299  1
  O  O732  1  0.14752040  0.22937930  0.91548530  1
  O  O733  1  0.83464171  0.32311790  0.95258361  1
  O  O734  1  0.89996192  0.86746509  0.93853782  1
  O  O735  1  0.06194050  0.66151975  0.95831464  1
