# generated using pymatgen
data_Li36P10O43
_symmetry_space_group_name_H-M   'P 1'
_cell_length_a   6.15119200
_cell_length_b   14.50933100
_cell_length_c   43.45376800
_cell_angle_alpha   90.00000000
_cell_angle_beta   90.00000000
_cell_angle_gamma   90.00000000
_symmetry_Int_Tables_number   1
_chemical_formula_structural   Li36P10O43
_chemical_formula_sum   'Li72 P20 O86'
_cell_volume   3878.23492236
_cell_formula_units_Z   2
loop_
 _symmetry_equiv_pos_site_id
 _symmetry_equiv_pos_as_xyz
  1  'x, y, z'
loop_
 _atom_site_type_symbol
 _atom_site_label
 _atom_site_symmetry_multiplicity
 _atom_site_fract_x
 _atom_site_fract_y
 _atom_site_fract_z
 _atom_site_occupancy
  Li  Li0  1  0.47084867  0.73700245  0.04205913  1
  Li  Li1  1  0.46870378  0.01705064  0.05642401  1
  Li  Li2  1  0.44679983  0.49999404  0.04835273  1
  Li  Li3  1  0.31761769  0.14583859  0.02329489  1
  Li  Li4  1  0.00697061  0.04746918  0.04754363  1
  Li  Li5  1  0.03262137  0.50680169  0.05664302  1
  Li  Li6  1  0.07108557  0.91516419  0.02087231  1
  Li  Li7  1  0.03107780  0.73636459  0.04199220  1
  Li  Li8  1  0.42903062  0.91377558  0.01745461  1
  Li  Li9  1  0.24995049  0.85263221  0.07516733  1
  Li  Li10  1  0.29091234  0.36282012  0.06513720  1
  Li  Li11  1  0.02338230  0.35077832  0.02758823  1
  Li  Li12  1  0.49820323  0.48891668  0.12128160  1
  Li  Li13  1  0.50240463  0.80658138  0.12589318  1
  Li  Li14  1  0.49833459  0.28455593  0.13447600  1
  Li  Li15  1  0.49929129  0.01647513  0.11637717  1
  Li  Li16  1  0.99874851  0.01432685  0.11518013  1
  Li  Li17  1  0.99256613  0.28865459  0.13371425  1
  Li  Li18  1  0.00479515  0.80419649  0.12576759  1
  Li  Li19  1  0.00532283  0.49167692  0.12371261  1
  Li  Li20  1  0.74883761  0.67240200  0.08679774  1
  Li  Li21  1  0.25332446  0.61779573  0.16177562  1
  Li  Li22  1  0.24590016  0.14416859  0.15333988  1
  Li  Li23  1  0.74715972  0.15971712  0.09602689  1
  Li  Li24  1  0.49591916  0.25475513  0.20598683  1
  Li  Li25  1  0.50352557  0.57041490  0.21008824  1
  Li  Li26  1  0.50040934  0.04415880  0.21933974  1
  Li  Li27  1  0.49882360  0.77998964  0.19715614  1
  Li  Li28  1  0.00188482  0.77954090  0.19712764  1
  Li  Li29  1  0.99823011  0.04421955  0.21960805  1
  Li  Li30  1  0.99709376  0.57009113  0.20996370  1
  Li  Li31  1  0.00395467  0.25502866  0.20597143  1
  Li  Li32  1  0.74739584  0.44329808  0.17078174  1
  Li  Li33  1  0.24990509  0.38090220  0.24618421  1
  Li  Li34  1  0.24926118  0.90300246  0.23808897  1
  Li  Li35  1  0.75089809  0.92239338  0.17887422  1
  Li  Li36  1  0.49506828  0.01665503  0.28997560  1
  Li  Li37  1  0.50248541  0.33244775  0.29401393  1
  Li  Li38  1  0.50193897  0.80670068  0.30272994  1
  Li  Li39  1  0.49871470  0.54194543  0.28073932  1
  Li  Li40  1  0.00178403  0.54186795  0.28065401  1
  Li  Li41  1  0.99808676  0.80777674  0.30254693  1
  Li  Li42  1  0.99660488  0.33184718  0.29417736  1
  Li  Li43  1  0.00198762  0.01722512  0.29013524  1
  Li  Li44  1  0.74864742  0.20538585  0.25398649  1
  Li  Li45  1  0.25243628  0.14395727  0.32943662  1
  Li  Li46  1  0.24857714  0.66499527  0.32130989  1
  Li  Li47  1  0.75009539  0.68346213  0.26226822  1
  Li  Li48  1  0.49783796  0.78273348  0.37395097  1
  Li  Li49  1  0.50025712  0.09911813  0.37910909  1
  Li  Li50  1  0.50148879  0.57167346  0.38379460  1
  Li  Li51  1  0.50139993  0.30353620  0.36517585  1
  Li  Li52  1  0.00673862  0.29924934  0.36638568  1
  Li  Li53  1  0.00213477  0.57278041  0.38523468  1
  Li  Li54  1  0.99361879  0.09597370  0.37598820  1
  Li  Li55  1  0.99651556  0.78359004  0.37423615  1
  Li  Li56  1  0.74499078  0.97011391  0.33828546  1
  Li  Li57  1  0.25142830  0.91542831  0.41345366  1
  Li  Li58  1  0.25611158  0.42831529  0.40400046  1
  Li  Li59  1  0.75419605  0.44324367  0.34682597  1
  Li  Li60  1  0.53383048  0.57175178  0.44364859  1
  Li  Li61  1  0.52826669  0.85111319  0.45760029  1
  Li  Li62  1  0.68039794  0.44262294  0.47620908  1
  Li  Li63  1  0.55351802  0.08848247  0.45149841  1
  Li  Li64  1  0.96911637  0.08210859  0.44248174  1
  Li  Li65  1  0.99751690  0.53861924  0.45321814  1
  Li  Li66  1  0.96730162  0.85235543  0.45796996  1
  Li  Li67  1  0.92809315  0.67273723  0.47836512  1
  Li  Li68  1  0.75003913  0.73489669  0.42470283  1
  Li  Li69  1  0.57176488  0.67427456  0.48299125  1
  Li  Li70  1  0.97356246  0.23824279  0.47227380  1
  Li  Li71  1  0.71664343  0.22413829  0.43360597  1
  P  P72  1  0.75563488  0.88441359  0.06939393  1
  P  P73  1  0.75414569  0.36003035  0.08134204  1
  P  P74  1  0.25342375  0.64703750  0.09188512  1
  P  P75  1  0.75022588  0.65085036  0.15496928  1
  P  P76  1  0.74897608  0.12321781  0.16562713  1
  P  P77  1  0.24511821  0.17312129  0.08462497  1
  P  P78  1  0.24976882  0.41253085  0.17767839  1
  P  P79  1  0.74965275  0.41259196  0.23921778  1
  P  P80  1  0.74970706  0.88601443  0.24879140  1
  P  P81  1  0.24939246  0.93735874  0.16771328  1
  P  P82  1  0.24937413  0.17408694  0.26090045  1
  P  P83  1  0.74943585  0.17511556  0.32235752  1
  P  P84  1  0.75066038  0.64961076  0.33241852  1
  P  P85  1  0.25013042  0.70078365  0.25116909  1
  P  P86  1  0.24889024  0.93669022  0.34501262  1
  P  P87  1  0.74644582  0.94108907  0.40798318  1
  P  P88  1  0.75670038  0.41452479  0.41557201  1
  P  P89  1  0.25135311  0.46398674  0.33451573  1
  P  P90  1  0.24446578  0.70336447  0.43061444  1
  P  P91  1  0.24553522  0.22850458  0.41852265  1
  O  O92  1  0.45556784  0.63166835  0.07059644  1
  O  O93  1  0.45374684  0.11075006  0.08476712  1
  O  O94  1  0.03798110  0.11020520  0.08435510  1
  O  O95  1  0.04254920  0.63504761  0.07211387  1
  O  O96  1  0.74912176  0.78433609  0.05661072  1
  O  O97  1  0.25930864  0.02073617  0.02482090  1
  O  O98  1  0.21292380  0.44288930  0.03322538  1
  O  O99  1  0.77365643  0.31624947  0.04942009  1
  O  O100  1  0.25131653  0.81737148  0.03230422  1
  O  O101  1  0.76601920  0.95327454  0.04134154  1
  O  O102  1  0.24748845  0.23186184  0.05485615  1
  O  O103  1  0.45482286  0.39975557  0.15705029  1
  O  O104  1  0.54245017  0.90680018  0.08769938  1
  O  O105  1  0.54356486  0.42070089  0.08373468  1
  O  O106  1  0.45821669  0.87709964  0.16356600  1
  O  O107  1  0.04333075  0.87559327  0.16380092  1
  O  O108  1  0.95375974  0.42207432  0.08881686  1
  O  O109  1  0.95673903  0.89828951  0.09049081  1
  O  O110  1  0.04055086  0.40029330  0.15798531  1
  O  O111  1  0.74825159  0.55286774  0.14079342  1
  O  O112  1  0.25859290  0.74714602  0.10517163  1
  O  O113  1  0.24452176  0.23077646  0.11466786  1
  O  O114  1  0.74994852  0.07038660  0.13452097  1
  O  O115  1  0.25387706  0.57659363  0.11880030  1
  O  O116  1  0.75063900  0.72443392  0.12853926  1
  O  O117  1  0.74124139  0.28490218  0.10753286  1
  O  O118  1  0.24764130  0.01283594  0.14220020  1
  O  O119  1  0.45565977  0.16139396  0.24045098  1
  O  O120  1  0.54421267  0.66483187  0.17539650  1
  O  O121  1  0.54029850  0.18392800  0.16797430  1
  O  O122  1  0.45756680  0.63976639  0.24799826  1
  O  O123  1  0.04285011  0.63968356  0.24790588  1
  O  O124  1  0.95500040  0.18528680  0.16804431  1
  O  O125  1  0.95822969  0.66384203  0.17508032  1
  O  O126  1  0.04263280  0.16148617  0.24054391  1
  O  O127  1  0.74963742  0.31489631  0.22456999  1
  O  O128  1  0.25160221  0.51104282  0.19190746  1
  O  O129  1  0.24935336  0.98275821  0.20004732  1
  O  O130  1  0.75039971  0.83883180  0.21661745  1
  O  O131  1  0.25136812  0.33851706  0.20375115  1
  O  O132  1  0.74984888  0.48750552  0.21336944  1
  O  O133  1  0.74985128  0.05098203  0.19238302  1
  O  O134  1  0.25023369  0.77480438  0.22506773  1
  O  O135  1  0.45522861  0.92225002  0.32466663  1
  O  O136  1  0.54304191  0.42516770  0.25961233  1
  O  O137  1  0.54226197  0.94696744  0.25210602  1
  O  O138  1  0.46014885  0.40331848  0.33206392  1
  O  O139  1  0.04533910  0.40195954  0.33211280  1
  O  O140  1  0.95706917  0.94698436  0.25228056  1
  O  O141  1  0.95613628  0.42501289  0.25965206  1
  O  O142  1  0.04098265  0.92345525  0.32490995  1
  O  O143  1  0.74756192  0.07647858  0.30818932  1
  O  O144  1  0.24960238  0.27188690  0.27548954  1
  O  O145  1  0.24983720  0.74863643  0.28326383  1
  O  O146  1  0.75014836  0.60365982  0.30016526  1
  O  O147  1  0.24959131  0.09947481  0.28683044  1
  O  O148  1  0.74723134  0.24893228  0.29624137  1
  O  O149  1  0.74948763  0.81160162  0.27476483  1
  O  O150  1  0.25007095  0.53619500  0.30777585  1
  O  O151  1  0.45789068  0.68104208  0.41236448  1
  O  O152  1  0.54480345  0.18782771  0.34306736  1
  O  O153  1  0.54154786  0.70975891  0.33655999  1
  O  O154  1  0.45494689  0.16713100  0.41631341  1
  O  O155  1  0.04480376  0.16733542  0.41060935  1
  O  O156  1  0.95622422  0.71182932  0.33610902  1
  O  O157  1  0.95904724  0.18772545  0.34194252  1
  O  O158  1  0.04351913  0.68928643  0.40951093  1
  O  O159  1  0.74179830  0.84098931  0.39469136  1
  O  O160  1  0.25100873  0.03481644  0.35910089  1
  O  O161  1  0.25117374  0.51676771  0.36564203  1
  O  O162  1  0.75594945  0.35723929  0.38543991  1
  O  O163  1  0.24860683  0.86353249  0.37156677  1
  O  O164  1  0.74533476  0.01167046  0.38110471  1
  O  O165  1  0.75367523  0.57454402  0.35806306  1
  O  O166  1  0.26066643  0.30359043  0.39238420  1
  O  O167  1  0.54410853  0.95631558  0.42924025  1
  O  O168  1  0.54851363  0.47725469  0.41559748  1
  O  O169  1  0.96441073  0.47706455  0.41601925  1
  O  O170  1  0.95734903  0.95333597  0.42770707  1
  O  O171  1  0.74210821  0.56726172  0.47525513  1
  O  O172  1  0.25001722  0.80355306  0.44331678  1
  O  O173  1  0.22436772  0.27192581  0.45044311  1
  O  O174  1  0.78889536  0.14486487  0.46617179  1
  O  O175  1  0.23429944  0.63466110  0.45871513  1
  O  O176  1  0.74764669  0.77074561  0.46751730  1
  O  O177  1  0.75354972  0.35521118  0.44519989  1
