# generated using pymatgen
data_Li3PO4
_symmetry_space_group_name_H-M   'P 1'
_cell_length_a   6.15119200
_cell_length_b   10.55485100
_cell_length_c   49.77846400
_cell_angle_alpha   90.00000000
_cell_angle_beta   90.00000000
_cell_angle_gamma   90.00000000
_symmetry_Int_Tables_number   1
_chemical_formula_structural   Li3PO4
_chemical_formula_sum   'Li60 P20 O80'
_cell_volume   3231.86254564
_cell_formula_units_Z   20
loop_
 _symmetry_equiv_pos_site_id
 _symmetry_equiv_pos_as_xyz
  1  'x, y, z'
loop_
 _atom_site_type_symbol
 _atom_site_label
 _atom_site_symmetry_multiplicity
 _atom_site_fract_x
 _atom_site_fract_y
 _atom_site_fract_z
 _atom_site_occupancy
  Li  Li0  1  0.53247097  0.82817270  0.05493254  1
  Li  Li1  1  0.50850159  0.16224786  0.09372167  1
  Li  Li2  1  0.51696586  0.33598427  0.04664412  1
  Li  Li3  1  0.98303092  0.33598448  0.04664441  1
  Li  Li4  1  0.99149455  0.16225040  0.09372110  1
  Li  Li5  1  0.96753117  0.82817466  0.05493286  1
  Li  Li6  1  0.75000191  0.92955902  0.09426827  1
  Li  Li7  1  0.25000251  0.10816903  0.05484613  1
  Li  Li8  1  0.24999047  0.58365306  0.04823494  1
  Li  Li9  1  0.49725992  0.83623326  0.15460718  1
  Li  Li10  1  0.50138223  0.16276606  0.19456197  1
  Li  Li11  1  0.50275880  0.66255313  0.10425539  1
  Li  Li12  1  0.49821292  0.33572675  0.14432321  1
  Li  Li13  1  0.00178223  0.33572997  0.14432205  1
  Li  Li14  1  0.99721790  0.66248445  0.10424493  1
  Li  Li15  1  0.99861809  0.16276653  0.19456191  1
  Li  Li16  1  0.00274084  0.83623111  0.15460640  1
  Li  Li17  1  0.74999996  0.92326194  0.19488813  1
  Li  Li18  1  0.24999996  0.07448350  0.15400321  1
  Li  Li19  1  0.24999573  0.57344423  0.14407003  1
  Li  Li20  1  0.74990360  0.42521061  0.10386948  1
  Li  Li21  1  0.49813860  0.83588392  0.25525658  1
  Li  Li22  1  0.50190562  0.16400516  0.29472735  1
  Li  Li23  1  0.50204113  0.66252259  0.20489522  1
  Li  Li24  1  0.49799587  0.33615966  0.24452955  1
  Li  Li25  1  0.00200758  0.33615960  0.24452951  1
  Li  Li26  1  0.99795709  0.66252624  0.20489475  1
  Li  Li27  1  0.99809174  0.16400725  0.29472768  1
  Li  Li28  1  0.00186165  0.83588429  0.25525660  1
  Li  Li29  1  0.74999911  0.92588617  0.29539937  1
  Li  Li30  1  0.25000033  0.07390284  0.25461518  1
  Li  Li31  1  0.25000002  0.57457587  0.24518806  1
  Li  Li32  1  0.75000130  0.42485161  0.20407295  1
  Li  Li33  1  0.49860890  0.83711889  0.35542976  1
  Li  Li34  1  0.50260772  0.16397346  0.39538889  1
  Li  Li35  1  0.50162487  0.66320565  0.30544128  1
  Li  Li36  1  0.49807623  0.33728961  0.34508369  1
  Li  Li37  1  0.00192616  0.33729026  0.34508345  1
  Li  Li38  1  0.99837909  0.66320487  0.30544152  1
  Li  Li39  1  0.99739746  0.16397284  0.39538873  1
  Li  Li40  1  0.00139673  0.83711806  0.35543040  1
  Li  Li41  1  0.75000214  0.92592171  0.39574207  1
  Li  Li42  1  0.25000011  0.07609436  0.35484493  1
  Li  Li43  1  0.25000156  0.57514471  0.34596005  1
  Li  Li44  1  0.75000197  0.42562090  0.30476801  1
  Li  Li45  1  0.49153184  0.83786640  0.45626616  1
  Li  Li46  1  0.46753526  0.17185509  0.49506980  1
  Li  Li47  1  0.50187782  0.66421880  0.40571089  1
  Li  Li48  1  0.49656797  0.33799735  0.44592407  1
  Li  Li49  1  0.00344365  0.33799405  0.44592405  1
  Li  Li50  1  0.99812342  0.66421863  0.40571116  1
  Li  Li51  1  0.03249328  0.17185858  0.49507368  1
  Li  Li52  1  0.00847887  0.83786213  0.45626602  1
  Li  Li53  1  0.74999981  0.89196415  0.49514263  1
  Li  Li54  1  0.25001771  0.07051300  0.45572491  1
  Li  Li55  1  0.25000345  0.57505770  0.44611930  1
  Li  Li56  1  0.75002109  0.42651763  0.40595955  1
  Li  Li57  1  0.48304887  0.66406070  0.50337692  1
  Li  Li58  1  0.01694667  0.66406843  0.50337645  1
  Li  Li59  1  0.74999824  0.41637510  0.50179348  1
  P  P60  1  0.74999331  0.09029664  0.04163018  1
  P  P61  1  0.74997421  0.58662179  0.05558499  1
  P  P62  1  0.24998448  0.40917630  0.09314029  1
  P  P63  1  0.24999415  0.91177706  0.10406483  1
  P  P64  1  0.74999985  0.08824609  0.14415950  1
  P  P65  1  0.74999159  0.58824941  0.15496769  1
  P  P66  1  0.25000663  0.41065350  0.19394359  1
  P  P67  1  0.24999908  0.91024260  0.20530159  1
  P  P68  1  0.75000021  0.08820146  0.24421823  1
  P  P69  1  0.75000206  0.58841962  0.25550162  1
  P  P70  1  0.25000220  0.41141199  0.29447344  1
  P  P71  1  0.24999780  0.91145117  0.30575832  1
  P  P72  1  0.74999996  0.08969123  0.34463627  1
  P  P73  1  0.75000263  0.58924335  0.35605783  1
  P  P74  1  0.25000153  0.41175749  0.39507355  1
  P  P75  1  0.25000709  0.91186146  0.40578842  1
  P  P76  1  0.75004107  0.08850495  0.44593097  1
  P  P77  1  0.75000733  0.59089674  0.45687363  1
  P  P78  1  0.24999957  0.41366128  0.49456142  1
  P  P79  1  0.25000473  0.90971931  0.50836708  1
  O  O80  1  0.45634862  0.84118879  0.09365891  1
  O  O81  1  0.54399416  0.16036369  0.05430096  1
  O  O82  1  0.53995321  0.65627515  0.04625422  1
  O  O83  1  0.95999467  0.65628826  0.04625599  1
  O  O84  1  0.95602061  0.16036234  0.05429592  1
  O  O85  1  0.04365955  0.84117440  0.09365906  1
  O  O86  1  0.75000893  0.95247342  0.05459635  1
  O  O87  1  0.24999125  0.05021861  0.09341179  1
  O  O88  1  0.74999508  0.44705329  0.04621302  1
  O  O89  1  0.74995671  0.09127622  0.01174103  1
  O  O90  1  0.74996247  0.58873293  0.08732107  1
  O  O91  1  0.24999999  0.40673523  0.06159538  1
  O  O92  1  0.45675466  0.83997748  0.19492818  1
  O  O93  1  0.54291438  0.15837149  0.15443199  1
  O  O94  1  0.54268221  0.65834582  0.14464505  1
  O  O95  1  0.45685048  0.33977236  0.10364539  1
  O  O96  1  0.04311725  0.33977743  0.10364520  1
  O  O97  1  0.95729289  0.65834141  0.14464187  1
  O  O98  1  0.95707936  0.15837578  0.15443225  1
  O  O99  1  0.04324139  0.83998118  0.19492787  1
  O  O100  1  0.75000354  0.94918204  0.15447095  1
  O  O101  1  0.24999873  0.04896407  0.19479765  1
  O  O102  1  0.25000194  0.54893940  0.10310668  1
  O  O103  1  0.74998139  0.44904983  0.14469539  1
  O  O104  1  0.25000174  0.91137738  0.13543437  1
  O  O105  1  0.74999975  0.08908135  0.11285218  1
  O  O106  1  0.74999846  0.58916765  0.18634952  1
  O  O107  1  0.25000651  0.41033311  0.16256531  1
  O  O108  1  0.45701474  0.84102003  0.29550965  1
  O  O109  1  0.54297069  0.15866890  0.25446870  1
  O  O110  1  0.54297421  0.65861485  0.24518269  1
  O  O111  1  0.45694928  0.34034654  0.20425255  1
  O  O112  1  0.04306077  0.34034869  0.20425277  1
  O  O113  1  0.95701758  0.65861859  0.24518178  1
  O  O114  1  0.95702965  0.15866953  0.25446879  1
  O  O115  1  0.04298154  0.84101949  0.29551111  1
  O  O116  1  0.75000232  0.94964372  0.25483504  1
  O  O117  1  0.24999447  0.05010415  0.29517483  1
  O  O118  1  0.24999693  0.54923932  0.20450298  1
  O  O119  1  0.75000393  0.44963187  0.24501966  1
  O  O120  1  0.25000013  0.90976071  0.23666355  1
  O  O121  1  0.74999923  0.08799593  0.21286231  1
  O  O122  1  0.75000522  0.58929070  0.28686752  1
  O  O123  1  0.25000178  0.41065316  0.26310871  1
  O  O124  1  0.45714159  0.84168373  0.39552947  1
  O  O125  1  0.54322370  0.15983885  0.35502320  1
  O  O126  1  0.54304808  0.65952010  0.34574121  1
  O  O127  1  0.45701824  0.34122960  0.30478713  1
  O  O128  1  0.04298494  0.34122338  0.30478744  1
  O  O129  1  0.95695871  0.65951969  0.34574161  1
  O  O130  1  0.95677686  0.15984026  0.35502292  1
  O  O131  1  0.04286796  0.84168538  0.39553149  1
  O  O132  1  0.75000898  0.95085796  0.35508283  1
  O  O133  1  0.24999919  0.05085808  0.39545185  1
  O  O134  1  0.25000524  0.55014542  0.30497719  1
  O  O135  1  0.75000287  0.45065331  0.34548984  1
  O  O136  1  0.25000004  0.91154544  0.33711237  1
  O  O137  1  0.74999456  0.09025786  0.31327485  1
  O  O138  1  0.75000118  0.58957605  0.38743467  1
  O  O139  1  0.24999788  0.41059364  0.36368657  1
  O  O140  1  0.45598211  0.83965841  0.49568944  1
  O  O141  1  0.54372846  0.15915808  0.45634715  1
  O  O142  1  0.54316891  0.66032493  0.44636629  1
  O  O143  1  0.45724875  0.34176650  0.40543948  1
  O  O144  1  0.04273630  0.34177347  0.40543866  1
  O  O145  1  0.95684360  0.66032409  0.44636735  1
  O  O146  1  0.95643788  0.15910859  0.45633840  1
  O  O147  1  0.04402036  0.83967201  0.49569134  1
  O  O148  1  0.74999472  0.95009887  0.45661681  1
  O  O149  1  0.25000334  0.04757521  0.49540261  1
  O  O150  1  0.24999535  0.55105307  0.40530275  1
  O  O151  1  0.75000409  0.45114917  0.44691186  1
  O  O152  1  0.25002315  0.91108625  0.43709904  1
  O  O153  1  0.74999733  0.08877254  0.41455864  1
  O  O154  1  0.75000275  0.59327400  0.48841939  1
  O  O155  1  0.25001744  0.41224484  0.46282294  1
  O  O156  1  0.46001380  0.34375226  0.50380535  1
  O  O157  1  0.03995646  0.34374200  0.50379849  1
  O  O158  1  0.24997279  0.55298491  0.50409134  1
  O  O159  1  0.25002742  0.90872704  0.53825382  1
