# generated using pymatgen
data_Li3PO4
_symmetry_space_group_name_H-M   'P 1'
_cell_length_a   7.91303400
_cell_length_b   11.66978227
_cell_length_c   43.59685200
_cell_angle_alpha   90.00000000
_cell_angle_beta   90.00000000
_cell_angle_gamma   74.43479159
_symmetry_Int_Tables_number   1
_chemical_formula_structural   Li3PO4
_chemical_formula_sum   'Li78 P26 O104'
_cell_volume   3878.23441823
_cell_formula_units_Z   26
loop_
 _symmetry_equiv_pos_site_id
 _symmetry_equiv_pos_as_xyz
  1  'x, y, z'
loop_
 _atom_site_type_symbol
 _atom_site_label
 _atom_site_symmetry_multiplicity
 _atom_site_fract_x
 _atom_site_fract_y
 _atom_site_fract_z
 _atom_site_occupancy
  Li  Li0  1  0.37017271  0.93249968  0.01422746  1
  Li  Li1  1  0.20265664  0.05008288  0.06643452  1
  Li  Li2  1  0.32600451  0.24092242  0.05892499  1
  Li  Li3  1  0.66608858  0.23049208  0.07693960  1
  Li  Li4  1  0.68881512  0.55221565  0.07648877  1
  Li  Li5  1  0.86248100  0.11462830  0.02549832  1
  Li  Li6  1  0.82633732  0.81616168  0.02614394  1
  Li  Li7  1  0.47796044  0.81946214  0.06365921  1
  Li  Li8  1  0.15902621  0.16751140  0.01683047  1
  Li  Li9  1  0.22196541  0.45854953  0.03885561  1
  Li  Li10  1  0.11779395  0.71534945  0.08515718  1
  Li  Li11  1  0.87327429  0.94590601  0.14800247  1
  Li  Li12  1  0.01657677  0.49797009  0.11461970  1
  Li  Li13  1  0.98810653  0.15991912  0.12213763  1
  Li  Li14  1  0.31479783  0.09865678  0.16400723  1
  Li  Li15  1  0.33744487  0.43917820  0.15880747  1
  Li  Li16  1  0.53975551  0.00878530  0.10603420  1
  Li  Li17  1  0.45024423  0.65043196  0.13010135  1
  Li  Li18  1  0.11417156  0.70740184  0.14941555  1
  Li  Li19  1  0.86751704  0.95190838  0.08673892  1
  Li  Li20  1  0.74216693  0.39718152  0.12176944  1
  Li  Li21  1  0.26038324  0.25983916  0.12052385  1
  Li  Li22  1  0.77482288  0.59111535  0.17132319  1
  Li  Li23  1  0.52441003  0.83181642  0.23271800  1
  Li  Li24  1  0.66278573  0.37909278  0.19953819  1
  Li  Li25  1  0.64003987  0.04341290  0.20494291  1
  Li  Li26  1  0.96578312  0.98438747  0.24702092  1
  Li  Li27  1  0.98533979  0.32138940  0.24151149  1
  Li  Li28  1  0.19657459  0.89067391  0.19009240  1
  Li  Li29  1  0.10309777  0.53182292  0.21451997  1
  Li  Li30  1  0.76783066  0.59178644  0.23395509  1
  Li  Li31  1  0.53236415  0.83055115  0.17016657  1
  Li  Li32  1  0.39345280  0.28194179  0.20478241  1
  Li  Li33  1  0.91188731  0.14052341  0.19985421  1
  Li  Li34  1  0.42668840  0.47250395  0.25594143  1
  Li  Li35  1  0.17655898  0.71376956  0.31646004  1
  Li  Li36  1  0.31467834  0.26067910  0.28315488  1
  Li  Li37  1  0.28936032  0.92559463  0.28897998  1
  Li  Li38  1  0.61750308  0.86612220  0.33091128  1
  Li  Li39  1  0.63836878  0.20172740  0.32516239  1
  Li  Li40  1  0.84751636  0.77399256  0.27419899  1
  Li  Li41  1  0.75527495  0.41259951  0.29838920  1
  Li  Li42  1  0.42019698  0.47372417  0.31799117  1
  Li  Li43  1  0.18308671  0.71295650  0.25439118  1
  Li  Li44  1  0.04274969  0.16488382  0.28837353  1
  Li  Li45  1  0.56131539  0.02187254  0.28397804  1
  Li  Li46  1  0.07914490  0.35489677  0.33968586  1
  Li  Li47  1  0.82823717  0.59541575  0.40092376  1
  Li  Li48  1  0.96384345  0.14274229  0.36742729  1
  Li  Li49  1  0.94071808  0.80712686  0.37258998  1
  Li  Li50  1  0.26599701  0.74707450  0.41370057  1
  Li  Li51  1  0.28960489  0.08742832  0.40807576  1
  Li  Li52  1  0.49978635  0.65450783  0.35803915  1
  Li  Li53  1  0.40800195  0.29633744  0.38213181  1
  Li  Li54  1  0.07178625  0.35536122  0.40193559  1
  Li  Li55  1  0.83528660  0.59462451  0.33843861  1
  Li  Li56  1  0.69244550  0.04604434  0.37236210  1
  Li  Li57  1  0.21176799  0.90397270  0.36760903  1
  Li  Li58  1  0.73097036  0.23989253  0.42415996  1
  Li  Li59  1  0.48612911  0.47088079  0.48698930  1
  Li  Li60  1  0.61629411  0.02597191  0.45011173  1
  Li  Li61  1  0.58775030  0.68819456  0.45784708  1
  Li  Li62  1  0.91627639  0.63354419  0.49569328  1
  Li  Li63  1  0.93871306  0.95559146  0.49538899  1
  Li  Li64  1  0.15381720  0.53564773  0.44201388  1
  Li  Li65  1  0.06425371  0.17697800  0.46618969  1
  Li  Li66  1  0.73845029  0.23520659  0.48546727  1
  Li  Li67  1  0.48968799  0.47850280  0.42310055  1
  Li  Li68  1  0.34355419  0.92680072  0.45189193  1
  Li  Li69  1  0.86291973  0.78865684  0.45039979  1
  Li  Li70  1  0.40171506  0.13583704  0.50567951  1
  Li  Li71  1  0.23541970  0.25446580  0.55792540  1
  Li  Li72  1  0.27877354  0.94522282  0.51349142  1
  Li  Li73  1  0.77875867  0.36991818  0.54596987  1
  Li  Li74  1  0.74305037  0.07266325  0.54676692  1
  Li  Li75  1  0.44737491  0.02006427  0.55539139  1
  Li  Li76  1  0.12684220  0.36656179  0.50840338  1
  Li  Li77  1  0.38737332  0.72610945  0.53349144  1
  P  P78  1  0.10465826  0.86834377  0.02859566  1
  P  P79  1  0.57601368  0.04281711  0.03630428  1
  P  P80  1  0.98969655  0.30913424  0.06404191  1
  P  P81  1  0.75627895  0.74251306  0.11479638  1
  P  P82  1  0.23674508  0.91099889  0.12072231  1
  P  P83  1  0.37234580  0.46108642  0.09059265  1
  P  P84  1  0.62780504  0.19700374  0.14801600  1
  P  P85  1  0.41153290  0.62693147  0.19969165  1
  P  P86  1  0.88865461  0.79562550  0.20476314  1
  P  P87  1  0.02441755  0.34205537  0.17302452  1
  P  P88  1  0.27761677  0.08049373  0.23206856  1
  P  P89  1  0.06286523  0.50883913  0.28357642  1
  P  P90  1  0.54050594  0.67789904  0.28886004  1
  P  P91  1  0.67585668  0.22409090  0.25642749  1
  P  P92  1  0.92852787  0.96240761  0.31586439  1
  P  P93  1  0.71511996  0.39075402  0.36756372  1
  P  P94  1  0.19217485  0.55955706  0.37266152  1
  P  P95  1  0.32627033  0.10619009  0.34017449  1
  P  P96  1  0.57998458  0.84423938  0.39934594  1
  P  P97  1  0.36756477  0.27493240  0.45142014  1
  P  P98  1  0.84818044  0.44362768  0.45735464  1
  P  P99  1  0.97648117  0.98899194  0.42421463  1
  P  P100  1  0.23264730  0.72530251  0.48176474  1
  P  P101  1  0.02956409  0.14369642  0.53593184  1
  P  P102  1  0.50046875  0.31816296  0.54351437  1
  P  P103  1  0.61537988  0.87731761  0.50836668  1
  O  O104  1  0.30297508  0.80819695  0.03256191  1
  O  O105  1  0.37068104  0.09958651  0.03570279  1
  O  O106  1  0.24662711  0.55847309  0.07114605  1
  O  O107  1  0.85857405  0.24646144  0.05076432  1
  O  O108  1  0.64452280  0.06843710  0.06872201  1
  O  O109  1  0.01721261  0.82695088  0.00127759  1
  O  O110  1  0.59635099  0.90660586  0.03264382  1
  O  O111  1  0.09287064  0.00885364  0.02652648  1
  O  O112  1  0.44428453  0.35212056  0.06908913  1
  O  O113  1  0.00050695  0.84760073  0.05794021  1
  O  O114  1  0.66151958  0.09400380  0.01060528  1
  O  O115  1  0.10769637  0.33423515  0.03714559  1
  O  O116  1  0.95200892  0.66988885  0.11775379  1
  O  O117  1  0.04284994  0.98889223  0.11738105  1
  O  O118  1  0.90400655  0.43884833  0.15206903  1
  O  O119  1  0.12263613  0.21903170  0.08570690  1
  O  O120  1  0.48000762  0.14702942  0.13422610  1
  O  O121  1  0.52625068  0.50541911  0.10398920  1
  O  O122  1  0.31059973  0.93808915  0.15237367  1
  O  O123  1  0.67931992  0.71220755  0.08400465  1
  O  O124  1  0.24369908  0.77727634  0.11861144  1
  O  O125  1  0.74309406  0.87802867  0.11718406  1
  O  O126  1  0.89710876  0.42275800  0.08224957  1
  O  O127  1  0.10853260  0.22957901  0.15344582  1
  O  O128  1  0.65006131  0.70721088  0.14192125  1
  O  O129  1  0.34813390  0.94451776  0.09439776  1
  O  O130  1  0.26754158  0.42411638  0.11751060  1
  O  O131  1  0.73506209  0.23363131  0.12137477  1
  O  O132  1  0.60682993  0.55248378  0.20235773  1
  O  O133  1  0.69344106  0.87018583  0.20202006  1
  O  O134  1  0.55230611  0.32262563  0.23640607  1
  O  O135  1  0.75329612  0.09879900  0.16783798  1
  O  O136  1  0.13190450  0.03098190  0.21726766  1
  O  O137  1  0.17099243  0.39123962  0.18750532  1
  O  O138  1  0.96348750  0.82140963  0.23640472  1
  O  O139  1  0.33689658  0.60161035  0.16806862  1
  O  O140  1  0.90039875  0.66077763  0.20211553  1
  O  O141  1  0.39929833  0.76166615  0.20256608  1
  O  O142  1  0.54427668  0.30720037  0.16844571  1
  O  O143  1  0.76109308  0.11451426  0.23599409  1
  O  O144  1  0.30325920  0.58899636  0.22592274  1
  O  O145  1  0.99719487  0.83238201  0.17843793  1
  O  O146  1  0.91288038  0.30793193  0.19922313  1
  O  O147  1  0.38845905  0.11636430  0.20594254  1
  O  O148  1  0.25816244  0.43455862  0.28637633  1
  O  O149  1  0.34518173  0.75205160  0.28600133  1
  O  O150  1  0.20405494  0.20463289  0.31998338  1
  O  O151  1  0.39991686  0.98217503  0.25229298  1
  O  O152  1  0.78239035  0.91283560  0.30126765  1
  O  O153  1  0.82158863  0.27382259  0.27111144  1
  O  O154  1  0.61479488  0.70353062  0.32052004  1
  O  O155  1  0.98843204  0.48346258  0.25189830  1
  O  O156  1  0.55290395  0.54298337  0.28617762  1
  O  O157  1  0.05046586  0.64370012  0.28632198  1
  O  O158  1  0.19212370  0.19091478  0.25220548  1
  O  O159  1  0.41166525  0.99586399  0.32000498  1
  O  O160  1  0.95428802  0.47117409  0.30975738  1
  O  O161  1  0.64905164  0.71544475  0.26263833  1
  O  O162  1  0.56652759  0.18734294  0.28264534  1
  O  O163  1  0.03756053  0.99911541  0.28959917  1
  O  O164  1  0.91034369  0.31620477  0.37025524  1
  O  O165  1  0.99685934  0.63389840  0.36998652  1
  O  O166  1  0.85107121  0.08722265  0.40438178  1
  O  O167  1  0.05206732  0.86389484  0.33588872  1
  O  O168  1  0.43341441  0.79494488  0.38491069  1
  O  O169  1  0.47214771  0.15550776  0.35498671  1
  O  O170  1  0.26706565  0.58472805  0.40427372  1
  O  O171  1  0.63990959  0.36481078  0.33597293  1
  O  O172  1  0.20464230  0.42481776  0.36974920  1
  O  O173  1  0.70329256  0.52560645  0.37013034  1
  O  O174  1  0.84331245  0.07204612  0.33629187  1
  O  O175  1  0.05978416  0.87870292  0.40380443  1
  O  O176  1  0.60693322  0.35409061  0.39394453  1
  O  O177  1  0.30033951  0.59756721  0.34643938  1
  O  O178  1  0.21550881  0.07003834  0.36627412  1
  O  O179  1  0.69103729  0.87864298  0.37311232  1
  O  O180  1  0.56161037  0.19732928  0.45473605  1
  O  O181  1  0.65235045  0.51617055  0.45446761  1
  O  O182  1  0.48236838  0.96714343  0.48664509  1
  O  O183  1  0.70071393  0.74748062  0.42026217  1
  O  O184  1  0.07922198  0.68046737  0.46834383  1
  O  O185  1  0.12439633  0.03895702  0.43794835  1
  O  O186  1  0.92522395  0.47381238  0.48814577  1
  O  O187  1  0.29375376  0.24811582  0.41974763  1
  O  O188  1  0.86156787  0.30809960  0.45492671  1
  O  O189  1  0.36006682  0.40875442  0.45366491  1
  O  O190  1  0.49565283  0.95664891  0.41890480  1
  O  O191  1  0.70825122  0.76361308  0.49018938  1
  O  O192  1  0.25627006  0.24107033  0.47771203  1
  O  O193  1  0.95401253  0.47916124  0.43022301  1
  O  O194  1  0.86937437  0.95246864  0.45089354  1
  O  O195  1  0.33737904  0.76225882  0.45482626  1
  O  O196  1  0.23481385  0.08685378  0.53649392  1
  O  O197  1  0.30231362  0.37847118  0.53943937  1
  O  O198  1  0.35885004  0.62799809  0.50117861  1
  O  O199  1  0.74605795  0.94037933  0.52164935  1
  O  O200  1  0.58775155  0.35957668  0.57084995  1
  O  O201  1  0.96050197  0.11794948  0.50355894  1
  O  O202  1  0.51203723  0.17775636  0.54567398  1
  O  O203  1  0.00922550  0.27997110  0.53949983  1
  O  O204  1  0.16018373  0.83434039  0.50318366  1
  O  O205  1  0.94403570  0.09296251  0.56171173  1
  O  O206  1  0.60481094  0.33875350  0.51419114  1
  O  O207  1  0.49754444  0.85205369  0.53524260  1
