# generated using pymatgen
data_Li3PO4
_symmetry_space_group_name_H-M   'P 1'
_cell_length_a   4.97784600
_cell_length_b   16.20967300
_cell_length_c   48.06382600
_cell_angle_alpha   90.00000000
_cell_angle_beta   90.00000000
_cell_angle_gamma   90.00000000
_symmetry_Int_Tables_number   1
_chemical_formula_structural   Li3PO4
_chemical_formula_sum   'Li84 P28 O112'
_cell_volume   3878.23435586
_cell_formula_units_Z   28
loop_
 _symmetry_equiv_pos_site_id
 _symmetry_equiv_pos_as_xyz
  1  'x, y, z'
loop_
 _atom_site_type_symbol
 _atom_site_label
 _atom_site_symmetry_multiplicity
 _atom_site_fract_x
 _atom_site_fract_y
 _atom_site_fract_z
 _atom_site_occupancy
  Li  Li0  1  0.19682110  0.61419347  0.14186381  1
  Li  Li1  1  0.18607092  0.90158395  0.06186355  1
  Li  Li2  1  0.79951048  0.47580863  0.08640444  1
  Li  Li3  1  0.70066868  0.97581925  0.08641066  1
  Li  Li4  1  0.31393298  0.40159320  0.06186319  1
  Li  Li5  1  0.30337115  0.11425801  0.14186276  1
  Li  Li6  1  0.29950509  0.25936568  0.10003224  1
  Li  Li7  1  0.69809911  0.83112344  0.12885581  1
  Li  Li8  1  0.69221334  0.12429375  0.04782645  1
  Li  Li9  1  0.80782948  0.62428565  0.04783575  1
  Li  Li10  1  0.80191351  0.33110547  0.12885010  1
  Li  Li11  1  0.20055635  0.75936464  0.10003837  1
  Li  Li12  1  0.79339122  0.64840554  0.10642035  1
  Li  Li13  1  0.19845065  0.44287158  0.12334383  1
  Li  Li14  1  0.18936014  0.72421059  0.04281064  1
  Li  Li15  1  0.31064190  0.22421595  0.04280432  1
  Li  Li16  1  0.30158765  0.94287670  0.12334129  1
  Li  Li17  1  0.70662302  0.14810095  0.10634602  1
  Li  Li18  1  0.20184337  0.03842994  0.31024229  1
  Li  Li19  1  0.19927182  0.32689667  0.22588470  1
  Li  Li20  1  0.80254191  0.90061920  0.25482470  1
  Li  Li21  1  0.80337429  0.18869732  0.17073844  1
  Li  Li22  1  0.69661324  0.68877830  0.17071378  1
  Li  Li23  1  0.69747892  0.40061999  0.25482034  1
  Li  Li24  1  0.30083976  0.82684994  0.22589555  1
  Li  Li25  1  0.29892452  0.53821468  0.31014025  1
  Li  Li26  1  0.29850011  0.68348951  0.26753308  1
  Li  Li27  1  0.30227214  0.97186492  0.18390434  1
  Li  Li28  1  0.69924859  0.25532364  0.29723803  1
  Li  Li29  1  0.69755198  0.54423064  0.21318683  1
  Li  Li30  1  0.80245818  0.04422691  0.21318998  1
  Li  Li31  1  0.80074587  0.75532697  0.29723920  1
  Li  Li32  1  0.19771854  0.47184766  0.18390254  1
  Li  Li33  1  0.20151450  0.18347675  0.26753014  1
  Li  Li34  1  0.79946459  0.07344765  0.27407552  1
  Li  Li35  1  0.79681145  0.36142244  0.18972400  1
  Li  Li36  1  0.20131618  0.86601913  0.29107505  1
  Li  Li37  1  0.20408457  0.15401969  0.20668905  1
  Li  Li38  1  0.29593979  0.65402030  0.20668661  1
  Li  Li39  1  0.29813658  0.36593893  0.29098544  1
  Li  Li40  1  0.70299075  0.86149571  0.18974521  1
  Li  Li41  1  0.70064408  0.57346074  0.27407179  1
  Li  Li42  1  0.19854114  0.46368955  0.47812287  1
  Li  Li43  1  0.19947543  0.75061165  0.39404798  1
  Li  Li44  1  0.80066525  0.32440177  0.42316271  1
  Li  Li45  1  0.80003785  0.61160467  0.33923579  1
  Li  Li46  1  0.70003070  0.11161637  0.33924313  1
  Li  Li47  1  0.69935276  0.82439881  0.42316284  1
  Li  Li48  1  0.30053122  0.25061740  0.39404793  1
  Li  Li49  1  0.30149414  0.96366993  0.47812938  1
  Li  Li50  1  0.30210498  0.10844585  0.43604666  1
  Li  Li51  1  0.30093372  0.39523420  0.35186532  1
  Li  Li52  1  0.69855424  0.67965806  0.46543845  1
  Li  Li53  1  0.69782128  0.96721314  0.38140753  1
  Li  Li54  1  0.80221230  0.46721476  0.38140538  1
  Li  Li55  1  0.80124678  0.17964857  0.46542381  1
  Li  Li56  1  0.19912247  0.89521109  0.35187398  1
  Li  Li57  1  0.19787279  0.60845306  0.43604459  1
  Li  Li58  1  0.79591880  0.49743443  0.44220182  1
  Li  Li59  1  0.79607480  0.78470534  0.35817014  1
  Li  Li60  1  0.20052696  0.29131459  0.45921418  1
  Li  Li61  1  0.20133431  0.57776501  0.37532537  1
  Li  Li62  1  0.29870648  0.07776666  0.37533371  1
  Li  Li63  1  0.29945599  0.79131815  0.45921632  1
  Li  Li64  1  0.70395166  0.28471969  0.35817095  1
  Li  Li65  1  0.70408364  0.99743191  0.44220383  1
  Li  Li66  1  0.20035933  0.17545701  0.56249122  1
  Li  Li67  1  0.81549822  0.74901627  0.58741305  1
  Li  Li68  1  0.80027340  0.03729479  0.50726029  1
  Li  Li69  1  0.69969801  0.53729554  0.50725897  1
  Li  Li70  1  0.68446967  0.24894950  0.58746557  1
  Li  Li71  1  0.29962950  0.67546402  0.56249350  1
  Li  Li72  1  0.31061082  0.52625346  0.60084403  1
  Li  Li73  1  0.30150794  0.82127140  0.52009226  1
  Li  Li74  1  0.69960990  0.39180023  0.54906576  1
  Li  Li75  1  0.80013790  0.89180816  0.54908241  1
  Li  Li76  1  0.19807083  0.32126614  0.52006653  1
  Li  Li77  1  0.18923989  0.02622775  0.60084829  1
  Li  Li78  1  0.81004707  0.92602007  0.60654519  1
  Li  Li79  1  0.80236462  0.20900183  0.52577029  1
  Li  Li80  1  0.20613884  0.00240581  0.54259714  1
  Li  Li81  1  0.29377464  0.50239679  0.54259912  1
  Li  Li82  1  0.69756560  0.70901068  0.52576714  1
  Li  Li83  1  0.68931353  0.42619403  0.60645535  1
  P  P84  1  0.69210550  0.51122246  0.15041788  1
  P  P85  1  0.69871800  0.79869139  0.06628341  1
  P  P86  1  0.30220155  0.57941605  0.07851923  1
  P  P87  1  0.30742354  0.29219502  0.16239943  1
  P  P88  1  0.19256267  0.79223151  0.16241387  1
  P  P89  1  0.19795676  0.07940267  0.07849748  1
  P  P90  1  0.80128498  0.29870694  0.06627262  1
  P  P91  1  0.80799562  0.01120873  0.15041004  1
  P  P92  1  0.69442106  0.93504367  0.31843915  1
  P  P93  1  0.69469979  0.22354193  0.23422209  1
  P  P94  1  0.30744271  0.00403186  0.24663056  1
  P  P95  1  0.30582707  0.71531725  0.33069870  1
  P  P96  1  0.19419955  0.21537026  0.33070388  1
  P  P97  1  0.19255794  0.50404754  0.24661769  1
  P  P98  1  0.80535503  0.72353158  0.23422567  1
  P  P99  1  0.80576479  0.43501858  0.31842054  1
  P  P100  1  0.69271673  0.35982681  0.48662821  1
  P  P101  1  0.69322168  0.64725163  0.40256064  1
  P  P102  1  0.30571325  0.42800581  0.41476213  1
  P  P103  1  0.30694979  0.14067443  0.49865848  1
  P  P104  1  0.19297437  0.64068895  0.49865868  1
  P  P105  1  0.19430330  0.92801121  0.41476811  1
  P  P106  1  0.80677707  0.14724605  0.40256068  1
  P  P107  1  0.80723287  0.85982138  0.48663438  1
  P  P108  1  0.69685325  0.07138124  0.57049834  1
  P  P109  1  0.30183211  0.85181479  0.58293452  1
  P  P110  1  0.19801311  0.35180715  0.58291687  1
  P  P111  1  0.80305521  0.57142129  0.57048797  1
  O  O112  1  0.79487715  0.60060528  0.14474677  1
  O  O113  1  0.80939467  0.88698658  0.06232132  1
  O  O114  1  0.20042441  0.49012014  0.08468181  1
  O  O115  1  0.29971431  0.99011446  0.08466721  1
  O  O116  1  0.69063091  0.38700974  0.06230784  1
  O  O117  1  0.70515541  0.10057424  0.14472649  1
  O  O118  1  0.71301544  0.26622448  0.09568579  1
  O  O119  1  0.29453313  0.82221507  0.13338862  1
  O  O120  1  0.30651861  0.10886503  0.04994481  1
  O  O121  1  0.19358972  0.60889066  0.04996719  1
  O  O122  1  0.20548637  0.32217459  0.13337190  1
  O  O123  1  0.78696042  0.76624405  0.09570011  1
  O  O124  1  0.20273743  0.63846119  0.10198601  1
  O  O125  1  0.79516187  0.45242163  0.12719286  1
  O  O126  1  0.80543963  0.73990205  0.04335478  1
  O  O127  1  0.69452445  0.23992936  0.04334176  1
  O  O128  1  0.70499617  0.95240643  0.12718164  1
  O  O129  1  0.29745402  0.13844367  0.10195822  1
  O  O130  1  0.37849745  0.51165061  0.15068136  1
  O  O131  1  0.38222260  0.80056714  0.06534343  1
  O  O132  1  0.61622820  0.57902415  0.07810303  1
  O  O133  1  0.62092515  0.29179846  0.16231377  1
  O  O134  1  0.87905280  0.79188520  0.16232862  1
  O  O135  1  0.88391692  0.07899469  0.07807308  1
  O  O136  1  0.11778137  0.30058794  0.06532870  1
  O  O137  1  0.12162053  0.01166873  0.15067078  1
  O  O138  1  0.79734355  0.02444415  0.31282656  1
  O  O139  1  0.79646836  0.31306440  0.22860458  1
  O  O140  1  0.20493377  0.91454229  0.25222927  1
  O  O141  1  0.20448568  0.20274506  0.16791027  1
  O  O142  1  0.29546033  0.70276553  0.16791615  1
  O  O143  1  0.29509040  0.41455585  0.25221417  1
  O  O144  1  0.70359207  0.81304711  0.22861264  1
  O  O145  1  0.70296037  0.52442695  0.31279715  1
  O  O146  1  0.70276793  0.69385007  0.26323843  1
  O  O147  1  0.70448267  0.98178507  0.17941367  1
  O  O148  1  0.29692263  0.24484060  0.30166276  1
  O  O149  1  0.29570844  0.53372777  0.21762268  1
  O  O150  1  0.20427355  0.03371724  0.21763163  1
  O  O151  1  0.20305896  0.74485823  0.30166497  1
  O  O152  1  0.79563115  0.48178186  0.17942082  1
  O  O153  1  0.79726549  0.19386764  0.26323704  1
  O  O154  1  0.20361728  0.06274847  0.26987480  1
  O  O155  1  0.20306467  0.35094915  0.18559664  1
  O  O156  1  0.79809693  0.87626568  0.29521096  1
  O  O157  1  0.79936505  0.16486714  0.21100354  1
  O  O158  1  0.70067498  0.66487034  0.21100203  1
  O  O159  1  0.70189258  0.37624407  0.29519730  1
  O  O160  1  0.29691169  0.85098328  0.18561721  1
  O  O161  1  0.29644819  0.56276367  0.26985972  1
  O  O162  1  0.38074231  0.93512618  0.31858209  1
  O  O163  1  0.38097734  0.22349317  0.23428103  1
  O  O164  1  0.62113723  0.00403338  0.24646405  1
  O  O165  1  0.61957352  0.71514159  0.33056418  1
  O  O166  1  0.88045835  0.21514009  0.33056849  1
  O  O167  1  0.87887871  0.50403979  0.24646127  1
  O  O168  1  0.11907718  0.72347003  0.23428376  1
  O  O169  1  0.11945101  0.43505695  0.31854628  1
  O  O170  1  0.79679415  0.44907839  0.48102947  1
  O  O171  1  0.79628167  0.73659442  0.39687244  1
  O  O172  1  0.20222883  0.33865689  0.42042415  1
  O  O173  1  0.20317130  0.62593703  0.33645837  1
  O  O174  1  0.29699384  0.12602042  0.33649231  1
  O  O175  1  0.29776584  0.83865529  0.42042358  1
  O  O176  1  0.70373105  0.23659001  0.39687096  1
  O  O177  1  0.70315770  0.94907110  0.48103504  1
  O  O178  1  0.70409591  0.11778429  0.43159936  1
  O  O179  1  0.70330311  0.40540535  0.34745350  1
  O  O180  1  0.29568236  0.67040254  0.46967233  1
  O  O181  1  0.29661477  0.95743912  0.38571564  1
  O  O182  1  0.20347196  0.45744367  0.38570811  1
  O  O183  1  0.20426790  0.17037267  0.46966899  1
  O  O184  1  0.79692348  0.90539295  0.34746734  1
  O  O185  1  0.79587143  0.61779662  0.43160125  1
  O  O186  1  0.20200918  0.48711832  0.43789719  1
  O  O187  1  0.20211917  0.77431340  0.35387838  1
  O  O188  1  0.79629738  0.30080354  0.46346521  1
  O  O189  1  0.79686565  0.58817321  0.37942137  1
  O  O190  1  0.70315862  0.08817177  0.37942131  1
  O  O191  1  0.70366330  0.80080140  0.46347234  1
  O  O192  1  0.29787491  0.27439913  0.35387339  1
  O  O193  1  0.29798476  0.98710557  0.43791124  1
  O  O194  1  0.37905829  0.36055337  0.48672902  1
  O  O195  1  0.37961352  0.64751693  0.40269963  1
  O  O196  1  0.61938978  0.42765065  0.41467442  1
  O  O197  1  0.62066322  0.14002997  0.49851319  1
  O  O198  1  0.87926321  0.64003643  0.49851151  1
  O  O199  1  0.88063308  0.92764666  0.41467643  1
  O  O200  1  0.12039382  0.14752585  0.40269554  1
  O  O201  1  0.12088320  0.86054024  0.48673587  1
  O  O202  1  0.79931911  0.16070560  0.56448611  1
  O  O203  1  0.19165597  0.76346486  0.58688732  1
  O  O204  1  0.20347674  0.05133609  0.50424787  1
  O  O205  1  0.29645965  0.55134697  0.50424616  1
  O  O206  1  0.30832681  0.26347903  0.58688235  1
  O  O207  1  0.70063599  0.66074184  0.56446521  1
  O  O208  1  0.69538372  0.54148353  0.59902259  1
  O  O209  1  0.70543298  0.82985708  0.51565940  1
  O  O210  1  0.28667586  0.38445195  0.55351995  1
  O  O211  1  0.21312623  0.88447698  0.55354572  1
  O  O212  1  0.79443081  0.32985529  0.51565328  1
  O  O213  1  0.80441202  0.04139142  0.59903072  1
  O  O214  1  0.19460391  0.91061216  0.60583842  1
  O  O215  1  0.20394421  0.19953151  0.52187088  1
  O  O216  1  0.79656276  0.01245895  0.54699779  1
  O  O217  1  0.70333563  0.51247375  0.54699767  1
  O  O218  1  0.29590830  0.69954340  0.52187674  1
  O  O219  1  0.30529805  0.41063898  0.60580455  1
  O  O220  1  0.38282542  0.07188603  0.57078596  1
  O  O221  1  0.61831669  0.84998456  0.58383535  1
  O  O222  1  0.88154071  0.34997342  0.58383062  1
  O  O223  1  0.11707940  0.57190357  0.57077794  1
