# generated using pymatgen
data_Li3PO4
_symmetry_space_group_name_H-M   'P 1'
_cell_length_a   4.97784600
_cell_length_b   16.20967300
_cell_length_c   48.06382600
_cell_angle_alpha   90.00000000
_cell_angle_beta   90.00000000
_cell_angle_gamma   90.00000000
_symmetry_Int_Tables_number   1
_chemical_formula_structural   Li3PO4
_chemical_formula_sum   'Li84 P28 O112'
_cell_volume   3878.23435586
_cell_formula_units_Z   28
loop_
 _symmetry_equiv_pos_site_id
 _symmetry_equiv_pos_as_xyz
  1  'x, y, z'
loop_
 _atom_site_type_symbol
 _atom_site_label
 _atom_site_symmetry_multiplicity
 _atom_site_fract_x
 _atom_site_fract_y
 _atom_site_fract_z
 _atom_site_occupancy
  Li  Li0  1  0.19789736  0.55700062  0.11955164  1
  Li  Li1  1  0.18591833  0.84325039  0.03935455  1
  Li  Li2  1  0.79702644  0.41736592  0.06386750  1
  Li  Li3  1  0.80172871  0.13064110  0.14823549  1
  Li  Li4  1  0.69811209  0.63055625  0.14819683  1
  Li  Li5  1  0.70282525  0.91738782  0.06386576  1
  Li  Li6  1  0.31352510  0.34328627  0.03937745  1
  Li  Li7  1  0.30200731  0.05700016  0.11954530  1
  Li  Li8  1  0.30163222  0.20136150  0.07741610  1
  Li  Li9  1  0.30114764  0.91398431  0.16139903  1
  Li  Li10  1  0.69797663  0.77363212  0.10647391  1
  Li  Li11  1  0.69144119  0.06542680  0.02534010  1
  Li  Li12  1  0.80836592  0.56537639  0.02534010  1
  Li  Li13  1  0.80080192  0.27326923  0.10638728  1
  Li  Li14  1  0.19819781  0.41416605  0.16141007  1
  Li  Li15  1  0.19823489  0.70138608  0.07744007  1
  Li  Li16  1  0.79278986  0.59026959  0.08382567  1
  Li  Li17  1  0.19732402  0.38520336  0.10085128  1
  Li  Li18  1  0.19064698  0.66617757  0.02020244  1
  Li  Li19  1  0.30833928  0.16635270  0.02004162  1
  Li  Li20  1  0.30146976  0.88524345  0.10081557  1
  Li  Li21  1  0.70716874  0.09026491  0.08382624  1
  Li  Li22  1  0.19894218  0.98142206  0.28743231  1
  Li  Li23  1  0.19907125  0.26931545  0.20329108  1
  Li  Li24  1  0.80113097  0.84312117  0.23238554  1
  Li  Li25  1  0.80112163  0.55554641  0.31664700  1
  Li  Li26  1  0.69891058  0.05552873  0.31664862  1
  Li  Li27  1  0.69886530  0.34309816  0.23236945  1
  Li  Li28  1  0.30098079  0.76940425  0.20341875  1
  Li  Li29  1  0.30091185  0.48144665  0.28743952  1
  Li  Li30  1  0.30261758  0.62678412  0.24509698  1
  Li  Li31  1  0.30136068  0.33868023  0.32951528  1
  Li  Li32  1  0.69801964  0.19815670  0.27474414  1
  Li  Li33  1  0.69905017  0.48605095  0.19049419  1
  Li  Li34  1  0.80085974  0.98604990  0.19048797  1
  Li  Li35  1  0.80200738  0.69815790  0.27474942  1
  Li  Li36  1  0.19867590  0.83868644  0.32951736  1
  Li  Li37  1  0.19739057  0.12681637  0.24508994  1
  Li  Li38  1  0.79682827  0.01612794  0.25126872  1
  Li  Li39  1  0.79720090  0.30354619  0.16715018  1
  Li  Li40  1  0.20325385  0.80889533  0.26853415  1
  Li  Li41  1  0.20194048  0.09664064  0.18429859  1
  Li  Li42  1  0.29800942  0.59667031  0.18430913  1
  Li  Li43  1  0.29674364  0.30888785  0.26852506  1
  Li  Li44  1  0.70264776  0.80334024  0.16727086  1
  Li  Li45  1  0.70328266  0.51602678  0.25132933  1
  Li  Li46  1  0.19701082  0.40632196  0.45558665  1
  Li  Li47  1  0.19984752  0.69394223  0.37175642  1
  Li  Li48  1  0.80009554  0.26790208  0.40075030  1
  Li  Li49  1  0.80360554  0.97979210  0.48450420  1
  Li  Li50  1  0.69658689  0.47976346  0.48450552  1
  Li  Li51  1  0.70071520  0.76723306  0.40094991  1
  Li  Li52  1  0.30026545  0.19393786  0.37175708  1
  Li  Li53  1  0.30328182  0.90634369  0.45559485  1
  Li  Li54  1  0.30184948  0.05170931  0.41369446  1
  Li  Li55  1  0.30242803  0.76408130  0.49780344  1
  Li  Li56  1  0.69962018  0.62262563  0.44290290  1
  Li  Li57  1  0.69803439  0.90989733  0.35884199  1
  Li  Li58  1  0.80232409  0.41002129  0.35879826  1
  Li  Li59  1  0.80055844  0.12267493  0.44288298  1
  Li  Li60  1  0.19801802  0.26407018  0.49781106  1
  Li  Li61  1  0.19818441  0.55171045  0.41368871  1
  Li  Li62  1  0.79596620  0.44059164  0.41950342  1
  Li  Li63  1  0.79623959  0.72868354  0.33583201  1
  Li  Li64  1  0.19821423  0.23390988  0.43698606  1
  Li  Li65  1  0.20225293  0.52122875  0.35282105  1
  Li  Li66  1  0.29783395  0.02120864  0.35282625  1
  Li  Li67  1  0.30190231  0.73390760  0.43699309  1
  Li  Li68  1  0.70376038  0.22865996  0.33582296  1
  Li  Li69  1  0.70394473  0.94049062  0.41948541  1
  Li  Li70  1  0.20189550  0.11878991  0.54030242  1
  Li  Li71  1  0.81475419  0.69254405  0.56491959  1
  Li  Li72  1  0.68541505  0.19253483  0.56493921  1
  Li  Li73  1  0.29832107  0.61882858  0.54025801  1
  Li  Li74  1  0.30729205  0.46978664  0.57847438  1
  Li  Li75  1  0.69839049  0.33544365  0.52672752  1
  Li  Li76  1  0.80174695  0.83543744  0.52673029  1
  Li  Li77  1  0.19292916  0.96980565  0.57847582  1
  Li  Li78  1  0.81155885  0.87019087  0.58413717  1
  Li  Li79  1  0.80239193  0.15209765  0.50341972  1
  Li  Li80  1  0.20874407  0.94615318  0.52025088  1
  Li  Li81  1  0.29134719  0.44615407  0.52025099  1
  Li  Li82  1  0.69842886  0.65195832  0.50341620  1
  Li  Li83  1  0.68918680  0.37015041  0.58424543  1
  P  P84  1  0.69187687  0.45328123  0.12786201  1
  P  P85  1  0.69876734  0.74046169  0.04372283  1
  P  P86  1  0.30193048  0.52121923  0.05605748  1
  P  P87  1  0.30657365  0.23435057  0.13988634  1
  P  P88  1  0.19299413  0.73435967  0.13992918  1
  P  P89  1  0.19792396  0.02126751  0.05602305  1
  P  P90  1  0.80084477  0.24047674  0.04366845  1
  P  P91  1  0.80771235  0.95334990  0.12787157  1
  P  P92  1  0.69379496  0.87839376  0.29589848  1
  P  P93  1  0.69289885  0.16607815  0.21167467  1
  P  P94  1  0.30631851  0.94665560  0.22402983  1
  P  P95  1  0.30645259  0.65878618  0.30824408  1
  P  P96  1  0.19358929  0.15877478  0.30824087  1
  P  P97  1  0.19359640  0.44661998  0.22403275  1
  P  P98  1  0.80694332  0.66603137  0.21171763  1
  P  P99  1  0.80619763  0.37837100  0.29589801  1
  P  P100  1  0.69175872  0.30278423  0.46416451  1
  P  P101  1  0.69396091  0.59057820  0.38005582  1
  P  P102  1  0.30536877  0.37117573  0.39231157  1
  P  P103  1  0.30785619  0.08369109  0.47628856  1
  P  P104  1  0.19250211  0.58369764  0.47626274  1
  P  P105  1  0.19478150  0.87105355  0.39233029  1
  P  P106  1  0.80617285  0.09062048  0.38005900  1
  P  P107  1  0.80872357  0.80274368  0.46420813  1
  P  P108  1  0.69877410  0.01506315  0.54801258  1
  P  P109  1  0.30263994  0.79555171  0.56059786  1
  P  P110  1  0.19765974  0.29554965  0.56062276  1
  P  P111  1  0.80152329  0.51502732  0.54802070  1
  O  O112  1  0.79542852  0.54261334  0.12223234  1
  O  O113  1  0.80930111  0.82876413  0.03968814  1
  O  O114  1  0.20010089  0.43192623  0.06221338  1
  O  O115  1  0.20297007  0.14502236  0.14549475  1
  O  O116  1  0.29666526  0.64501957  0.14551459  1
  O  O117  1  0.29962387  0.93194541  0.06216521  1
  O  O118  1  0.69031267  0.32879274  0.03966414  1
  O  O119  1  0.70438650  0.04270550  0.12224789  1
  O  O120  1  0.71251748  0.20825649  0.07311271  1
  O  O121  1  0.70419051  0.92364876  0.15683792  1
  O  O122  1  0.29481902  0.76426087  0.11088998  1
  O  O123  1  0.30581073  0.05067010  0.02743397  1
  O  O124  1  0.19388775  0.55055880  0.02747088  1
  O  O125  1  0.20459947  0.26419273  0.11084685  1
  O  O126  1  0.79551088  0.42364736  0.15683387  1
  O  O127  1  0.78697247  0.70832122  0.07318070  1
  O  O128  1  0.20271575  0.58039386  0.07949880  1
  O  O129  1  0.20273347  0.29321509  0.16307121  1
  O  O130  1  0.79426406  0.39441230  0.10463358  1
  O  O131  1  0.80582375  0.68147063  0.02087530  1
  O  O132  1  0.69383948  0.18154272  0.02080470  1
  O  O133  1  0.70516063  0.89455685  0.10462670  1
  O  O134  1  0.29696267  0.79315779  0.16312783  1
  O  O135  1  0.29722503  0.08038221  0.07947691  1
  O  O136  1  0.37827501  0.45400910  0.12814685  1
  O  O137  1  0.38228317  0.74240180  0.04275043  1
  O  O138  1  0.61600960  0.52078355  0.05563968  1
  O  O139  1  0.62007423  0.23382278  0.13978235  1
  O  O140  1  0.87945591  0.73384833  0.13983018  1
  O  O141  1  0.88383747  0.02081892  0.05562509  1
  O  O142  1  0.11734291  0.24241171  0.04271098  1
  O  O143  1  0.12131067  0.95402661  0.12813808  1
  O  O144  1  0.79580687  0.96781783  0.29015798  1
  O  O145  1  0.79559255  0.25546135  0.20597945  1
  O  O146  1  0.20373290  0.85719805  0.22967291  1
  O  O147  1  0.20447928  0.56928628  0.31391841  1
  O  O148  1  0.29556357  0.06928050  0.31392001  1
  O  O149  1  0.29608312  0.35714684  0.22965867  1
  O  O150  1  0.70406232  0.75542954  0.20607299  1
  O  O151  1  0.70420162  0.46781048  0.29017851  1
  O  O152  1  0.70431529  0.63657109  0.24075764  1
  O  O153  1  0.70316093  0.34903441  0.32495414  1
  O  O154  1  0.29597838  0.18816049  0.27916321  1
  O  O155  1  0.29639925  0.47626883  0.19502023  1
  O  O156  1  0.20350564  0.97625860  0.19501449  1
  O  O157  1  0.20411199  0.68817332  0.27916581  1
  O  O158  1  0.79688999  0.84907203  0.32495342  1
  O  O159  1  0.79571283  0.13669438  0.24072025  1
  O  O160  1  0.20223172  0.00560378  0.24719070  1
  O  O161  1  0.20172974  0.71763614  0.33142325  1
  O  O162  1  0.79797321  0.81937518  0.27274794  1
  O  O163  1  0.79661023  0.10704085  0.18851124  1
  O  O164  1  0.70325295  0.60707487  0.18853249  1
  O  O165  1  0.70194761  0.31938646  0.27274219  1
  O  O166  1  0.29825969  0.21763718  0.33141919  1
  O  O167  1  0.29771980  0.50553612  0.24720249  1
  O  O168  1  0.38010328  0.87832300  0.29606702  1
  O  O169  1  0.37919349  0.16622334  0.21181822  1
  O  O170  1  0.61996952  0.94641656  0.22386719  1
  O  O171  1  0.62016742  0.65887836  0.30816009  1
  O  O172  1  0.87987883  0.15885725  0.30815064  1
  O  O173  1  0.87993651  0.44641293  0.22387074  1
  O  O174  1  0.12064468  0.66625199  0.21184550  1
  O  O175  1  0.11988878  0.37830045  0.29606222  1
  O  O176  1  0.79546477  0.39200505  0.45842181  1
  O  O177  1  0.79666060  0.68000782  0.37444691  1
  O  O178  1  0.20196882  0.28189790  0.39807655  1
  O  O179  1  0.20542604  0.99417339  0.48181201  1
  O  O180  1  0.29512409  0.49420508  0.48179256  1
  O  O181  1  0.29858757  0.78181969  0.39809882  1
  O  O182  1  0.70351715  0.18005519  0.37443419  1
  O  O183  1  0.70485160  0.89194017  0.45846158  1
  O  O184  1  0.70318027  0.06107279  0.40908540  1
  O  O185  1  0.70657962  0.77305137  0.49325961  1
  O  O186  1  0.29617058  0.61347377  0.44730374  1
  O  O187  1  0.29732003  0.90040387  0.36328173  1
  O  O188  1  0.20263850  0.40048285  0.36326716  1
  O  O189  1  0.20396432  0.11347432  0.44733570  1
  O  O190  1  0.79418601  0.27316675  0.49321876  1
  O  O191  1  0.79690942  0.56105262  0.40908530  1
  O  O192  1  0.20208332  0.43039026  0.41543102  1
  O  O193  1  0.20495939  0.14240356  0.49955003  1
  O  O194  1  0.79526129  0.24369731  0.44102340  1
  O  O195  1  0.79760794  0.53159668  0.35688792  1
  O  O196  1  0.70253851  0.03158378  0.35690172  1
  O  O197  1  0.70504708  0.74360589  0.44108812  1
  O  O198  1  0.29546525  0.64242515  0.49951693  1
  O  O199  1  0.29787895  0.93035625  0.41543689  1
  O  O200  1  0.37819676  0.30337488  0.46433288  1
  O  O201  1  0.38037151  0.59076778  0.38025906  1
  O  O202  1  0.61899432  0.37078710  0.39212448  1
  O  O203  1  0.62153061  0.08318376  0.47606105  1
  O  O204  1  0.87877671  0.58312139  0.47604668  1
  O  O205  1  0.88110020  0.87048877  0.39215873  1
  O  O206  1  0.11976047  0.09079925  0.38026357  1
  O  O207  1  0.12228983  0.80336786  0.46433218  1
  O  O208  1  0.80010994  0.10447760  0.54199370  1
  O  O209  1  0.19197192  0.70724319  0.56455183  1
  O  O210  1  0.30831092  0.20723394  0.56456217  1
  O  O211  1  0.70016983  0.60442912  0.54198392  1
  O  O212  1  0.69312766  0.48528107  0.57654691  1
  O  O213  1  0.28620183  0.32816358  0.53122293  1
  O  O214  1  0.21397698  0.82814193  0.53120114  1
  O  O215  1  0.80718498  0.98530905  0.57653808  1
  O  O216  1  0.19576191  0.85438908  0.58349759  1
  O  O217  1  0.79820275  0.95619729  0.52450439  1
  O  O218  1  0.70223473  0.45616587  0.52450495  1
  O  O219  1  0.30470550  0.35436852  0.58352430  1
  O  O220  1  0.38470948  0.01539966  0.54840386  1
  O  O221  1  0.61917694  0.79378851  0.56149999  1
  O  O222  1  0.88113713  0.29376416  0.56154421  1
  O  O223  1  0.11561127  0.51540192  0.54841440  1
