# generated using pymatgen
data_Li3PO4
_symmetry_space_group_name_H-M   'P 1'
_cell_length_a   4.97784600
_cell_length_b   6.15119200
_cell_length_c   52.77425300
_cell_angle_alpha   90.00000000
_cell_angle_beta   90.00000000
_cell_angle_gamma   90.00000000
_symmetry_Int_Tables_number   1
_chemical_formula_structural   Li3PO4
_chemical_formula_sum   'Li30 P10 O40'
_cell_volume   1615.93108173
_cell_formula_units_Z   10
loop_
 _symmetry_equiv_pos_site_id
 _symmetry_equiv_pos_as_xyz
  1  'x, y, z'
loop_
 _atom_site_type_symbol
 _atom_site_label
 _atom_site_symmetry_multiplicity
 _atom_site_fract_x
 _atom_site_fract_y
 _atom_site_fract_z
 _atom_site_occupancy
  Li  Li0  1  0.80371989  0.49964444  0.15403179  1
  Li  Li1  1  0.30203783  0.50079062  0.11921410  1
  Li  Li2  1  0.67572190  0.48878946  0.05735743  1
  Li  Li3  1  0.67575291  0.01118390  0.05735611  1
  Li  Li4  1  0.30244933  0.99849353  0.11925236  1
  Li  Li5  1  0.80376877  0.00050041  0.15399140  1
  Li  Li6  1  0.20657086  0.74999887  0.17197834  1
  Li  Li7  1  0.70592034  0.24998012  0.10232841  1
  Li  Li8  1  0.27527628  0.75000134  0.07019456  1
  Li  Li9  1  0.79915026  0.49898577  0.35501578  1
  Li  Li10  1  0.20096205  0.50104885  0.21983842  1
  Li  Li11  1  0.30228457  0.50131471  0.32025011  1
  Li  Li12  1  0.69813461  0.49842297  0.25461732  1
  Li  Li13  1  0.69813580  0.00158717  0.25461767  1
  Li  Li14  1  0.30219077  0.99853089  0.32023378  1
  Li  Li15  1  0.20096736  0.99896053  0.21983914  1
  Li  Li16  1  0.79913826  0.00102932  0.35501541  1
  Li  Li17  1  0.20162508  0.75001150  0.37309987  1
  Li  Li18  1  0.79857520  0.25000177  0.20177664  1
  Li  Li19  1  0.70065091  0.24999965  0.30236445  1
  Li  Li20  1  0.30026075  0.74999878  0.27244376  1
  Li  Li21  1  0.19568862  0.50129125  0.42099927  1
  Li  Li22  1  0.32470504  0.51119552  0.51759421  1
  Li  Li23  1  0.69717482  0.49962429  0.45592503  1
  Li  Li24  1  0.69716078  0.00042586  0.45592792  1
  Li  Li25  1  0.32483090  0.98892104  0.51755351  1
  Li  Li26  1  0.19569036  0.99872296  0.42100122  1
  Li  Li27  1  0.79369059  0.24999211  0.40291353  1
  Li  Li28  1  0.72506309  0.25017076  0.50473215  1
  Li  Li29  1  0.29101981  0.75001055  0.47275608  1
  P  P30  1  0.30841919  0.25000096  0.16898389  1
  P  P31  1  0.80948570  0.74992447  0.10433409  1
  P  P32  1  0.19413962  0.24997990  0.06863945  1
  P  P33  1  0.30452228  0.25000688  0.37010412  1
  P  P34  1  0.69574559  0.75001242  0.20485173  1
  P  P35  1  0.80668068  0.74999911  0.30523491  1
  P  P36  1  0.19399437  0.25000488  0.26959115  1
  P  P37  1  0.69137819  0.74999461  0.40595129  1
  P  P38  1  0.80559578  0.75006576  0.50640104  1
  P  P39  1  0.19034980  0.25010207  0.47066263  1
  O  O40  1  0.20530883  0.45723648  0.15498460  1
  O  O41  1  0.70448586  0.54314449  0.11823782  1
  O  O42  1  0.29722343  0.45845715  0.05535708  1
  O  O43  1  0.29724949  0.04153819  0.05535067  1
  O  O44  1  0.70461552  0.95674396  0.11823906  1
  O  O45  1  0.20536528  0.04273614  0.15498631  1
  O  O46  1  0.79954874  0.75003402  0.17703815  1
  O  O47  1  0.20525453  0.24999177  0.19681605  1
  O  O48  1  0.29158402  0.24985106  0.09692902  1
  O  O49  1  0.70933067  0.74997421  0.07629669  1
  O  O50  1  0.62219377  0.24999400  0.16876782  1
  O  O51  1  0.12204180  0.74986911  0.10460219  1
  O  O52  1  0.87779821  0.24999985  0.06851455  1
  O  O53  1  0.20204977  0.45718372  0.35602409  1
  O  O54  1  0.79830776  0.54281403  0.21890724  1
  O  O55  1  0.70376397  0.54305289  0.31932138  1
  O  O56  1  0.29682261  0.45692665  0.25549909  1
  O  O57  1  0.29683550  0.04307116  0.25550200  1
  O  O58  1  0.70376283  0.95693621  0.31932374  1
  O  O59  1  0.79831732  0.95719213  0.21890985  1
  O  O60  1  0.20206312  0.04284318  0.35602186  1
  O  O61  1  0.79463008  0.75002433  0.37812027  1
  O  O62  1  0.20076293  0.24999670  0.39791642  1
  O  O63  1  0.29858293  0.24999740  0.29736185  1
  O  O64  1  0.70225438  0.75000738  0.27746032  1
  O  O65  1  0.61812696  0.25002322  0.36995079  1
  O  O66  1  0.38214185  0.75000705  0.20495715  1
  O  O67  1  0.12016131  0.74999997  0.30529344  1
  O  O68  1  0.88054079  0.24999900  0.26954402  1
  O  O69  1  0.79426797  0.54283966  0.41998868  1
  O  O70  1  0.70260685  0.54154685  0.51966123  1
  O  O71  1  0.29508271  0.45702737  0.45677614  1
  O  O72  1  0.29514845  0.04314960  0.45678480  1
  O  O73  1  0.70270608  0.95869591  0.51964185  1
  O  O74  1  0.79433671  0.95707395  0.41999910  1
  O  O75  1  0.29064258  0.25014453  0.49870303  1
  O  O76  1  0.70819661  0.75003441  0.47811462  1
  O  O77  1  0.37756149  0.75001532  0.40614219  1
  O  O78  1  0.12191744  0.75002637  0.50652970  1
  O  O79  1  0.87777992  0.25008057  0.47040106  1
