# generated using pymatgen
data_Li3PO4
_symmetry_space_group_name_H-M   'P 1'
_cell_length_a   6.15119200
_cell_length_b   10.55485100
_cell_length_c   49.77846400
_cell_angle_alpha   90.00000000
_cell_angle_beta   90.00000000
_cell_angle_gamma   90.00000000
_symmetry_Int_Tables_number   1
_chemical_formula_structural   Li3PO4
_chemical_formula_sum   'Li66 P22 O88'
_cell_volume   3231.86254564
_cell_formula_units_Z   22
loop_
 _symmetry_equiv_pos_site_id
 _symmetry_equiv_pos_as_xyz
  1  'x, y, z'
loop_
 _atom_site_type_symbol
 _atom_site_label
 _atom_site_symmetry_multiplicity
 _atom_site_fract_x
 _atom_site_fract_y
 _atom_site_fract_z
 _atom_site_occupancy
  Li  Li0  1  0.49165419  0.83730108  0.06169015  1
  Li  Li1  1  0.51305608  0.33818650  0.05698222  1
  Li  Li2  1  0.98147254  0.33778171  0.06164065  1
  Li  Li3  1  0.95112049  0.71159435  0.01668456  1
  Li  Li4  1  0.97775380  0.12701772  0.00020456  1
  Li  Li5  1  0.99945868  0.84304538  0.06404012  1
  Li  Li6  1  0.70588836  0.92913112  0.00444965  1
  Li  Li7  1  0.25007042  0.08425748  0.05149480  1
  Li  Li8  1  0.25348398  0.59319504  0.06057639  1
  Li  Li9  1  0.49948544  0.83474095  0.16358257  1
  Li  Li10  1  0.49677033  0.15866091  0.10242982  1
  Li  Li11  1  0.51075091  0.66565610  0.11333682  1
  Li  Li12  1  0.49976790  0.33372422  0.15324648  1
  Li  Li13  1  0.00387041  0.33371926  0.15280863  1
  Li  Li14  1  0.99988971  0.66682294  0.11429439  1
  Li  Li15  1  0.00175746  0.15531716  0.10219878  1
  Li  Li16  1  0.00103489  0.83367264  0.16409197  1
  Li  Li17  1  0.74399275  0.92580277  0.10263117  1
  Li  Li18  1  0.25016480  0.07097021  0.16222743  1
  Li  Li19  1  0.25331213  0.57485649  0.15360025  1
  Li  Li20  1  0.75208677  0.42709646  0.11344023  1
  Li  Li21  1  0.49851872  0.83616800  0.26365314  1
  Li  Li22  1  0.50251594  0.16118686  0.20288490  1
  Li  Li23  1  0.50278035  0.66146735  0.21358534  1
  Li  Li24  1  0.49884665  0.33445441  0.25344519  1
  Li  Li25  1  0.00364708  0.33576639  0.25332217  1
  Li  Li26  1  0.99761295  0.66131650  0.21360332  1
  Li  Li27  1  0.99877434  0.16117688  0.20297147  1
  Li  Li28  1  0.00294004  0.83544703  0.26385961  1
  Li  Li29  1  0.74993302  0.92436980  0.20364328  1
  Li  Li30  1  0.25068072  0.07419059  0.26360470  1
  Li  Li31  1  0.25027330  0.57433653  0.25360864  1
  Li  Li32  1  0.75065794  0.42278521  0.21333857  1
  Li  Li33  1  0.49854225  0.83967840  0.36456819  1
  Li  Li34  1  0.50155460  0.16364664  0.30398122  1
  Li  Li35  1  0.50175599  0.66383439  0.31387600  1
  Li  Li36  1  0.49756777  0.33953831  0.35393036  1
  Li  Li37  1  0.00199046  0.33950299  0.35383160  1
  Li  Li38  1  0.99624787  0.66378150  0.31405271  1
  Li  Li39  1  0.99676135  0.16376550  0.30379226  1
  Li  Li40  1  0.00145481  0.83967013  0.36458664  1
  Li  Li41  1  0.74875549  0.92520806  0.30397142  1
  Li  Li42  1  0.24998856  0.07622674  0.36389124  1
  Li  Li43  1  0.24953606  0.57703238  0.35407634  1
  Li  Li44  1  0.74860238  0.42523159  0.31386564  1
  Li  Li45  1  0.50351093  0.84160727  0.46533419  1
  Li  Li46  1  0.50029489  0.16675019  0.40370337  1
  Li  Li47  1  0.50036581  0.66681364  0.41443754  1
  Li  Li48  1  0.48824024  0.33337471  0.45428310  1
  Li  Li49  1  0.00002269  0.33328058  0.45351402  1
  Li  Li50  1  0.99758155  0.66685840  0.41454381  1
  Li  Li51  1  0.99953846  0.16671101  0.40367632  1
  Li  Li52  1  0.99868493  0.84349740  0.46531818  1
  Li  Li53  1  0.74984576  0.92966452  0.40544259  1
  Li  Li54  1  0.25552418  0.07400879  0.46513214  1
  Li  Li55  1  0.24838113  0.57340122  0.45415278  1
  Li  Li56  1  0.74635992  0.42570785  0.41411872  1
  Li  Li57  1  0.50836075  0.16260649  0.50614539  1
  Li  Li58  1  0.48721796  0.66164835  0.51075399  1
  Li  Li59  1  0.04776176  0.28833646  0.55101499  1
  Li  Li60  1  0.01853447  0.66211351  0.50615741  1
  Li  Li61  1  0.00031939  0.15727575  0.50356083  1
  Li  Li62  1  0.02041039  0.86838757  0.56696703  1
  Li  Li63  1  0.75031132  0.91582484  0.51630248  1
  Li  Li64  1  0.29372533  0.07033985  0.56339534  1
  Li  Li65  1  0.74642880  0.40675545  0.50713879  1
  P  P66  1  0.23528483  0.92092616  0.01294904  1
  P  P67  1  0.74469320  0.09181584  0.05140574  1
  P  P68  1  0.74842189  0.58679345  0.06406122  1
  P  P69  1  0.24926883  0.90996390  0.11439563  1
  P  P70  1  0.75038494  0.08707055  0.15239738  1
  P  P71  1  0.75187327  0.58601449  0.16404021  1
  P  P72  1  0.25310230  0.41254289  0.10197497  1
  P  P73  1  0.25011726  0.90952290  0.21411078  1
  P  P74  1  0.75061281  0.08794837  0.25299640  1
  P  P75  1  0.75008929  0.58763369  0.26422644  1
  P  P76  1  0.25073856  0.40940020  0.20257079  1
  P  P77  1  0.24949694  0.91161060  0.31456695  1
  P  P78  1  0.74997884  0.09094998  0.35349987  1
  P  P79  1  0.74917522  0.59104088  0.36494342  1
  P  P80  1  0.24940488  0.41176895  0.30319355  1
  P  P81  1  0.25015079  0.91342941  0.41520890  1
  P  P82  1  0.75064267  0.09011521  0.45322727  1
  P  P83  1  0.74679811  0.58733104  0.46567880  1
  P  P84  1  0.24775590  0.41446114  0.40358770  1
  P  P85  1  0.25550308  0.90802397  0.51631235  1
  P  P86  1  0.76535711  0.07898033  0.55479996  1
  P  P87  1  0.25166763  0.41322793  0.50366860  1
  O  O88  1  0.43293813  0.85775547  0.00006794  1
  O  O89  1  0.53959885  0.16214110  0.06254469  1
  O  O90  1  0.54018787  0.65599791  0.05504223  1
  O  O91  1  0.95495570  0.65627058  0.05233300  1
  O  O92  1  0.95355036  0.16070072  0.06222643  1
  O  O93  1  0.01243127  0.86505839  0.00244963  1
  O  O94  1  0.74336345  0.95272905  0.06209842  1
  O  O95  1  0.23428561  0.06764342  0.00974959  1
  O  O96  1  0.75080172  0.44685482  0.05459297  1
  O  O97  1  0.24024571  0.89875292  0.04453830  1
  O  O98  1  0.74258418  0.09457644  0.02045530  1
  O  O99  1  0.76239334  0.59023954  0.09549843  1
  O  O100  1  0.25340959  0.41446609  0.07043635  1
  O  O101  1  0.45510460  0.84049047  0.10347426  1
  O  O102  1  0.54346055  0.15718064  0.16282580  1
  O  O103  1  0.54597485  0.65654559  0.15355670  1
  O  O104  1  0.45883202  0.34186383  0.11218795  1
  O  O105  1  0.04352437  0.34162267  0.11125034  1
  O  O106  1  0.95963415  0.65597467  0.15395339  1
  O  O107  1  0.95756858  0.15745094  0.16267562  1
  O  O108  1  0.04091777  0.84174664  0.10360641  1
  O  O109  1  0.75055790  0.94858156  0.16310146  1
  O  O110  1  0.24994716  0.05066530  0.10597810  1
  O  O111  1  0.25310766  0.55199979  0.11208013  1
  O  O112  1  0.75210118  0.44728682  0.15344069  1
  O  O113  1  0.24931435  0.90203438  0.14581796  1
  O  O114  1  0.74941336  0.08801502  0.12108637  1
  O  O115  1  0.75013899  0.58621184  0.19536131  1
  O  O116  1  0.25107408  0.40920451  0.17115403  1
  O  O117  1  0.45722283  0.83890176  0.20391086  1
  O  O118  1  0.54363933  0.15796549  0.26340847  1
  O  O119  1  0.54327711  0.65788555  0.25385040  1
  O  O120  1  0.45762849  0.33915727  0.21289340  1
  O  O121  1  0.04379088  0.33919364  0.21287311  1
  O  O122  1  0.95724823  0.65773730  0.25391188  1
  O  O123  1  0.95748266  0.15840132  0.26327290  1
  O  O124  1  0.04254686  0.83895436  0.20403389  1
  O  O125  1  0.75085147  0.94916442  0.26350454  1
  O  O126  1  0.25015989  0.04784250  0.20338218  1
  O  O127  1  0.25051425  0.54824295  0.21304614  1
  O  O128  1  0.75044000  0.44878628  0.25375775  1
  O  O129  1  0.25038671  0.91012499  0.24548304  1
  O  O130  1  0.75018407  0.08817356  0.22162406  1
  O  O131  1  0.74954137  0.58857561  0.29559532  1
  O  O132  1  0.25077536  0.41082069  0.27183104  1
  O  O133  1  0.45621526  0.84124605  0.30418357  1
  O  O134  1  0.54268833  0.16182183  0.36358276  1
  O  O135  1  0.54235732  0.66113723  0.35456190  1
  O  O136  1  0.45605100  0.34166545  0.31366261  1
  O  O137  1  0.04199894  0.34187604  0.31347853  1
  O  O138  1  0.95630444  0.66114350  0.35465888  1
  O  O139  1  0.95738052  0.16180085  0.36353203  1
  O  O140  1  0.04249162  0.84111914  0.30433222  1
  O  O141  1  0.75006149  0.95287155  0.36434588  1
  O  O142  1  0.24945702  0.05025730  0.30399232  1
  O  O143  1  0.24925151  0.55062387  0.31369202  1
  O  O144  1  0.74938456  0.45218157  0.35443691  1
  O  O145  1  0.25004990  0.91212650  0.34593174  1
  O  O146  1  0.74960122  0.08939827  0.32212528  1
  O  O147  1  0.74869842  0.59114914  0.39636372  1
  O  O148  1  0.24936326  0.41405508  0.37226021  1
  O  O149  1  0.45693264  0.84332436  0.40473679  1
  O  O150  1  0.54490507  0.15903143  0.46433868  1
  O  O151  1  0.54114301  0.65828385  0.45551583  1
  O  O152  1  0.45367044  0.34393262  0.41406827  1
  O  O153  1  0.04012381  0.34465205  0.41374508  1
  O  O154  1  0.95642054  0.65795499  0.45631643  1
  O  O155  1  0.95907042  0.15817054  0.46407838  1
  O  O156  1  0.04277679  0.84320493  0.40492340  1
  O  O157  1  0.75083609  0.94908325  0.46139776  1
  O  O158  1  0.24983374  0.05196732  0.40451853  1
  O  O159  1  0.24817869  0.55321604  0.41417413  1
  O  O160  1  0.74615838  0.44783557  0.45560358  1
  O  O161  1  0.25111528  0.91218150  0.44652402  1
  O  O162  1  0.75003621  0.09925943  0.42181585  1
  O  O163  1  0.74678067  0.58554444  0.49722531  1
  O  O164  1  0.23806535  0.40992294  0.47222963  1
  O  O165  1  0.46082981  0.83787815  0.50517095  1
  O  O166  1  0.56721668  0.14156332  0.56769543  1
  O  O167  1  0.45969786  0.34402601  0.51275789  1
  O  O168  1  0.04483543  0.34380318  0.51533949  1
  O  O169  1  0.98760286  0.13515395  0.56533771  1
  O  O170  1  0.04670494  0.83900880  0.50546551  1
  O  O171  1  0.76651973  0.93213696  0.55786620  1
  O  O172  1  0.25648685  0.04716809  0.50567889  1
  O  O173  1  0.24919107  0.55313300  0.51317630  1
  O  O174  1  0.25733945  0.90478826  0.54726598  1
  O  O175  1  0.76034686  0.10144445  0.52320504  1
