# generated using pymatgen
data_Li3PO4
_symmetry_space_group_name_H-M   'P 1'
_cell_length_a   6.15119200
_cell_length_b   11.66978300
_cell_length_c   45.02262600
_cell_angle_alpha   90.00000000
_cell_angle_beta   90.00000000
_cell_angle_gamma   90.00000000
_symmetry_Int_Tables_number   1
_chemical_formula_structural   Li3PO4
_chemical_formula_sum   'Li54 P18 O72'
_cell_volume   3231.86257628
_cell_formula_units_Z   18
loop_
 _symmetry_equiv_pos_site_id
 _symmetry_equiv_pos_as_xyz
  1  'x, y, z'
loop_
 _atom_site_type_symbol
 _atom_site_label
 _atom_site_symmetry_multiplicity
 _atom_site_fract_x
 _atom_site_fract_y
 _atom_site_fract_z
 _atom_site_occupancy
  Li  Li0  1  0.50412249  0.98834042  0.10143502  1
  Li  Li1  1  0.52676021  0.20997057  0.06789999  1
  Li  Li2  1  0.99328658  0.22009796  0.06654090  1
  Li  Li3  1  0.77296179  0.62718522  0.07754512  1
  Li  Li4  1  0.00542211  0.98137672  0.09700041  1
  Li  Li5  1  0.96903658  0.79013770  0.03051093  1
  Li  Li6  1  0.63511442  0.85524968  0.06673649  1
  Li  Li7  1  0.27075218  0.00369963  0.05329192  1
  Li  Li8  1  0.24530494  0.42111762  0.09373216  1
  Li  Li9  1  0.49166760  0.60699257  0.12561456  1
  Li  Li10  1  0.50421303  0.80404519  0.19742692  1
  Li  Li11  1  0.50839679  0.37680324  0.15860150  1
  Li  Li12  1  0.50290209  0.03640038  0.16532503  1
  Li  Li13  1  0.00704343  0.03483351  0.16461286  1
  Li  Li14  1  0.99958285  0.37601625  0.15936593  1
  Li  Li15  1  0.99975782  0.80366304  0.19776098  1
  Li  Li16  1  0.00999258  0.60529819  0.12693272  1
  Li  Li17  1  0.75091160  0.60904965  0.17402029  1
  Li  Li18  1  0.25119206  0.80080576  0.14846622  1
  Li  Li19  1  0.25395844  0.23005745  0.18915784  1
  Li  Li20  1  0.75783338  0.18472494  0.13404866  1
  Li  Li21  1  0.50046360  0.42517752  0.22578440  1
  Li  Li22  1  0.50470969  0.61992230  0.29789853  1
  Li  Li23  1  0.50653893  0.19224395  0.25895665  1
  Li  Li24  1  0.49977534  0.85349057  0.26534259  1
  Li  Li25  1  0.00226640  0.85353756  0.26544632  1
  Li  Li26  1  0.00146799  0.19186119  0.25889429  1
  Li  Li27  1  0.00045992  0.61948597  0.29821570  1
  Li  Li28  1  0.00378067  0.42534962  0.22601198  1
  Li  Li29  1  0.75170496  0.42424257  0.27453878  1
  Li  Li30  1  0.25225574  0.62219800  0.24935303  1
  Li  Li31  1  0.25201990  0.04648962  0.28999316  1
  Li  Li32  1  0.75220843  0.99794855  0.23418556  1
  Li  Li33  1  0.49850680  0.24239770  0.32695387  1
  Li  Li34  1  0.50956976  0.44071610  0.39743251  1
  Li  Li35  1  0.50611087  0.01063450  0.35939499  1
  Li  Li36  1  0.49908525  0.66853596  0.36465975  1
  Li  Li37  1  0.00559253  0.66893991  0.36534692  1
  Li  Li38  1  0.00394111  0.01017096  0.35865134  1
  Li  Li39  1  0.99320043  0.43909981  0.39845769  1
  Li  Li40  1  0.00352927  0.24236925  0.32691766  1
  Li  Li41  1  0.75140790  0.24526479  0.37627991  1
  Li  Li42  1  0.25042992  0.43849058  0.34977974  1
  Li  Li43  1  0.25655784  0.86074605  0.39011548  1
  Li  Li44  1  0.75224598  0.81509422  0.33498260  1
  Li  Li45  1  0.50676330  0.06526308  0.42735378  1
  Li  Li46  1  0.46969465  0.25774358  0.49395844  1
  Li  Li47  1  0.49392132  0.82820467  0.45676879  1
  Li  Li48  1  0.26121001  0.42305099  0.44670948  1
  Li  Li49  1  0.02757808  0.83917438  0.45583803  1
  Li  Li50  1  0.00294752  0.05806132  0.42265208  1
  Li  Li51  1  0.77167625  0.04417577  0.47136603  1
  Li  Li52  1  0.13735628  0.19120733  0.45731463  1
  Li  Li53  1  0.75051049  0.62575995  0.43069643  1
  P  P54  1  0.26541313  0.74971175  0.08231481  1
  P  P55  1  0.77320567  0.03750742  0.03924377  1
  P  P56  1  0.25260799  0.57766823  0.18405718  1
  P  P57  1  0.75242602  0.83255572  0.13858740  1
  P  P58  1  0.74803505  0.40457780  0.10190810  1
  P  P59  1  0.25331488  0.19398872  0.12179942  1
  P  P60  1  0.25215290  0.39402446  0.28402378  1
  P  P61  1  0.75217479  0.65176552  0.24003661  1
  P  P62  1  0.75442215  0.22122817  0.20154326  1
  P  P63  1  0.25270225  0.00664934  0.22224949  1
  P  P64  1  0.25270192  0.21345960  0.38562163  1
  P  P65  1  0.75178400  0.46777808  0.34007008  1
  P  P66  1  0.75212569  0.03922845  0.30198527  1
  P  P67  1  0.25306009  0.82385351  0.32254570  1
  P  P68  1  0.27453623  0.00995850  0.48509739  1
  P  P69  1  0.76603157  0.29728508  0.44203167  1
  P  P70  1  0.75349372  0.85256492  0.40220937  1
  P  P71  1  0.25056462  0.64216847  0.42213427  1
  O  O72  1  0.48651252  0.71271267  0.06874636  1
  O  O73  1  0.56817853  0.04533381  0.06152548  1
  O  O74  1  0.53885950  0.47845511  0.09899974  1
  O  O75  1  0.94715010  0.48685479  0.09762764  1
  O  O76  1  0.98437344  0.06132561  0.05889814  1
  O  O77  1  0.06402052  0.71231639  0.06369469  1
  O  O78  1  0.78334846  0.90728591  0.03101544  1
  O  O79  1  0.26824805  0.88488335  0.08483039  1
  O  O80  1  0.75421508  0.30678715  0.07889541  1
  O  O81  1  0.74979451  0.12534104  0.01527518  1
  O  O82  1  0.25634630  0.25049975  0.09017032  1
  O  O83  1  0.45920346  0.53927834  0.16665952  1
  O  O84  1  0.54448515  0.87144661  0.15600584  1
  O  O85  1  0.54723918  0.29735807  0.19810743  1
  O  O86  1  0.46173155  0.11934086  0.12590023  1
  O  O87  1  0.04984824  0.11539914  0.12510721  1
  O  O88  1  0.96159779  0.29751878  0.19846189  1
  O  O89  1  0.95836114  0.87061128  0.15639996  1
  O  O90  1  0.04524864  0.53896197  0.16681339  1
  O  O91  1  0.75147918  0.69955753  0.13507080  1
  O  O92  1  0.25218356  0.71030648  0.18728265  1
  O  O93  1  0.25069153  0.28953996  0.14590944  1
  O  O94  1  0.75587156  0.12682251  0.17715524  1
  O  O95  1  0.24531917  0.69897370  0.11448407  1
  O  O96  1  0.75315887  0.89207669  0.10773535  1
  O  O97  1  0.75705601  0.35107170  0.13386284  1
  O  O98  1  0.25302856  0.06335530  0.19081718  1
  O  O99  1  0.45915115  0.35538209  0.26667504  1
  O  O100  1  0.54529717  0.69040211  0.25740963  1
  O  O101  1  0.54494527  0.11543565  0.29889085  1
  O  O102  1  0.45976777  0.93023243  0.22534975  1
  O  O103  1  0.04546537  0.93050882  0.22547113  1
  O  O104  1  0.95959482  0.11528077  0.29883455  1
  O  O105  1  0.95894916  0.69047792  0.25741985  1
  O  O106  1  0.04527334  0.35539539  0.26665656  1
  O  O107  1  0.75213367  0.51911454  0.23669038  1
  O  O108  1  0.25225320  0.52670679  0.28736733  1
  O  O109  1  0.25342757  0.10046314  0.24677171  1
  O  O110  1  0.75166138  0.94554109  0.27741590  1
  O  O111  1  0.25256130  0.51994371  0.21529202  1
  O  O112  1  0.75190225  0.70933580  0.20872268  1
  O  O113  1  0.75328037  0.16470696  0.23297187  1
  O  O114  1  0.25146188  0.88032775  0.29111086  1
  O  O115  1  0.45894544  0.17521853  0.36789912  1
  O  O116  1  0.54416866  0.50663148  0.35722630  1
  O  O117  1  0.54942197  0.93077737  0.39911217  1
  O  O118  1  0.46024703  0.74752636  0.32556570  1
  O  O119  1  0.04573305  0.74785490  0.32595654  1
  O  O120  1  0.96156751  0.92739754  0.39807432  1
  O  O121  1  0.95797151  0.50670344  0.35749742  1
  O  O122  1  0.04501805  0.17437480  0.36818201  1
  O  O123  1  0.75180467  0.33517701  0.33705655  1
  O  O124  1  0.25138758  0.34652481  0.38896591  1
  O  O125  1  0.25527297  0.91832701  0.34692011  1
  O  O126  1  0.74989590  0.75689696  0.37813849  1
  O  O127  1  0.25171191  0.33667308  0.31537377  1
  O  O128  1  0.75235423  0.52509432  0.30879040  1
  O  O129  1  0.75291631  0.98212128  0.33336052  1
  O  O130  1  0.25503360  0.69405955  0.38999771  1
  O  O131  1  0.48561863  0.98566953  0.46543405  1
  O  O132  1  0.56571866  0.33479796  0.46072662  1
  O  O133  1  0.45178805  0.56165684  0.42643578  1
  O  O134  1  0.04401537  0.56618164  0.42565842  1
  O  O135  1  0.98773124  0.33396926  0.45550221  1
  O  O136  1  0.06953478  0.00218474  0.46273870  1
  O  O137  1  0.76897681  0.16205587  0.43939774  1
  O  O138  1  0.28543433  0.14027159  0.49314894  1
  O  O139  1  0.25443965  0.74143557  0.44472688  1
  O  O140  1  0.25339433  0.15413547  0.41648081  1
  O  O141  1  0.74622392  0.34806549  0.40984858  1
  O  O142  1  0.75828694  0.79603773  0.43382785  1
  O  O143  1  0.25025786  0.92279064  0.50918065  1
