# generated using pymatgen
data_Li3PO4
_symmetry_space_group_name_H-M   'P 1'
_cell_length_a   4.97784600
_cell_length_b   10.55485100
_cell_length_c   49.20953300
_cell_angle_alpha   90.00000000
_cell_angle_beta   90.00000000
_cell_angle_gamma   90.00000000
_symmetry_Int_Tables_number   1
_chemical_formula_structural   Li3PO4
_chemical_formula_sum   'Li48 P16 O64'
_cell_volume   2585.48967113
_cell_formula_units_Z   16
loop_
 _symmetry_equiv_pos_site_id
 _symmetry_equiv_pos_as_xyz
  1  'x, y, z'
loop_
 _atom_site_type_symbol
 _atom_site_label
 _atom_site_symmetry_multiplicity
 _atom_site_fract_x
 _atom_site_fract_y
 _atom_site_fract_z
 _atom_site_occupancy
  Li  Li0  1  0.72806071  0.83098284  0.04436890  1
  Li  Li1  1  0.77326860  0.33099821  0.04451624  1
  Li  Li2  1  0.29676074  0.66511469  0.10464519  1
  Li  Li3  1  0.70981491  0.33093775  0.10504602  1
  Li  Li4  1  0.79050544  0.83070084  0.10492842  1
  Li  Li5  1  0.20378636  0.16457739  0.10456371  1
  Li  Li6  1  0.17632946  0.94295249  0.07963983  1
  Li  Li7  1  0.32377442  0.44302774  0.07965742  1
  Li  Li8  1  0.19550493  0.16287153  0.16863645  1
  Li  Li9  1  0.80247664  0.83590072  0.16793989  1
  Li  Li10  1  0.69757799  0.33589721  0.16794254  1
  Li  Li11  1  0.30485376  0.66285807  0.16866271  1
  Li  Li12  1  0.30073160  0.66462469  0.23090466  1
  Li  Li13  1  0.69880619  0.33695414  0.23133204  1
  Li  Li14  1  0.80117479  0.83695606  0.23133119  1
  Li  Li15  1  0.19904759  0.16469264  0.23091422  1
  Li  Li16  1  0.79718170  0.07346104  0.13603332  1
  Li  Li17  1  0.20225425  0.92597165  0.19986337  1
  Li  Li18  1  0.29776988  0.42585439  0.19986119  1
  Li  Li19  1  0.70262427  0.57358462  0.13607084  1
  Li  Li20  1  0.20016915  0.16366098  0.29434255  1
  Li  Li21  1  0.80183195  0.83611301  0.29382270  1
  Li  Li22  1  0.69816761  0.33611725  0.29382284  1
  Li  Li23  1  0.29982929  0.66366217  0.29434465  1
  Li  Li24  1  0.30033779  0.66276953  0.35709522  1
  Li  Li25  1  0.69744404  0.33591209  0.35725651  1
  Li  Li26  1  0.80250697  0.83591832  0.35725718  1
  Li  Li27  1  0.19961622  0.16277798  0.35709532  1
  Li  Li28  1  0.79829113  0.07523726  0.26251827  1
  Li  Li29  1  0.20408202  0.92496970  0.32576351  1
  Li  Li30  1  0.29589903  0.42497380  0.32576523  1
  Li  Li31  1  0.70168979  0.57525154  0.26251939  1
  Li  Li32  1  0.19941359  0.16346983  0.42057834  1
  Li  Li33  1  0.80513858  0.83577608  0.41985549  1
  Li  Li34  1  0.69482711  0.33577186  0.41985659  1
  Li  Li35  1  0.30047598  0.66350664  0.42057137  1
  Li  Li36  1  0.28706939  0.66899437  0.48363868  1
  Li  Li37  1  0.70469010  0.33474748  0.48388076  1
  Li  Li38  1  0.79481272  0.83481711  0.48389364  1
  Li  Li39  1  0.21287778  0.16897874  0.48363762  1
  Li  Li40  1  0.79888457  0.07406710  0.38843423  1
  Li  Li41  1  0.20438786  0.92595684  0.45248129  1
  Li  Li42  1  0.29554324  0.42597045  0.45247786  1
  Li  Li43  1  0.70105930  0.57403954  0.38843241  1
  Li  Li44  1  0.27617809  0.17074480  0.54384787  1
  Li  Li45  1  0.22376686  0.67074347  0.54384688  1
  Li  Li46  1  0.82752547  0.05667711  0.50853572  1
  Li  Li47  1  0.67240757  0.55668886  0.50853220  1
  P  P48  1  0.69278157  0.08944623  0.07256395  1
  P  P49  1  0.80744733  0.58952205  0.07259972  1
  P  P50  1  0.69276537  0.08863917  0.19958973  1
  P  P51  1  0.30405932  0.91057778  0.13729190  1
  P  P52  1  0.19601244  0.41059679  0.13730264  1
  P  P53  1  0.80722650  0.58861788  0.19959822  1
  P  P54  1  0.69458659  0.08825497  0.32555253  1
  P  P55  1  0.30678442  0.91185562  0.26266236  1
  P  P56  1  0.19319308  0.41188556  0.26266444  1
  P  P57  1  0.80540820  0.58825979  0.32555814  1
  P  P58  1  0.69713077  0.08878414  0.45113419  1
  P  P59  1  0.30807830  0.91110699  0.38884269  1
  P  P60  1  0.19180104  0.41106061  0.38884357  1
  P  P61  1  0.80275454  0.58881347  0.45113378  1
  P  P62  1  0.30859677  0.91136192  0.51593044  1
  P  P63  1  0.19117943  0.41136129  0.51590800  1
  O  O64  1  0.77429895  0.16364523  0.04714356  1
  O  O65  1  0.72577489  0.66368426  0.04717889  1
  O  O66  1  0.68896870  0.65327090  0.09896531  1
  O  O67  1  0.30876793  0.34028215  0.11173098  1
  O  O68  1  0.19109053  0.84036532  0.11171606  1
  O  O69  1  0.81118144  0.15323037  0.09893151  1
  O  O70  1  0.80473628  0.94840917  0.07097403  1
  O  O71  1  0.69565761  0.44847186  0.07102567  1
  O  O72  1  0.38468305  0.08151848  0.07562381  1
  O  O73  1  0.11553547  0.58169377  0.07567150  1
  O  O74  1  0.79479969  0.15794345  0.17355449  1
  O  O75  1  0.20556360  0.84120647  0.16338423  1
  O  O76  1  0.29452624  0.34122931  0.16339273  1
  O  O77  1  0.70530042  0.65793874  0.17356162  1
  O  O78  1  0.70295503  0.65883039  0.22545046  1
  O  O79  1  0.29734646  0.34199358  0.23677810  1
  O  O80  1  0.20265043  0.84195675  0.23677666  1
  O  O81  1  0.79700351  0.15880439  0.22545112  1
  O  O82  1  0.20351909  0.04985695  0.13712718  1
  O  O83  1  0.79565231  0.94945370  0.19960890  1
  O  O84  1  0.70423443  0.44944703  0.19961361  1
  O  O85  1  0.29662645  0.54987078  0.13714614  1
  O  O86  1  0.37912881  0.08987137  0.19975044  1
  O  O87  1  0.61750192  0.90755838  0.13630074  1
  O  O88  1  0.88255997  0.40768615  0.13634218  1
  O  O89  1  0.12083093  0.58979813  0.19976031  1
  O  O90  1  0.79674246  0.15817824  0.29958767  1
  O  O91  1  0.20417409  0.84199846  0.28861849  1
  O  O92  1  0.29582215  0.34201742  0.28861828  1
  O  O93  1  0.70328505  0.65818535  0.29959310  1
  O  O94  1  0.70119882  0.65808824  0.35145241  1
  O  O95  1  0.29708173  0.34111876  0.36298997  1
  O  O96  1  0.20279438  0.84116681  0.36298936  1
  O  O97  1  0.79874732  0.15808753  0.35144768  1
  O  O98  1  0.20386203  0.05104200  0.26262723  1
  O  O99  1  0.79741255  0.94904499  0.32555409  1
  O  O100  1  0.70258560  0.44904397  0.32555547  1
  O  O101  1  0.29611925  0.55106231  0.26263030  1
  O  O102  1  0.38083895  0.08959696  0.32568462  1
  O  O103  1  0.62048381  0.91065528  0.26259139  1
  O  O104  1  0.87950562  0.41068585  0.26258851  1
  O  O105  1  0.11915674  0.58961930  0.32568668  1
  O  O106  1  0.79478650  0.15793425  0.42498707  1
  O  O107  1  0.20648801  0.84182159  0.41491061  1
  O  O108  1  0.29338183  0.34177222  0.41491138  1
  O  O109  1  0.70511064  0.65795162  0.42498231  1
  O  O110  1  0.68906696  0.65956667  0.47661562  1
  O  O111  1  0.31136926  0.34701438  0.48967302  1
  O  O112  1  0.18849294  0.84703267  0.48968872  1
  O  O113  1  0.81078340  0.15953063  0.47662173  1
  O  O114  1  0.20542450  0.05037849  0.38884988  1
  O  O115  1  0.79747234  0.94949326  0.45132627  1
  O  O116  1  0.70238570  0.44952930  0.45132621  1
  O  O117  1  0.29443314  0.55033604  0.38884983  1
  O  O118  1  0.38367681  0.09191047  0.45223480  1
  O  O119  1  0.62168585  0.90978050  0.38858568  1
  O  O120  1  0.87819254  0.40972519  0.38858600  1
  O  O121  1  0.11621348  0.59194325  0.45223291  1
  O  O122  1  0.22747367  0.83811181  0.54147253  1
  O  O123  1  0.27215891  0.33810441  0.54145478  1
  O  O124  1  0.19803241  0.05266089  0.51738403  1
  O  O125  1  0.30183676  0.55263760  0.51737720  1
  O  O126  1  0.61654504  0.91888364  0.51273485  1
  O  O127  1  0.88325150  0.41889574  0.51269630  1
