# generated using pymatgen
data_Li3PO4
_symmetry_space_group_name_H-M   'P 1'
_cell_length_a   6.15119200
_cell_length_b   14.50933100
_cell_length_c   43.45376800
_cell_angle_alpha   90.00000000
_cell_angle_beta   90.00000000
_cell_angle_gamma   90.00000000
_symmetry_Int_Tables_number   1
_chemical_formula_structural   Li3PO4
_chemical_formula_sum   'Li72 P24 O96'
_cell_volume   3878.23492236
_cell_formula_units_Z   24
loop_
 _symmetry_equiv_pos_site_id
 _symmetry_equiv_pos_as_xyz
  1  'x, y, z'
loop_
 _atom_site_type_symbol
 _atom_site_label
 _atom_site_symmetry_multiplicity
 _atom_site_fract_x
 _atom_site_fract_y
 _atom_site_fract_z
 _atom_site_occupancy
  Li  Li0  1  0.52223779  0.30728768  0.01313400  1
  Li  Li1  1  0.50905685  0.11620441  0.07665627  1
  Li  Li2  1  0.00538667  0.11788306  0.07737964  1
  Li  Li3  1  0.75231478  0.64291432  0.04017125  1
  Li  Li4  1  0.97848247  0.30415917  0.01332122  1
  Li  Li5  1  0.96985834  0.81923580  0.00945297  1
  Li  Li6  1  0.62838928  0.83184605  0.04881999  1
  Li  Li7  1  0.26720902  0.96676647  0.04655015  1
  Li  Li8  1  0.24470127  0.48260100  0.03736901  1
  Li  Li9  1  0.75226054  0.25972338  0.06548081  1
  Li  Li10  1  0.48865672  0.58923804  0.08683919  1
  Li  Li11  1  0.51008324  0.91140606  0.09287256  1
  Li  Li12  1  0.50787636  0.38516020  0.10373473  1
  Li  Li13  1  0.50165229  0.87827922  0.16181973  1
  Li  Li14  1  0.00426814  0.87796457  0.16097562  1
  Li  Li15  1  0.99723209  0.38416386  0.10403581  1
  Li  Li16  1  0.00240704  0.90475934  0.08807168  1
  Li  Li17  1  0.00631627  0.58812099  0.08744568  1
  Li  Li18  1  0.75007586  0.54748043  0.13541956  1
  Li  Li19  1  0.24992984  0.71719390  0.12561869  1
  Li  Li20  1  0.25394398  0.23887469  0.12040211  1
  Li  Li21  1  0.75685748  0.01990752  0.14284229  1
  Li  Li22  1  0.49879275  0.35418688  0.17190327  1
  Li  Li23  1  0.50639386  0.67220980  0.17468422  1
  Li  Li24  1  0.50165041  0.14339695  0.18401413  1
  Li  Li25  1  0.49972543  0.64223545  0.24609827  1
  Li  Li26  1  0.00415248  0.64182020  0.24619386  1
  Li  Li27  1  0.00042774  0.14414242  0.18425870  1
  Li  Li28  1  0.99753958  0.67237374  0.17490025  1
  Li  Li29  1  0.00531720  0.35558231  0.17199291  1
  Li  Li30  1  0.75194267  0.30554245  0.21927259  1
  Li  Li31  1  0.25201456  0.48211563  0.21108984  1
  Li  Li32  1  0.25152485  0.00182939  0.20190990  1
  Li  Li33  1  0.75222207  0.78220770  0.22764336  1
  Li  Li34  1  0.49889198  0.11642213  0.25413326  1
  Li  Li35  1  0.50645950  0.43345136  0.25877683  1
  Li  Li36  1  0.50409560  0.90749380  0.26710360  1
  Li  Li37  1  0.50097590  0.40486475  0.32920845  1
  Li  Li38  1  0.00164359  0.40510666  0.32935892  1
  Li  Li39  1  0.99964904  0.90820430  0.26731002  1
  Li  Li40  1  0.00014759  0.43300659  0.25913161  1
  Li  Li41  1  0.00474789  0.11687081  0.25439979  1
  Li  Li42  1  0.75112216  0.06785236  0.30213408  1
  Li  Li43  1  0.25458618  0.24324575  0.29397632  1
  Li  Li44  1  0.25403661  0.76695256  0.28596657  1
  Li  Li45  1  0.75163439  0.54745203  0.31180950  1
  Li  Li46  1  0.49707954  0.87807696  0.33861276  1
  Li  Li47  1  0.50754542  0.19478058  0.34137440  1
  Li  Li48  1  0.50479956  0.67180727  0.35246610  1
  Li  Li49  1  0.49899685  0.16656920  0.40953263  1
  Li  Li50  1  0.01113535  0.16455270  0.40969175  1
  Li  Li51  1  0.00252355  0.67213232  0.35172884  1
  Li  Li52  1  0.00076018  0.19412505  0.34121234  1
  Li  Li53  1  0.00504996  0.87863112  0.33847919  1
  Li  Li54  1  0.75063790  0.83309739  0.38792687  1
  Li  Li55  1  0.25168246  0.00216083  0.37793906  1
  Li  Li56  1  0.25620456  0.52912588  0.37017560  1
  Li  Li57  1  0.75724040  0.30975104  0.39261790  1
  Li  Li58  1  0.50352042  0.64414694  0.42538685  1
  Li  Li59  1  0.50899061  0.96261769  0.42588399  1
  Li  Li60  1  0.50946949  0.43103123  0.43601057  1
  Li  Li61  1  0.25884912  0.90651785  0.47274928  1
  Li  Li62  1  0.01147864  0.43373976  0.43666904  1
  Li  Li63  1  0.99061587  0.96088268  0.42651575  1
  Li  Li64  1  0.01162893  0.63857538  0.42056362  1
  Li  Li65  1  0.77290979  0.58361021  0.46677383  1
  Li  Li66  1  0.13507480  0.71996157  0.46410660  1
  Li  Li67  1  0.25332387  0.29111701  0.44818163  1
  Li  Li68  1  0.74879003  0.06674034  0.47611861  1
  Li  Li69  1  0.47852242  0.24443089  0.50013298  1
  Li  Li70  1  0.46963472  0.73172091  0.50413032  1
  Li  Li71  1  0.02315950  0.24402487  0.50038044  1
  P  P72  1  0.26432004  0.73888722  0.05519416  1
  P  P73  1  0.76930823  0.00080430  0.03442498  1
  P  P74  1  0.74800444  0.45372675  0.04756335  1
  P  P75  1  0.25163291  0.28441005  0.05361290  1
  P  P76  1  0.25116219  0.51455773  0.14306642  1
  P  P77  1  0.74997317  0.75032160  0.11792587  1
  P  P78  1  0.75272318  0.22110092  0.13140954  1
  P  P79  1  0.25254428  0.03793674  0.13200145  1
  P  P80  1  0.25196147  0.27419654  0.22596107  1
  P  P81  1  0.75187143  0.51354121  0.20420667  1
  P  P82  1  0.75279923  0.98468466  0.21315569  1
  P  P83  1  0.25166508  0.80082898  0.21599542  1
  P  P84  1  0.25224954  0.03622556  0.30912555  1
  P  P85  1  0.75289482  0.27520693  0.28720762  1
  P  P86  1  0.75236663  0.74906618  0.29751087  1
  P  P87  1  0.25273681  0.56472532  0.30024821  1
  P  P88  1  0.25139596  0.80003468  0.39542223  1
  P  P89  1  0.75197624  0.03569976  0.37020595  1
  P  P90  1  0.75337902  0.51156859  0.38143895  1
  P  P91  1  0.25470584  0.32821294  0.38193464  1
  P  P92  1  0.27235020  0.54932390  0.47877382  1
  P  P93  1  0.76652846  0.81112929  0.45823498  1
  P  P94  1  0.75347692  0.26539508  0.45986449  1
  P  P95  1  0.24997438  0.09643801  0.46581125  1
  O  O96  1  0.48480022  0.72008810  0.03892339  1
  O  O97  1  0.56364637  0.99540027  0.05722929  1
  O  O98  1  0.54228833  0.51611955  0.04833678  1
  O  O99  1  0.46217387  0.22719003  0.04947113  1
  O  O100  1  0.04157018  0.22697664  0.04978088  1
  O  O101  1  0.94684360  0.52085601  0.04789397  1
  O  O102  1  0.97747299  0.00245637  0.05626722  1
  O  O103  1  0.06369314  0.72541201  0.03389287  1
  O  O104  1  0.77277932  0.90404542  0.01824759  1
  O  O105  1  0.27164229  0.84213231  0.06704827  1
  O  O106  1  0.25257269  0.33481798  0.08492279  1
  O  O107  1  0.75171739  0.38849043  0.01897105  1
  O  O108  1  0.75789614  0.08297641  0.01352956  1
  O  O109  1  0.75364572  0.39100945  0.07684061  1
  O  O110  1  0.24968393  0.35447974  0.02569652  1
  O  O111  1  0.45776439  0.50300145  0.12265446  1
  O  O112  1  0.54404770  0.76186520  0.13872500  1
  O  O113  1  0.54624603  0.28297481  0.13452293  1
  O  O114  1  0.46098699  0.97686636  0.12981577  1
  O  O115  1  0.04844772  0.97505124  0.12820260  1
  O  O116  1  0.95963453  0.28263659  0.13469615  1
  O  O117  1  0.95635287  0.76131680  0.13860779  1
  O  O118  1  0.04365126  0.50268936  0.12280753  1
  O  O119  1  0.74877533  0.65241021  0.10300779  1
  O  O120  1  0.25121668  0.61217212  0.15762079  1
  O  O121  1  0.24828548  0.08643756  0.16395753  1
  O  O122  1  0.75360216  0.17222893  0.09964911  1
  O  O123  1  0.24365113  0.67233262  0.08350983  1
  O  O124  1  0.74952132  0.82621300  0.09256545  1
  O  O125  1  0.75171165  0.14723057  0.15741701  1
  O  O126  1  0.25677539  0.11132519  0.10575185  1
  O  O127  1  0.45859684  0.26122903  0.20560656  1
  O  O128  1  0.54517803  0.52597110  0.22458721  1
  O  O129  1  0.54482316  0.04573837  0.21619801  1
  O  O130  1  0.45940755  0.73968909  0.21305286  1
  O  O131  1  0.04445767  0.73938023  0.21314539  1
  O  O132  1  0.95950008  0.04623824  0.21654441  1
  O  O133  1  0.95867720  0.52564864  0.22460563  1
  O  O134  1  0.04494023  0.26173798  0.20567633  1
  O  O135  1  0.75144936  0.41550652  0.18975186  1
  O  O136  1  0.25268334  0.37215983  0.24046698  1
  O  O137  1  0.25175226  0.85004051  0.24778599  1
  O  O138  1  0.75466800  0.93604242  0.18126278  1
  O  O139  1  0.25193543  0.43885469  0.16857099  1
  O  O140  1  0.75193417  0.58814364  0.17827184  1
  O  O141  1  0.75208479  0.91133056  0.23945700  1
  O  O142  1  0.25128784  0.87326453  0.18941414  1
  O  O143  1  0.45850942  0.02370587  0.28865860  1
  O  O144  1  0.54644032  0.28774887  0.30761280  1
  O  O145  1  0.54507204  0.81044028  0.30037702  1
  O  O146  1  0.45954722  0.50320023  0.29689256  1
  O  O147  1  0.04471907  0.50371409  0.29719675  1
  O  O148  1  0.96010830  0.81021901  0.30036999  1
  O  O149  1  0.95996399  0.28755249  0.30751247  1
  O  O150  1  0.04504839  0.02421511  0.28881615  1
  O  O151  1  0.75173594  0.17734056  0.27261112  1
  O  O152  1  0.25362650  0.13420197  0.32358192  1
  O  O153  1  0.25476922  0.61346271  0.33214356  1
  O  O154  1  0.75192831  0.69982186  0.26570468  1
  O  O155  1  0.25197594  0.19949429  0.25179726  1
  O  O156  1  0.75283684  0.35007177  0.26143528  1
  O  O157  1  0.75235720  0.67662209  0.32409512  1
  O  O158  1  0.25215553  0.63812375  0.27394287  1
  O  O159  1  0.45737007  0.78889728  0.37469786  1
  O  O160  1  0.54469992  0.04800684  0.39048426  1
  O  O161  1  0.54869009  0.57414073  0.38523732  1
  O  O162  1  0.46252346  0.26725500  0.37860615  1
  O  O163  1  0.04918409  0.26582639  0.37871149  1
  O  O164  1  0.96132495  0.57301122  0.38357236  1
  O  O165  1  0.95889752  0.04701268  0.39058437  1
  O  O166  1  0.04506342  0.78878077  0.37471425  1
  O  O167  1  0.75091273  0.93801326  0.35573470  1
  O  O168  1  0.25110318  0.89783042  0.41047756  1
  O  O169  1  0.25529293  0.37696375  0.41371143  1
  O  O170  1  0.74899991  0.46287806  0.34949230  1
  O  O171  1  0.25179270  0.96179642  0.33510644  1
  O  O172  1  0.75301279  0.11105448  0.34459730  1
  O  O173  1  0.75923186  0.43794549  0.40761269  1
  O  O174  1  0.25224680  0.40207518  0.35592279  1
  O  O175  1  0.48194727  0.54674310  0.45721593  1
  O  O176  1  0.56519908  0.82472148  0.47944864  1
  O  O177  1  0.54290140  0.32247241  0.46370181  1
  O  O178  1  0.44952095  0.02961933  0.46546070  1
  O  O179  1  0.04489970  0.03376026  0.46481663  1
  O  O180  1  0.96344835  0.32301257  0.46408466  1
  O  O181  1  0.98685286  0.83007126  0.47453856  1
  O  O182  1  0.06799635  0.55434747  0.45573502  1
  O  O183  1  0.77368152  0.70800893  0.44632685  1
  O  O184  1  0.27541737  0.64651834  0.49467857  1
  O  O185  1  0.25164198  0.16121689  0.49451887  1
  O  O186  1  0.75541369  0.21516059  0.42851000  1
  O  O187  1  0.25127927  0.72397087  0.42072521  1
  O  O188  1  0.74561059  0.87785055  0.42995452  1
  O  O189  1  0.75165142  0.19524735  0.48775872  1
  O  O190  1  0.25598924  0.15964111  0.43665038  1
  O  O191  1  0.25842085  0.46777575  0.49992179  1
