# generated using pymatgen
data_Li3PO4
_symmetry_space_group_name_H-M   'P 1'
_cell_length_a   6.15119200
_cell_length_b   11.66978300
_cell_length_c   45.02262600
_cell_angle_alpha   90.00000000
_cell_angle_beta   90.00000000
_cell_angle_gamma   90.00000000
_symmetry_Int_Tables_number   1
_chemical_formula_structural   Li3PO4
_chemical_formula_sum   'Li54 P18 O72'
_cell_volume   3231.86257628
_cell_formula_units_Z   18
loop_
 _symmetry_equiv_pos_site_id
 _symmetry_equiv_pos_as_xyz
  1  'x, y, z'
loop_
 _atom_site_type_symbol
 _atom_site_label
 _atom_site_symmetry_multiplicity
 _atom_site_fract_x
 _atom_site_fract_y
 _atom_site_fract_z
 _atom_site_occupancy
  Li  Li0  1  0.50235966  0.99864898  0.09684428  1
  Li  Li1  1  0.53276475  0.21852138  0.06174124  1
  Li  Li2  1  0.99812694  0.22894953  0.06164534  1
  Li  Li3  1  0.75681683  0.63450285  0.07252829  1
  Li  Li4  1  0.00469876  0.99133084  0.09189655  1
  Li  Li5  1  0.96980533  0.79978870  0.02543116  1
  Li  Li6  1  0.63810425  0.86792068  0.06147481  1
  Li  Li7  1  0.27071904  0.01277402  0.04828747  1
  Li  Li8  1  0.25392551  0.43078491  0.08829543  1
  Li  Li9  1  0.49280138  0.61724053  0.12065785  1
  Li  Li10  1  0.50294801  0.81405536  0.19234460  1
  Li  Li11  1  0.50493083  0.38712568  0.15349044  1
  Li  Li12  1  0.50414926  0.04649454  0.16017042  1
  Li  Li13  1  0.00630190  0.04475146  0.15933280  1
  Li  Li14  1  0.99823721  0.38811780  0.15413022  1
  Li  Li15  1  0.99810931  0.81397023  0.19233744  1
  Li  Li16  1  0.00956707  0.61595773  0.12170767  1
  Li  Li17  1  0.74999496  0.61727606  0.16901057  1
  Li  Li18  1  0.25019877  0.81152007  0.14275064  1
  Li  Li19  1  0.25293811  0.24092201  0.18399093  1
  Li  Li20  1  0.75976507  0.19514137  0.12836503  1
  Li  Li21  1  0.50008680  0.43512980  0.22079055  1
  Li  Li22  1  0.50456246  0.63019494  0.29283884  1
  Li  Li23  1  0.50398479  0.20271532  0.25342659  1
  Li  Li24  1  0.50207120  0.86320418  0.26032083  1
  Li  Li25  1  0.00681549  0.86306330  0.25993175  1
  Li  Li26  1  0.00032445  0.20309152  0.25347644  1
  Li  Li27  1  0.99986982  0.63152887  0.29302621  1
  Li  Li28  1  0.00551511  0.43542537  0.22093527  1
  Li  Li29  1  0.75130442  0.43358911  0.26934606  1
  Li  Li30  1  0.25148406  0.63082970  0.24418749  1
  Li  Li31  1  0.25278256  0.05718208  0.28415984  1
  Li  Li32  1  0.75282555  0.00915084  0.22914104  1
  Li  Li33  1  0.49950270  0.25253877  0.32095967  1
  Li  Li34  1  0.50920400  0.44964242  0.39208676  1
  Li  Li35  1  0.50715282  0.02095904  0.35424460  1
  Li  Li36  1  0.49976322  0.67839963  0.35968248  1
  Li  Li37  1  0.00719271  0.67889336  0.35990964  1
  Li  Li38  1  0.00227135  0.01888097  0.35348357  1
  Li  Li39  1  0.98999266  0.44790179  0.39277251  1
  Li  Li40  1  0.00473876  0.25137750  0.32148529  1
  Li  Li41  1  0.74989161  0.25431089  0.37081065  1
  Li  Li42  1  0.25015055  0.44714522  0.34456370  1
  Li  Li43  1  0.25871284  0.87063953  0.38495417  1
  Li  Li44  1  0.75208929  0.82568924  0.32949173  1
  Li  Li45  1  0.50380816  0.07305955  0.42185300  1
  Li  Li46  1  0.46621691  0.26648852  0.48825661  1
  Li  Li47  1  0.49740777  0.83436451  0.45165195  1
  Li  Li48  1  0.24973301  0.43209778  0.44076265  1
  Li  Li49  1  0.02928273  0.84684312  0.45169144  1
  Li  Li50  1  0.00100345  0.06801501  0.41706777  1
  Li  Li51  1  0.76829759  0.05225133  0.46542273  1
  Li  Li52  1  0.13871967  0.19803548  0.45223235  1
  Li  Li53  1  0.75242306  0.63340685  0.42531858  1
  P  P54  1  0.26441167  0.76025629  0.07713992  1
  P  P55  1  0.77407417  0.04768902  0.03413680  1
  P  P56  1  0.75365932  0.41466722  0.09675185  1
  P  P57  1  0.25151857  0.58832298  0.17894061  1
  P  P58  1  0.75171949  0.84256502  0.13339230  1
  P  P59  1  0.75387851  0.23171300  0.19620511  1
  P  P60  1  0.25545365  0.20419234  0.11648309  1
  P  P61  1  0.25113650  0.40416489  0.27882752  1
  P  P62  1  0.75142145  0.66149931  0.23476585  1
  P  P63  1  0.75334915  0.04917992  0.29656590  1
  P  P64  1  0.25268819  0.01689272  0.21689595  1
  P  P65  1  0.25162025  0.22298234  0.38017958  1
  P  P66  1  0.75173602  0.47740329  0.33466928  1
  P  P67  1  0.75511063  0.86133048  0.39697519  1
  P  P68  1  0.25398391  0.83439463  0.31734032  1
  P  P69  1  0.27320507  0.01677782  0.47941151  1
  P  P70  1  0.76287501  0.30466358  0.43652178  1
  P  P71  1  0.25225785  0.65069273  0.41682729  1
  O  O72  1  0.48596136  0.72511014  0.06334814  1
  O  O73  1  0.56959669  0.05243155  0.05658518  1
  O  O74  1  0.54829851  0.49166566  0.09292647  1
  O  O75  1  0.95587604  0.49452182  0.09279448  1
  O  O76  1  0.98543684  0.07113911  0.05371610  1
  O  O77  1  0.06366355  0.72264684  0.05852551  1
  O  O78  1  0.78685796  0.91842448  0.02519230  1
  O  O79  1  0.26541108  0.89530740  0.08015704  1
  O  O80  1  0.75818491  0.31559778  0.07407764  1
  O  O81  1  0.74634092  0.13828997  0.01091605  1
  O  O82  1  0.26207785  0.25986012  0.08474987  1
  O  O83  1  0.45742643  0.54961688  0.16141176  1
  O  O84  1  0.54407850  0.88152092  0.15084635  1
  O  O85  1  0.54627563  0.30758805  0.19280753  1
  O  O86  1  0.46323654  0.12964528  0.12105587  1
  O  O87  1  0.05157769  0.12572283  0.11958935  1
  O  O88  1  0.96081331  0.30827911  0.19321894  1
  O  O89  1  0.95801597  0.88051020  0.15113992  1
  O  O90  1  0.04376183  0.54978679  0.16178171  1
  O  O91  1  0.75086446  0.70957237  0.12987582  1
  O  O92  1  0.25133286  0.72081663  0.18215409  1
  O  O93  1  0.24967220  0.30049376  0.14038029  1
  O  O94  1  0.75654788  0.13729204  0.17185014  1
  O  O95  1  0.24644141  0.70823622  0.10920057  1
  O  O96  1  0.75240356  0.90252363  0.10262254  1
  O  O97  1  0.75450581  0.36244088  0.12884926  1
  O  O98  1  0.25321344  0.07358747  0.18547472  1
  O  O99  1  0.45801979  0.36540880  0.26143653  1
  O  O100  1  0.54464816  0.69995807  0.25219368  1
  O  O101  1  0.54632261  0.12535849  0.29324298  1
  O  O102  1  0.46000636  0.94088247  0.22021397  1
  O  O103  1  0.04563262  0.94069545  0.22011727  1
  O  O104  1  0.96070084  0.12527228  0.29340613  1
  O  O105  1  0.95849647  0.70016048  0.25211960  1
  O  O106  1  0.04439257  0.36571035  0.26141167  1
  O  O107  1  0.75171764  0.52885799  0.23134011  1
  O  O108  1  0.25145207  0.53676545  0.28223876  1
  O  O109  1  0.25213715  0.11105824  0.24135821  1
  O  O110  1  0.75391367  0.95490369  0.27214677  1
  O  O111  1  0.25262595  0.53012873  0.21012264  1
  O  O112  1  0.75080499  0.71927150  0.20347422  1
  O  O113  1  0.75247642  0.17546856  0.22766594  1
  O  O114  1  0.25320202  0.89079348  0.28589877  1
  O  O115  1  0.45755843  0.18535909  0.36231651  1
  O  O116  1  0.54400006  0.51585935  0.35186538  1
  O  O117  1  0.55077833  0.93943659  0.39385418  1
  O  O118  1  0.46061512  0.75767126  0.32040605  1
  O  O119  1  0.04617935  0.75865235  0.32068462  1
  O  O120  1  0.96242359  0.93648038  0.39273358  1
  O  O121  1  0.95776333  0.51608967  0.35217922  1
  O  O122  1  0.04364120  0.18402581  0.36279336  1
  O  O123  1  0.75202180  0.34489416  0.33144693  1
  O  O124  1  0.25018428  0.35601823  0.38373467  1
  O  O125  1  0.25611346  0.92868263  0.34172345  1
  O  O126  1  0.75111546  0.76585399  0.37286315  1
  O  O127  1  0.25108346  0.34631089  0.31008693  1
  O  O128  1  0.75271914  0.53549234  0.30347506  1
  O  O129  1  0.75297348  0.99259909  0.32801332  1
  O  O130  1  0.25413508  0.70347116  0.38479697  1
  O  O131  1  0.48419635  0.99244494  0.45980755  1
  O  O132  1  0.56246203  0.34244001  0.45511756  1
  O  O133  1  0.45486650  0.57114595  0.42078620  1
  O  O134  1  0.04748882  0.57304309  0.42052089  1
  O  O135  1  0.98447217  0.33998185  0.45031175  1
  O  O136  1  0.06817252  0.01248017  0.45705813  1
  O  O137  1  0.76408230  0.16968319  0.43350932  1
  O  O138  1  0.28739133  0.14624014  0.48820807  1
  O  O139  1  0.25498234  0.74916606  0.43964423  1
  O  O140  1  0.25268106  0.16309540  0.41096949  1
  O  O141  1  0.74543392  0.35680775  0.40445772  1
  O  O142  1  0.76052268  0.80447199  0.42857262  1
  O  O143  1  0.24497596  0.92687976  0.50279042  1
