# generated using pymatgen
data_Li3PO4
_symmetry_space_group_name_H-M   'P 1'
_cell_length_a   4.97784600
_cell_length_b   16.20967300
_cell_length_c   48.06382600
_cell_angle_alpha   90.00000000
_cell_angle_beta   90.00000000
_cell_angle_gamma   90.00000000
_symmetry_Int_Tables_number   1
_chemical_formula_structural   Li3PO4
_chemical_formula_sum   'Li72 P24 O96'
_cell_volume   3878.23435586
_cell_formula_units_Z   24
loop_
 _symmetry_equiv_pos_site_id
 _symmetry_equiv_pos_as_xyz
  1  'x, y, z'
loop_
 _atom_site_type_symbol
 _atom_site_label
 _atom_site_symmetry_multiplicity
 _atom_site_fract_x
 _atom_site_fract_y
 _atom_site_fract_z
 _atom_site_occupancy
  Li  Li0  1  0.19886369  0.63667684  0.15146473  1
  Li  Li1  1  0.18731079  0.92378862  0.07141717  1
  Li  Li2  1  0.80000840  0.49784666  0.09577056  1
  Li  Li3  1  0.70012749  0.99774704  0.09588954  1
  Li  Li4  1  0.31315360  0.42367594  0.07147278  1
  Li  Li5  1  0.30113130  0.13666368  0.15148184  1
  Li  Li6  1  0.29578519  0.28053878  0.10941212  1
  Li  Li7  1  0.69907731  0.85348580  0.13817186  1
  Li  Li8  1  0.68805728  0.14643737  0.05759558  1
  Li  Li9  1  0.81197401  0.64658161  0.05757408  1
  Li  Li10  1  0.80083520  0.35347453  0.13818257  1
  Li  Li11  1  0.20416362  0.78059497  0.10937714  1
  Li  Li12  1  0.79485574  0.67045073  0.11581623  1
  Li  Li13  1  0.19821624  0.46465376  0.13269113  1
  Li  Li14  1  0.19293157  0.74669498  0.05214041  1
  Li  Li15  1  0.30726299  0.24656108  0.05224025  1
  Li  Li16  1  0.30168492  0.96465802  0.13271930  1
  Li  Li17  1  0.70527252  0.17040224  0.11583463  1
  Li  Li18  1  0.19791089  0.06167873  0.31902335  1
  Li  Li19  1  0.20081702  0.34955921  0.23514732  1
  Li  Li20  1  0.79927927  0.92269752  0.26426990  1
  Li  Li21  1  0.80026340  0.21103118  0.18012509  1
  Li  Li22  1  0.69972776  0.71100767  0.18011671  1
  Li  Li23  1  0.70072702  0.42270782  0.26426844  1
  Li  Li24  1  0.29920633  0.84955196  0.23515083  1
  Li  Li25  1  0.30207373  0.56168317  0.31902365  1
  Li  Li26  1  0.30011834  0.70698168  0.27700403  1
  Li  Li27  1  0.30192290  0.99395682  0.19293997  1
  Li  Li28  1  0.70004273  0.27798013  0.30620095  1
  Li  Li29  1  0.69736829  0.56592391  0.22229098  1
  Li  Li30  1  0.80276805  0.06589870  0.22233670  1
  Li  Li31  1  0.79942950  0.77793408  0.30621695  1
  Li  Li32  1  0.19784539  0.49402440  0.19285062  1
  Li  Li33  1  0.19986243  0.20698500  0.27700043  1
  Li  Li34  1  0.79617161  0.09665192  0.28298880  1
  Li  Li35  1  0.79646215  0.38365569  0.19922323  1
  Li  Li36  1  0.19867319  0.88926168  0.30027557  1
  Li  Li37  1  0.20128590  0.17709263  0.21617970  1
  Li  Li38  1  0.29874433  0.67709178  0.21618178  1
  Li  Li39  1  0.30125964  0.38926853  0.30027070  1
  Li  Li40  1  0.70397187  0.88347500  0.19923027  1
  Li  Li41  1  0.70382876  0.59664110  0.28298610  1
  Li  Li42  1  0.20187390  0.48568751  0.48760570  1
  Li  Li43  1  0.19819768  0.77293608  0.40315854  1
  Li  Li44  1  0.80283168  0.34684173  0.43205689  1
  Li  Li45  1  0.80230920  0.63525800  0.34823508  1
  Li  Li46  1  0.69767202  0.13526685  0.34822543  1
  Li  Li47  1  0.69733679  0.84683080  0.43205178  1
  Li  Li48  1  0.30190241  0.27297883  0.40315615  1
  Li  Li49  1  0.29796400  0.98569679  0.48758813  1
  Li  Li50  1  0.30133780  0.13108807  0.44505237  1
  Li  Li51  1  0.30130918  0.41886833  0.36101368  1
  Li  Li52  1  0.69999850  0.70256722  0.47401134  1
  Li  Li53  1  0.69877546  0.98948192  0.39029677  1
  Li  Li54  1  0.80105201  0.48944822  0.39030626  1
  Li  Li55  1  0.79995451  0.20257120  0.47400331  1
  Li  Li56  1  0.19867597  0.91886407  0.36101436  1
  Li  Li57  1  0.19854195  0.63109786  0.44507510  1
  Li  Li58  1  0.80271258  0.51942843  0.45079083  1
  Li  Li59  1  0.79823481  0.80759156  0.36696097  1
  Li  Li60  1  0.20690468  0.31312175  0.46748148  1
  Li  Li61  1  0.20209226  0.60021959  0.38399718  1
  Li  Li62  1  0.29787721  0.10023213  0.38398814  1
  Li  Li63  1  0.29311464  0.81312790  0.46747825  1
  Li  Li64  1  0.70174049  0.30759726  0.36695114  1
  Li  Li65  1  0.69729488  0.01943231  0.45078527  1
  Li  Li66  1  0.81376734  0.05942006  0.51202511  1
  Li  Li67  1  0.68622690  0.55942049  0.51202797  1
  Li  Li68  1  0.30905544  0.83681650  0.52588305  1
  Li  Li69  1  0.19093191  0.33682943  0.52588600  1
  Li  Li70  1  0.81095736  0.23618534  0.53131560  1
  Li  Li71  1  0.68903100  0.73618405  0.53131804  1
  P  P72  1  0.69265225  0.53324153  0.15967657  1
  P  P73  1  0.70078962  0.82088182  0.07566282  1
  P  P74  1  0.30411020  0.60149747  0.08798580  1
  P  P75  1  0.19592650  0.10139579  0.08804735  1
  P  P76  1  0.79946879  0.32076220  0.07568840  1
  P  P77  1  0.80722489  0.03325665  0.15974724  1
  P  P78  1  0.69264355  0.95817197  0.32753507  1
  P  P79  1  0.69427179  0.24605382  0.24344245  1
  P  P80  1  0.30592552  0.02664390  0.25575154  1
  P  P81  1  0.30634991  0.31436318  0.17178701  1
  P  P82  1  0.19364837  0.81431961  0.17178407  1
  P  P83  1  0.19409387  0.52665167  0.25573926  1
  P  P84  1  0.80578804  0.74603452  0.24344344  1
  P  P85  1  0.80729931  0.45820906  0.32753633  1
  P  P86  1  0.69747640  0.38160988  0.49539304  1
  P  P87  1  0.69305864  0.66962795  0.41148272  1
  P  P88  1  0.30774571  0.45065217  0.42375335  1
  P  P89  1  0.30606471  0.73858922  0.33973723  1
  P  P90  1  0.19383796  0.23860775  0.33971771  1
  P  P91  1  0.19230146  0.95066504  0.42374330  1
  P  P92  1  0.80684830  0.16966800  0.41145485  1
  P  P93  1  0.80250734  0.88160583  0.49539096  1
  P  P94  1  0.30110090  0.16244115  0.50768662  1
  P  P95  1  0.19885482  0.66243069  0.50769694  1
  O  O96  1  0.79584828  0.62265629  0.15414877  1
  O  O97  1  0.81058246  0.90929291  0.07173186  1
  O  O98  1  0.20138203  0.51226612  0.09405106  1
  O  O99  1  0.29865846  0.01218070  0.09412355  1
  O  O100  1  0.68971530  0.40915975  0.07172918  1
  O  O101  1  0.70405379  0.12265760  0.15419519  1
  O  O102  1  0.71094400  0.28821179  0.10507769  1
  O  O103  1  0.29586256  0.84403198  0.14274341  1
  O  O104  1  0.30381400  0.13121855  0.05951787  1
  O  O105  1  0.19638428  0.63133218  0.05945515  1
  O  O106  1  0.20413469  0.34406160  0.14274396  1
  O  O107  1  0.78906570  0.78831136  0.10506054  1
  O  O108  1  0.20480466  0.66032479  0.11151303  1
  O  O109  1  0.79600767  0.47452445  0.13645360  1
  O  O110  1  0.80813020  0.76217049  0.05275510  1
  O  O111  1  0.69224415  0.26202329  0.05278132  1
  O  O112  1  0.70386000  0.97452676  0.13652444  1
  O  O113  1  0.29523815  0.16026808  0.11155619  1
  O  O114  1  0.37905933  0.53366238  0.15984739  1
  O  O115  1  0.38428242  0.82268512  0.07472687  1
  O  O116  1  0.61813950  0.60101639  0.08763200  1
  O  O117  1  0.88194529  0.10092830  0.08767208  1
  O  O118  1  0.11595567  0.32256568  0.07477369  1
  O  O119  1  0.12081068  0.03365529  0.15992089  1
  O  O120  1  0.79586934  0.04748031  0.32184351  1
  O  O121  1  0.79695574  0.33543603  0.23780102  1
  O  O122  1  0.20242762  0.93731472  0.26146543  1
  O  O123  1  0.20324640  0.22499639  0.17741110  1
  O  O124  1  0.29667438  0.72494251  0.17740549  1
  O  O125  1  0.29759983  0.43732473  0.26146168  1
  O  O126  1  0.70306179  0.83541984  0.23780635  1
  O  O127  1  0.70403743  0.54752493  0.32185058  1
  O  O128  1  0.70247082  0.71656746  0.27245952  1
  O  O129  1  0.70431838  0.00357873  0.18873417  1
  O  O130  1  0.29709138  0.26839818  0.31073814  1
  O  O131  1  0.29632185  0.55610471  0.22668601  1
  O  O132  1  0.20364478  0.05609698  0.22670393  1
  O  O133  1  0.20289868  0.76837101  0.31075520  1
  O  O134  1  0.79550564  0.50356527  0.18866786  1
  O  O135  1  0.79753981  0.21658250  0.27245943  1
  O  O136  1  0.20228129  0.08582052  0.27886787  1
  O  O137  1  0.20210721  0.37323005  0.19493291  1
  O  O138  1  0.79586393  0.89903487  0.30438069  1
  O  O139  1  0.79787097  0.18701372  0.22030088  1
  O  O140  1  0.70221360  0.68701641  0.22029730  1
  O  O141  1  0.70402031  0.39908949  0.30437890  1
  O  O142  1  0.29783251  0.87316535  0.19494168  1
  O  O143  1  0.29774050  0.58582363  0.27885944  1
  O  O144  1  0.37900159  0.95856178  0.32770599  1
  O  O145  1  0.38068401  0.24625992  0.24362585  1
  O  O146  1  0.61955993  0.02621427  0.25563789  1
  O  O147  1  0.61986759  0.31405362  0.17168398  1
  O  O148  1  0.88008842  0.81401423  0.17167257  1
  O  O149  1  0.88042654  0.52622602  0.25562914  1
  O  O150  1  0.11936572  0.74625242  0.24362996  1
  O  O151  1  0.12095186  0.45859113  0.32770346  1
  O  O152  1  0.79985295  0.47090063  0.48935626  1
  O  O153  1  0.79633627  0.75895757  0.40582695  1
  O  O154  1  0.20450742  0.36120594  0.42928177  1
  O  O155  1  0.20304387  0.64921036  0.34537314  1
  O  O156  1  0.29679561  0.14922223  0.34535250  1
  O  O157  1  0.29551832  0.86123534  0.42927829  1
  O  O158  1  0.70370740  0.25901420  0.40581141  1
  O  O159  1  0.70007999  0.97088819  0.48935004  1
  O  O160  1  0.70484652  0.14003528  0.44052860  1
  O  O161  1  0.70411408  0.42841685  0.35651602  1
  O  O162  1  0.28724528  0.69524078  0.47832962  1
  O  O163  1  0.29535882  0.98028375  0.39474128  1
  O  O164  1  0.20472057  0.48027323  0.39474816  1
  O  O165  1  0.21275760  0.19524212  0.47831699  1
  O  O166  1  0.79583345  0.92839537  0.35651316  1
  O  O167  1  0.79503682  0.64003192  0.44055818  1
  O  O168  1  0.20466103  0.50950452  0.44695756  1
  O  O169  1  0.20282842  0.79749695  0.36294977  1
  O  O170  1  0.79630809  0.32278113  0.47184961  1
  O  O171  1  0.79748784  0.61061025  0.38836279  1
  O  O172  1  0.70243698  0.11067360  0.38832684  1
  O  O173  1  0.70369626  0.82277335  0.47184941  1
  O  O174  1  0.29714289  0.29748483  0.36293171  1
  O  O175  1  0.29529651  0.00953020  0.44694143  1
  O  O176  1  0.38342826  0.38218038  0.49580410  1
  O  O177  1  0.37958213  0.66990432  0.41155989  1
  O  O178  1  0.62143748  0.45005396  0.42360040  1
  O  O179  1  0.61973964  0.73813036  0.33955203  1
  O  O180  1  0.88017628  0.23818075  0.33952076  1
  O  O181  1  0.87858682  0.95006550  0.42358166  1
  O  O182  1  0.12036342  0.16991518  0.41153809  1
  O  O183  1  0.11654909  0.88218783  0.49580092  1
  O  O184  1  0.18996688  0.07418920  0.51160272  1
  O  O185  1  0.30999194  0.57418578  0.51161057  1
  O  O186  1  0.69446298  0.85163019  0.52390378  1
  O  O187  1  0.80549853  0.35162700  0.52390381  1
  O  O188  1  0.19436015  0.22112225  0.53063733  1
  O  O189  1  0.30561757  0.72111031  0.53064544  1
  O  O190  1  0.61761675  0.16040749  0.50863212  1
  O  O191  1  0.88241020  0.66040618  0.50864218  1
