# generated using pymatgen
data_Li3PO4
_symmetry_space_group_name_H-M   'P 1'
_cell_length_a   6.15119200
_cell_length_b   11.66978300
_cell_length_c   45.02262600
_cell_angle_alpha   90.00000000
_cell_angle_beta   90.00000000
_cell_angle_gamma   90.00000000
_symmetry_Int_Tables_number   1
_chemical_formula_structural   Li3PO4
_chemical_formula_sum   'Li60 P20 O80'
_cell_volume   3231.86257628
_cell_formula_units_Z   20
loop_
 _symmetry_equiv_pos_site_id
 _symmetry_equiv_pos_as_xyz
  1  'x, y, z'
loop_
 _atom_site_type_symbol
 _atom_site_label
 _atom_site_symmetry_multiplicity
 _atom_site_fract_x
 _atom_site_fract_y
 _atom_site_fract_z
 _atom_site_occupancy
  Li  Li0  1  0.51028485  0.20149132  0.00981969  1
  Li  Li1  1  0.46349741  0.54012180  0.06959297  1
  Li  Li2  1  0.49412702  0.18938469  0.08267693  1
  Li  Li3  1  0.01226726  0.19083780  0.08193260  1
  Li  Li4  1  0.03320445  0.53941868  0.07035214  1
  Li  Li5  1  0.99209447  0.14398376  0.02346340  1
  Li  Li6  1  0.74659009  0.77169279  0.07740743  1
  Li  Li7  1  0.25526521  0.95820699  0.06432267  1
  Li  Li8  1  0.75045599  0.30739534  0.05306001  1
  Li  Li9  1  0.50089829  0.58953432  0.13771434  1
  Li  Li10  1  0.50465388  0.95816909  0.11155941  1
  Li  Li11  1  0.50170351  0.35279875  0.17399982  1
  Li  Li12  1  0.50030366  0.00996705  0.17953436  1
  Li  Li13  1  0.99998600  0.01007918  0.17932775  1
  Li  Li14  1  0.99760882  0.35299230  0.17407978  1
  Li  Li15  1  0.99369875  0.95718754  0.11147666  1
  Li  Li16  1  0.99896130  0.58874205  0.13829537  1
  Li  Li17  1  0.74874232  0.58450794  0.18810027  1
  Li  Li18  1  0.24993517  0.78063315  0.16291450  1
  Li  Li19  1  0.25259051  0.38420825  0.10936713  1
  Li  Li20  1  0.74959694  0.16113923  0.14785494  1
  Li  Li21  1  0.49775163  0.40046845  0.24030806  1
  Li  Li22  1  0.50248628  0.77816310  0.21160251  1
  Li  Li23  1  0.50189236  0.16709446  0.27314560  1
  Li  Li24  1  0.49826596  0.82793287  0.27958351  1
  Li  Li25  1  0.00221647  0.82766313  0.27960995  1
  Li  Li26  1  0.99831040  0.16723208  0.27313375  1
  Li  Li27  1  0.99744216  0.77800816  0.21162164  1
  Li  Li28  1  0.00255168  0.40066014  0.24034064  1
  Li  Li29  1  0.75015920  0.39788018  0.28967646  1
  Li  Li30  1  0.25032384  0.59556110  0.26301234  1
  Li  Li31  1  0.24998096  0.20385133  0.20478687  1
  Li  Li32  1  0.75105616  0.97222200  0.24832555  1
  Li  Li33  1  0.49790519  0.21644335  0.34131391  1
  Li  Li34  1  0.50533403  0.59315889  0.31227871  1
  Li  Li35  1  0.50005874  0.98350376  0.37299324  1
  Li  Li36  1  0.49835286  0.64221195  0.37875472  1
  Li  Li37  1  0.00266119  0.64183176  0.37869334  1
  Li  Li38  1  0.00011732  0.98338642  0.37318716  1
  Li  Li39  1  0.99907330  0.59252280  0.31221984  1
  Li  Li40  1  0.00312401  0.21650597  0.34112541  1
  Li  Li41  1  0.75149694  0.21414137  0.39026183  1
  Li  Li42  1  0.25139777  0.41068206  0.36498043  1
  Li  Li43  1  0.25006865  0.02188116  0.30418945  1
  Li  Li44  1  0.75081937  0.78890432  0.34751285  1
  Li  Li45  1  0.49368704  0.03541729  0.44139988  1
  Li  Li46  1  0.49996988  0.40535192  0.41544067  1
  Li  Li47  1  0.50548347  0.80310918  0.47022881  1
  Li  Li48  1  0.53781190  0.45611922  0.48355560  1
  Li  Li49  1  0.96735409  0.45370775  0.48306223  1
  Li  Li50  1  0.98769001  0.80553485  0.47031457  1
  Li  Li51  1  0.00326898  0.40478613  0.41508735  1
  Li  Li52  1  0.00308158  0.03749410  0.44145533  1
  Li  Li53  1  0.74106395  0.03592625  0.48868897  1
  Li  Li54  1  0.25711132  0.22158177  0.47530025  1
  Li  Li55  1  0.25115248  0.83257053  0.40458448  1
  Li  Li56  1  0.74853618  0.61109091  0.44355850  1
  Li  Li57  1  0.48541450  0.79350807  0.54277059  1
  Li  Li58  1  0.00108372  0.84961471  0.52915103  1
  Li  Li59  1  0.24412289  0.68625669  0.49925350  1
  P  P60  1  0.24619513  0.73373579  0.09695648  1
  P  P61  1  0.73488687  0.00367437  0.05001344  1
  P  P62  1  0.25400498  0.34164966  0.03379839  1
  P  P63  1  0.24978587  0.55331672  0.19717361  1
  P  P64  1  0.74985107  0.80987394  0.15324989  1
  P  P65  1  0.75214406  0.37970204  0.11509582  1
  P  P66  1  0.24926711  0.16321572  0.13765454  1
  P  P67  1  0.25087221  0.36845584  0.29842063  1
  P  P68  1  0.75028486  0.62574838  0.25434065  1
  P  P69  1  0.75032650  0.19724533  0.21600775  1
  P  P70  1  0.25027370  0.98076120  0.23661940  1
  P  P71  1  0.25112313  0.18397726  0.39967442  1
  P  P72  1  0.75107241  0.44102164  0.35571798  1
  P  P73  1  0.75030532  0.01366356  0.31599140  1
  P  P74  1  0.25030898  0.79658646  0.33659829  1
  P  P75  1  0.26309410  0.98979428  0.50264921  1
  P  P76  1  0.75393820  0.26075195  0.45612643  1
  P  P77  1  0.75049847  0.83107731  0.41496424  1
  P  P78  1  0.24775648  0.61461424  0.43772977  1
  P  P79  1  0.74459629  0.65345142  0.51886941  1
  O  O80  1  0.45451677  0.69231538  0.08086243  1
  O  O81  1  0.54380119  0.03467324  0.07206231  1
  O  O82  1  0.45866380  0.28211604  0.04812293  1
  O  O83  1  0.04067810  0.27978981  0.04495016  1
  O  O84  1  0.96407384  0.04055351  0.06439267  1
  O  O85  1  0.03733498  0.69248784  0.08094647  1
  O  O86  1  0.73425493  0.87628111  0.04405121  1
  O  O87  1  0.24531695  0.46637008  0.04606376  1
  O  O88  1  0.75536920  0.27290398  0.09465321  1
  O  O89  1  0.71233547  0.08429834  0.02209356  1
  O  O90  1  0.27843463  0.31728990  0.00059395  1
  O  O91  1  0.45573865  0.51499214  0.17954936  1
  O  O92  1  0.54337902  0.84873194  0.17090227  1
  O  O93  1  0.54510657  0.45399959  0.10858693  1
  O  O94  1  0.45666908  0.08779885  0.14042703  1
  O  O95  1  0.04117937  0.08744109  0.13973744  1
  O  O96  1  0.95960928  0.45432203  0.10912173  1
  O  O97  1  0.95639071  0.84865385  0.17090718  1
  O  O98  1  0.04275697  0.51514768  0.17977230  1
  O  O99  1  0.74945040  0.67702814  0.15070148  1
  O  O100  1  0.24565090  0.86760365  0.09961391  1
  O  O101  1  0.24795037  0.25812657  0.16196656  1
  O  O102  1  0.75075758  0.10471837  0.19117596  1
  O  O103  1  0.24800544  0.68080494  0.12913370  1
  O  O104  1  0.74979430  0.86644266  0.12199316  1
  O  O105  1  0.74964470  0.33597787  0.14775963  1
  O  O106  1  0.25075606  0.22305292  0.10677336  1
  O  O107  1  0.45751200  0.32960240  0.28099850  1
  O  O108  1  0.54358567  0.66454957  0.27173059  1
  O  O109  1  0.54322796  0.27358391  0.21291313  1
  O  O110  1  0.45756686  0.90469780  0.23977104  1
  O  O111  1  0.04348158  0.90435668  0.23982943  1
  O  O112  1  0.95717666  0.27376472  0.21303197  1
  O  O113  1  0.95760173  0.66422683  0.27164295  1
  O  O114  1  0.04360460  0.33002969  0.28106640  1
  O  O115  1  0.74999299  0.49300348  0.25122474  1
  O  O116  1  0.25009206  0.68558263  0.20109657  1
  O  O117  1  0.25011592  0.07504033  0.26106280  1
  O  O118  1  0.75023970  0.91971141  0.29146298  1
  O  O119  1  0.25034998  0.49435186  0.22839055  1
  O  O120  1  0.74996556  0.68290848  0.22300547  1
  O  O121  1  0.75004440  0.13900687  0.24718624  1
  O  O122  1  0.24983292  0.03767552  0.20524048  1
  O  O123  1  0.45782878  0.14494534  0.38210168  1
  O  O124  1  0.54490955  0.47976230  0.37323526  1
  O  O125  1  0.54301839  0.08982814  0.31295130  1
  O  O126  1  0.45745352  0.72030690  0.33967576  1
  O  O127  1  0.04376641  0.71983550  0.33955597  1
  O  O128  1  0.95732488  0.08998818  0.31286159  1
  O  O129  1  0.95787087  0.47922131  0.37316301  1
  O  O130  1  0.04481067  0.14528778  0.38194683  1
  O  O131  1  0.75048630  0.30865346  0.35194064  1
  O  O132  1  0.25165916  0.50116415  0.30148104  1
  O  O133  1  0.24946858  0.88892233  0.36147005  1
  O  O134  1  0.75245294  0.73614430  0.39066380  1
  O  O135  1  0.25086568  0.31139613  0.32976031  1
  O  O136  1  0.75116495  0.49927555  0.32439497  1
  O  O137  1  0.75075706  0.95573794  0.34725744  1
  O  O138  1  0.25041292  0.85512671  0.30546155  1
  O  O139  1  0.45453840  0.95768815  0.48074279  1
  O  O140  1  0.54669923  0.30332196  0.47229332  1
  O  O141  1  0.54322202  0.90646725  0.41212791  1
  O  O142  1  0.45516839  0.54081955  0.44439115  1
  O  O143  1  0.04074527  0.53992550  0.44393143  1
  O  O144  1  0.95890064  0.90666657  0.41300808  1
  O  O145  1  0.96386759  0.30108599  0.47203291  1
  O  O146  1  0.03358841  0.95502956  0.48808714  1
  O  O147  1  0.75165121  0.12690815  0.45345943  1
  O  O148  1  0.25200601  0.31687341  0.40227633  1
  O  O149  1  0.24390545  0.72216179  0.45787875  1
  O  O150  1  0.75682628  0.52739716  0.50764446  1
  O  O151  1  0.24968152  0.12756123  0.43098937  1
  O  O152  1  0.75257351  0.31362590  0.42395228  1
  O  O153  1  0.74827670  0.77146191  0.44587358  1
  O  O154  1  0.25042661  0.65741871  0.40497413  1
  O  O155  1  0.53554861  0.70859462  0.50461548  1
  O  O156  1  0.95426778  0.71578459  0.50677056  1
  O  O157  1  0.26821136  0.11708969  0.50871342  1
  O  O158  1  0.28222688  0.90876529  0.53051997  1
  O  O159  1  0.72467748  0.68254093  0.55191937  1
