# generated using pymatgen
data_Li3PO4
_symmetry_space_group_name_H-M   'P 1'
_cell_length_a   4.97784600
_cell_length_b   6.15119200
_cell_length_c   52.77425300
_cell_angle_alpha   90.00000000
_cell_angle_beta   90.00000000
_cell_angle_gamma   90.00000000
_symmetry_Int_Tables_number   1
_chemical_formula_structural   Li3PO4
_chemical_formula_sum   'Li30 P10 O40'
_cell_volume   1615.93108173
_cell_formula_units_Z   10
loop_
 _symmetry_equiv_pos_site_id
 _symmetry_equiv_pos_as_xyz
  1  'x, y, z'
loop_
 _atom_site_type_symbol
 _atom_site_label
 _atom_site_symmetry_multiplicity
 _atom_site_fract_x
 _atom_site_fract_y
 _atom_site_fract_z
 _atom_site_occupancy
  Li  Li0  1  0.80401044  0.49847154  0.14213335  1
  Li  Li1  1  0.30373394  0.50047297  0.10736168  1
  Li  Li2  1  0.67643252  0.49022335  0.04536267  1
  Li  Li3  1  0.67643312  0.00978074  0.04536199  1
  Li  Li4  1  0.30357534  0.99939741  0.10733505  1
  Li  Li5  1  0.80400635  0.00153554  0.14213363  1
  Li  Li6  1  0.20547808  0.75000455  0.15962828  1
  Li  Li7  1  0.79983229  0.25000304  0.18981671  1
  Li  Li8  1  0.70939059  0.24999401  0.09015995  1
  Li  Li9  1  0.27262314  0.74999747  0.05825600  1
  Li  Li10  1  0.80046297  0.49818956  0.34277221  1
  Li  Li11  1  0.19773205  0.50209272  0.20768096  1
  Li  Li12  1  0.29932793  0.50104844  0.30818461  1
  Li  Li13  1  0.69716927  0.49852986  0.24220016  1
  Li  Li14  1  0.69716816  0.00147873  0.24220007  1
  Li  Li15  1  0.29932601  0.99895902  0.30818524  1
  Li  Li16  1  0.19773032  0.99791035  0.20768059  1
  Li  Li17  1  0.80045778  0.00183450  0.34277264  1
  Li  Li18  1  0.19903618  0.75001797  0.36074947  1
  Li  Li19  1  0.79490194  0.25000771  0.39058789  1
  Li  Li20  1  0.70172814  0.25000215  0.29006712  1
  Li  Li21  1  0.29625424  0.75000334  0.26031483  1
  Li  Li22  1  0.19678087  0.50180843  0.40841880  1
  Li  Li23  1  0.32283356  0.50972427  0.50499447  1
  Li  Li24  1  0.69899423  0.49916000  0.44305121  1
  Li  Li25  1  0.69899094  0.00084536  0.44305192  1
  Li  Li26  1  0.32277959  0.99045851  0.50499841  1
  Li  Li27  1  0.19676625  0.99818053  0.40841141  1
  Li  Li28  1  0.72489460  0.24973142  0.49194179  1
  Li  Li29  1  0.29726083  0.74998002  0.46024373  1
  P  P30  1  0.30812788  0.24999603  0.15706841  1
  P  P31  1  0.69404320  0.75000366  0.19256980  1
  P  P32  1  0.81104655  0.74998193  0.09246307  1
  P  P33  1  0.19441032  0.24998490  0.05666335  1
  P  P34  1  0.30542230  0.25003246  0.35786688  1
  P  P35  1  0.69227289  0.75001784  0.39332389  1
  P  P36  1  0.80518437  0.74999846  0.29303216  1
  P  P37  1  0.19252414  0.25000939  0.25731525  1
  P  P38  1  0.80596911  0.74995679  0.49368308  1
  P  P39  1  0.19150353  0.25002168  0.45791463  1
  O  O40  1  0.20519416  0.45708371  0.14303931  1
  O  O41  1  0.70558162  0.54297654  0.10628666  1
  O  O42  1  0.29790920  0.45860637  0.04343719  1
  O  O43  1  0.29794788  0.04137615  0.04343614  1
  O  O44  1  0.70554851  0.95698155  0.10628754  1
  O  O45  1  0.20518663  0.04291573  0.14303900  1
  O  O46  1  0.79857963  0.74999805  0.16479714  1
  O  O47  1  0.20431534  0.25001015  0.18485805  1
  O  O48  1  0.29036979  0.24998530  0.08499823  1
  O  O49  1  0.71249960  0.74998671  0.06436495  1
  O  O50  1  0.62180227  0.25001019  0.15688365  1
  O  O51  1  0.38063938  0.74999180  0.19268869  1
  O  O52  1  0.12362848  0.74996696  0.09282560  1
  O  O53  1  0.87796065  0.25000092  0.05636542  1
  O  O54  1  0.20256040  0.45708186  0.34381032  1
  O  O55  1  0.79683533  0.54301141  0.20664515  1
  O  O56  1  0.70251420  0.54283594  0.30709168  1
  O  O57  1  0.29568456  0.45708263  0.24327399  1
  O  O58  1  0.29568582  0.04294042  0.24327350  1
  O  O59  1  0.70252285  0.95716284  0.30709183  1
  O  O60  1  0.79680032  0.95700951  0.20664455  1
  O  O61  1  0.20260723  0.04298900  0.34380553  1
  O  O62  1  0.79560808  0.75001250  0.36551597  1
  O  O63  1  0.20175430  0.25002035  0.38566051  1
  O  O64  1  0.29589837  0.25000167  0.28513133  1
  O  O65  1  0.70148091  0.75000483  0.26522805  1
  O  O66  1  0.61889505  0.25002699  0.35772042  1
  O  O67  1  0.37868165  0.75001014  0.39357068  1
  O  O68  1  0.11874601  0.74999785  0.29320065  1
  O  O69  1  0.87894471  0.25000919  0.25712988  1
  O  O70  1  0.79547251  0.54296551  0.40733819  1
  O  O71  1  0.70221715  0.54132502  0.50688465  1
  O  O72  1  0.29722229  0.45693626  0.44410471  1
  O  O73  1  0.29731438  0.04313472  0.44410317  1
  O  O74  1  0.70210385  0.95855385  0.50688963  1
  O  O75  1  0.79548284  0.95706562  0.40733961  1
  O  O76  1  0.28990902  0.25003947  0.48601632  1
  O  O77  1  0.70995584  0.74998213  0.46535436  1
  O  O78  1  0.12240771  0.75007107  0.49392661  1
  O  O79  1  0.87891553  0.24999246  0.45752879  1
