# generated using pymatgen
data_Li3PO4
_symmetry_space_group_name_H-M   'P 1'
_cell_length_a   6.15119200
_cell_length_b   14.50933100
_cell_length_c   43.45376800
_cell_angle_alpha   90.00000000
_cell_angle_beta   90.00000000
_cell_angle_gamma   90.00000000
_symmetry_Int_Tables_number   1
_chemical_formula_structural   Li3PO4
_chemical_formula_sum   'Li72 P24 O96'
_cell_volume   3878.23492236
_cell_formula_units_Z   24
loop_
 _symmetry_equiv_pos_site_id
 _symmetry_equiv_pos_as_xyz
  1  'x, y, z'
loop_
 _atom_site_type_symbol
 _atom_site_label
 _atom_site_symmetry_multiplicity
 _atom_site_fract_x
 _atom_site_fract_y
 _atom_site_fract_z
 _atom_site_occupancy
  Li  Li0  1  0.97606668  0.24115378  0.04018280  1
  Li  Li1  1  0.69628740  0.53545926  0.06982358  1
  Li  Li2  1  0.01428766  0.02925640  0.05114442  1
  Li  Li3  1  0.98544787  0.71938992  0.03832642  1
  Li  Li4  1  0.28314270  0.86631612  0.08023850  1
  Li  Li5  1  0.24248248  0.39072396  0.06985672  1
  Li  Li6  1  0.48778295  0.49676426  0.12070297  1
  Li  Li7  1  0.51717884  0.81521249  0.12440481  1
  Li  Li8  1  0.49665428  0.29001550  0.13290523  1
  Li  Li9  1  0.50714149  0.02693677  0.10845998  1
  Li  Li10  1  0.00694607  0.03107272  0.11085224  1
  Li  Li11  1  0.99177528  0.29005980  0.13349950  1
  Li  Li12  1  0.01272162  0.81362300  0.12286265  1
  Li  Li13  1  0.00377230  0.49950075  0.11968758  1
  Li  Li14  1  0.73650384  0.70664373  0.08433113  1
  Li  Li15  1  0.25151615  0.62537826  0.15917007  1
  Li  Li16  1  0.25124299  0.14882004  0.15089293  1
  Li  Li17  1  0.73310254  0.17173764  0.09023990  1
  Li  Li18  1  0.49829225  0.26325004  0.20276717  1
  Li  Li19  1  0.50303931  0.57872258  0.20732088  1
  Li  Li20  1  0.50241951  0.05419254  0.21546380  1
  Li  Li21  1  0.49912573  0.78729458  0.19427912  1
  Li  Li22  1  0.00348989  0.78712304  0.19400191  1
  Li  Li23  1  0.99760085  0.05429227  0.21545489  1
  Li  Li24  1  0.99790552  0.57822205  0.20751226  1
  Li  Li25  1  0.00300785  0.26269417  0.20362151  1
  Li  Li26  1  0.74932727  0.45182561  0.16788333  1
  Li  Li27  1  0.25039916  0.39064127  0.24275521  1
  Li  Li28  1  0.25012059  0.91331306  0.23399605  1
  Li  Li29  1  0.75317569  0.92846644  0.17547402  1
  Li  Li30  1  0.49878634  0.02649247  0.28615930  1
  Li  Li31  1  0.50272782  0.34217001  0.29083650  1
  Li  Li32  1  0.50226095  0.81738339  0.29926678  1
  Li  Li33  1  0.49894131  0.55153460  0.27798822  1
  Li  Li34  1  0.00457190  0.55183289  0.27793519  1
  Li  Li35  1  0.99829254  0.81731221  0.29940567  1
  Li  Li36  1  0.99894395  0.34282998  0.29072772  1
  Li  Li37  1  0.00249726  0.02657822  0.28613887  1
  Li  Li38  1  0.74987323  0.21566209  0.25109513  1
  Li  Li39  1  0.25023194  0.15424424  0.32575503  1
  Li  Li40  1  0.25186150  0.67653998  0.31799911  1
  Li  Li41  1  0.75047903  0.69337405  0.25948494  1
  Li  Li42  1  0.49947687  0.79083660  0.36971404  1
  Li  Li43  1  0.50322092  0.10618724  0.37374474  1
  Li  Li44  1  0.50518111  0.58274387  0.38357998  1
  Li  Li45  1  0.50013854  0.31490282  0.36153699  1
  Li  Li46  1  0.00460544  0.31529913  0.36163211  1
  Li  Li47  1  0.00153106  0.58190657  0.38279597  1
  Li  Li48  1  0.99961223  0.10639960  0.37397441  1
  Li  Li49  1  0.00560368  0.79045773  0.37002213  1
  Li  Li50  1  0.75148875  0.97889640  0.33419931  1
  Li  Li51  1  0.25173847  0.91778828  0.40953394  1
  Li  Li52  1  0.25376217  0.44079552  0.40192179  1
  Li  Li53  1  0.75074472  0.45668869  0.34317063  1
  Li  Li54  1  0.51450657  0.55647051  0.45437509  1
  Li  Li55  1  0.50405063  0.87030376  0.45779662  1
  Li  Li56  1  0.50959084  0.33930458  0.46582205  1
  Li  Li57  1  0.49561928  0.07909784  0.44352703  1
  Li  Li58  1  0.99929282  0.07920355  0.44383526  1
  Li  Li59  1  0.01070263  0.34323927  0.46847153  1
  Li  Li60  1  0.98700743  0.87316468  0.45654725  1
  Li  Li61  1  0.01953400  0.55453231  0.45312005  1
  Li  Li62  1  0.75284248  0.74438710  0.41814172  1
  Li  Li63  1  0.23935364  0.66368268  0.49343680  1
  Li  Li64  1  0.23553787  0.19803873  0.48615793  1
  Li  Li65  1  0.75563006  0.22070885  0.42639763  1
  Li  Li66  1  0.51663769  0.34073950  0.52544087  1
  Li  Li67  1  0.48654630  0.64882671  0.53925747  1
  Li  Li68  1  0.47804278  0.13101769  0.53630479  1
  Li  Li69  1  0.19481732  0.83511672  0.50702750  1
  Li  Li70  1  0.78617542  0.50382541  0.49723121  1
  Li  Li71  1  0.74320052  0.98085845  0.50738393  1
  P  P72  1  0.77574794  0.89802917  0.06522464  1
  P  P73  1  0.74217202  0.36571574  0.07891105  1
  P  P74  1  0.24978589  0.19008588  0.08139068  1
  P  P75  1  0.27028631  0.65223922  0.08973559  1
  P  P76  1  0.75373224  0.65818028  0.15230934  1
  P  P77  1  0.75087458  0.13113984  0.16196426  1
  P  P78  1  0.25306658  0.94627393  0.16394650  1
  P  P79  1  0.24903229  0.42012992  0.17483463  1
  P  P80  1  0.75003765  0.42209544  0.23627483  1
  P  P81  1  0.75086426  0.89513201  0.24517221  1
  P  P82  1  0.25061150  0.71033949  0.24817431  1
  P  P83  1  0.25043502  0.18326209  0.25761786  1
  P  P84  1  0.75090982  0.18586554  0.31935049  1
  P  P85  1  0.75150356  0.65881471  0.32915960  1
  P  P86  1  0.25223549  0.47401597  0.33204309  1
  P  P87  1  0.25103279  0.94738388  0.34091280  1
  P  P88  1  0.75082066  0.94910895  0.40223095  1
  P  P89  1  0.75535702  0.42351119  0.41319377  1
  P  P90  1  0.25364145  0.23841781  0.41499389  1
  P  P91  1  0.25456498  0.71160456  0.42520716  1
  P  P92  1  0.77056664  0.71736097  0.48765699  1
  P  P93  1  0.75326836  0.18017877  0.49551059  1
  P  P94  1  0.24353905  0.00469707  0.49807236  1
  P  P95  1  0.27715922  0.47134377  0.51192273  1
  O  O96  1  0.49041608  0.63430690  0.07327673  1
  O  O97  1  0.53390402  0.42863758  0.08180861  1
  O  O98  1  0.44534649  0.12456080  0.07937434  1
  O  O99  1  0.03214874  0.13267669  0.07537512  1
  O  O100  1  0.93771754  0.43549073  0.08150939  1
  O  O101  1  0.07137813  0.64167701  0.06792003  1
  O  O102  1  0.79014405  0.79726203  0.05363963  1
  O  O103  1  0.74863250  0.31257218  0.04872390  1
  O  O104  1  0.76852929  0.96812505  0.03915102  1
  O  O105  1  0.24602933  0.26683588  0.05682348  1
  O  O106  1  0.45613437  0.40727581  0.15459658  1
  O  O107  1  0.57725535  0.90551705  0.08797509  1
  O  O108  1  0.54304353  0.19192309  0.16529919  1
  O  O109  1  0.45978876  0.88438113  0.16128858  1
  O  O110  1  0.04639946  0.88441646  0.16051318  1
  O  O111  1  0.95746680  0.19216703  0.16604372  1
  O  O112  1  0.99364997  0.91910263  0.08442770  1
  O  O113  1  0.04235506  0.40820927  0.15449668  1
  O  O114  1  0.74891327  0.56097229  0.13725235  1
  O  O115  1  0.26941878  0.75352244  0.10307406  1
  O  O116  1  0.23911813  0.23292771  0.11437529  1
  O  O117  1  0.75440229  0.08423813  0.12981587  1
  O  O118  1  0.24731470  0.58290267  0.11709721  1
  O  O119  1  0.76209824  0.73447681  0.12689027  1
  O  O120  1  0.74536838  0.29752138  0.10687165  1
  O  O121  1  0.25630147  0.01894591  0.13749183  1
  O  O122  1  0.45690026  0.17063462  0.23720190  1
  O  O123  1  0.54532522  0.67164805  0.17227791  1
  O  O124  1  0.54346608  0.95639010  0.24813063  1
  O  O125  1  0.45805098  0.64915355  0.24507463  1
  O  O126  1  0.04365816  0.64895159  0.24512197  1
  O  O127  1  0.95763265  0.95670573  0.24821320  1
  O  O128  1  0.95889781  0.66904082  0.17303371  1
  O  O129  1  0.04297793  0.17029066  0.23741705  1
  O  O130  1  0.74993964  0.32412934  0.22181059  1
  O  O131  1  0.25088629  0.51813110  0.18933652  1
  O  O132  1  0.24985770  0.99515018  0.19576667  1
  O  O133  1  0.75189850  0.84584950  0.21336964  1
  O  O134  1  0.24911452  0.34569833  0.20072110  1
  O  O135  1  0.74987741  0.49630462  0.21025275  1
  O  O136  1  0.74950418  0.05624967  0.18783027  1
  O  O137  1  0.25060567  0.78373890  0.22188992  1
  O  O138  1  0.45785432  0.93444935  0.32057164  1
  O  O139  1  0.54322360  0.43492747  0.25660618  1
  O  O140  1  0.54438194  0.72024246  0.33209325  1
  O  O141  1  0.45888535  0.41246101  0.32882550  1
  O  O142  1  0.04462371  0.41295412  0.32897013  1
  O  O143  1  0.95877762  0.72006939  0.33230357  1
  O  O144  1  0.95716009  0.43503209  0.25655967  1
  O  O145  1  0.04408678  0.93428208  0.32060365  1
  O  O146  1  0.75105881  0.08792266  0.30480450  1
  O  O147  1  0.25034202  0.28121615  0.27216966  1
  O  O148  1  0.25052996  0.75902262  0.28005103  1
  O  O149  1  0.75182161  0.61003664  0.29731028  1
  O  O150  1  0.25100692  0.10885150  0.28354968  1
  O  O151  1  0.75110457  0.26022109  0.29338709  1
  O  O152  1  0.75073172  0.82208109  0.27155697  1
  O  O153  1  0.25185518  0.54757790  0.30579849  1
  O  O154  1  0.45982259  0.70086585  0.40446097  1
  O  O155  1  0.54362589  0.19867425  0.33957768  1
  O  O156  1  0.54818899  0.48502640  0.41681512  1
  O  O157  1  0.46063714  0.17759044  0.41108728  1
  O  O158  1  0.04613916  0.17747706  0.41162628  1
  O  O159  1  0.96174727  0.48555341  0.41597827  1
  O  O160  1  0.95758877  0.19875914  0.33971955  1
  O  O161  1  0.04661449  0.69770135  0.40517404  1
  O  O162  1  0.75273649  0.85108026  0.38775580  1
  O  O163  1  0.25060861  0.04543531  0.35531435  1
  O  O164  1  0.25383538  0.52294254  0.36391712  1
  O  O165  1  0.75205809  0.37500293  0.38131580  1
  O  O166  1  0.25157996  0.87331587  0.36698920  1
  O  O167  1  0.75038426  0.02359387  0.37636489  1
  O  O168  1  0.75121665  0.58565160  0.35551095  1
  O  O169  1  0.25207501  0.31326133  0.38912899  1
  O  O170  1  0.49532234  0.45103353  0.49266821  1
  O  O171  1  0.54442043  0.96090815  0.42266483  1
  O  O172  1  0.53512131  0.23746128  0.50122330  1
  O  O173  1  0.43827623  0.93444372  0.49572087  1
  O  O174  1  0.03437493  0.94220470  0.49533795  1
  O  O175  1  0.94867952  0.24570755  0.49740082  1
  O  O176  1  0.95781845  0.96198558  0.42247374  1
  O  O177  1  0.07880658  0.46391314  0.48916076  1
  O  O178  1  0.77133514  0.61614631  0.47426146  1
  O  O179  1  0.24884314  0.80888628  0.44020382  1
  O  O180  1  0.25655830  0.28569639  0.44709547  1
  O  O181  1  0.74307578  0.13628715  0.46267254  1
  O  O182  1  0.26362118  0.63555549  0.45070188  1
  O  O183  1  0.74662756  0.78674357  0.46030833  1
  O  O184  1  0.75963355  0.35046984  0.43953348  1
  O  O185  1  0.24791618  0.07200668  0.46987086  1
  O  O186  1  0.57131377  0.72693194  0.50949431  1
  O  O187  1  0.99054488  0.73588318  0.50410021  1
  O  O188  1  0.28961819  0.57188626  0.52376290  1
  O  O189  1  0.25101050  0.05881623  0.52803861  1
  O  O190  1  0.27099678  0.40078778  0.53786058  1
  O  O191  1  0.74905245  0.10426350  0.52034832  1
