# generated using pymatgen
data_Li3PO4
_symmetry_space_group_name_H-M   'P 1'
_cell_length_a   7.91303400
_cell_length_b   11.66978227
_cell_length_c   43.59685200
_cell_angle_alpha   90.00000000
_cell_angle_beta   90.00000000
_cell_angle_gamma   74.43479159
_symmetry_Int_Tables_number   1
_chemical_formula_structural   Li3PO4
_chemical_formula_sum   'Li66 P22 O88'
_cell_volume   3878.23441823
_cell_formula_units_Z   22
loop_
 _symmetry_equiv_pos_site_id
 _symmetry_equiv_pos_as_xyz
  1  'x, y, z'
loop_
 _atom_site_type_symbol
 _atom_site_label
 _atom_site_symmetry_multiplicity
 _atom_site_fract_x
 _atom_site_fract_y
 _atom_site_fract_z
 _atom_site_occupancy
  Li  Li0  1  0.21020586  0.71337706  0.07605205  1
  Li  Li1  1  0.35544631  0.28363458  0.03588719  1
  Li  Li2  1  0.72589077  0.27781427  0.06282805  1
  Li  Li3  1  0.74264258  0.58254153  0.05789170  1
  Li  Li4  1  0.96462389  0.97989244  0.07474585  1
  Li  Li5  1  0.12227724  0.52565353  0.03306153  1
  Li  Li6  1  0.84865721  0.61819774  0.15382507  1
  Li  Li7  1  0.95201537  0.97288505  0.13252879  1
  Li  Li8  1  0.07839838  0.51883705  0.09932779  1
  Li  Li9  1  0.07012325  0.18808874  0.10149583  1
  Li  Li10  1  0.38222487  0.12641131  0.14678138  1
  Li  Li11  1  0.40522269  0.46437640  0.14170109  1
  Li  Li12  1  0.59592587  0.01259199  0.09811146  1
  Li  Li13  1  0.52286820  0.67650971  0.11207025  1
  Li  Li14  1  0.19078620  0.73517036  0.13474423  1
  Li  Li15  1  0.60535983  0.85178808  0.15395329  1
  Li  Li16  1  0.81096444  0.42547608  0.10335461  1
  Li  Li17  1  0.33509661  0.28376470  0.10023745  1
  Li  Li18  1  0.49803447  0.49620110  0.23861114  1
  Li  Li19  1  0.59843026  0.85714397  0.21602508  1
  Li  Li20  1  0.73404561  0.40298794  0.18227660  1
  Li  Li21  1  0.70937712  0.06911116  0.18803854  1
  Li  Li22  1  0.03752200  0.00854257  0.23041922  1
  Li  Li23  1  0.05939103  0.34444133  0.22398418  1
  Li  Li24  1  0.27272213  0.91744689  0.17306722  1
  Li  Li25  1  0.17400711  0.55575322  0.19726746  1
  Li  Li26  1  0.84045756  0.61621781  0.21698921  1
  Li  Li27  1  0.25499145  0.73662028  0.23763038  1
  Li  Li28  1  0.46133361  0.30687272  0.18736960  1
  Li  Li29  1  0.98178433  0.16320161  0.18279813  1
  Li  Li30  1  0.14762366  0.37770767  0.32247788  1
  Li  Li31  1  0.24942968  0.73861724  0.29977682  1
  Li  Li32  1  0.38696786  0.28430314  0.26636899  1
  Li  Li33  1  0.35963492  0.95026806  0.27216632  1
  Li  Li34  1  0.68814847  0.88959778  0.31454213  1
  Li  Li35  1  0.70944976  0.22623608  0.30798415  1
  Li  Li36  1  0.92108947  0.79663017  0.25773716  1
  Li  Li37  1  0.82550257  0.43749668  0.28073686  1
  Li  Li38  1  0.49041558  0.49799263  0.30096877  1
  Li  Li39  1  0.90512072  0.61748670  0.32156662  1
  Li  Li40  1  0.11306381  0.18890003  0.27126079  1
  Li  Li41  1  0.63296077  0.04509788  0.26698816  1
  Li  Li42  1  0.79487051  0.26216961  0.40573248  1
  Li  Li43  1  0.89528780  0.61673182  0.38424698  1
  Li  Li44  1  0.03733126  0.16596800  0.35030534  1
  Li  Li45  1  0.01129283  0.83177395  0.35601620  1
  Li  Li46  1  0.33981852  0.77046664  0.39696855  1
  Li  Li47  1  0.36339546  0.10807021  0.39161939  1
  Li  Li48  1  0.57167674  0.67876547  0.34128778  1
  Li  Li49  1  0.47207387  0.31751153  0.36553378  1
  Li  Li50  1  0.14064875  0.38330405  0.38463893  1
  Li  Li51  1  0.55406029  0.49949895  0.40369912  1
  Li  Li52  1  0.76374829  0.07130622  0.35565446  1
  Li  Li53  1  0.28468443  0.92788211  0.35093858  1
  Li  Li54  1  0.53721158  0.51867121  0.46266197  1
  Li  Li55  1  0.67572515  0.04590991  0.43727939  1
  Li  Li56  1  0.66724649  0.71427408  0.43946243  1
  Li  Li57  1  0.00184172  0.65366101  0.48025510  1
  Li  Li58  1  0.02209131  0.95484473  0.47577947  1
  Li  Li59  1  0.22190926  0.55787937  0.42653645  1
  Li  Li60  1  0.15090682  0.22184186  0.44020111  1
  Li  Li61  1  0.78305455  0.25409555  0.46328833  1
  Li  Li62  1  0.41103564  0.95032081  0.43819737  1
  Li  Li63  1  0.93576536  0.80909532  0.43468837  1
  Li  Li64  1  0.39115291  0.95037256  0.50313299  1
  Li  Li65  1  0.62333648  0.70877290  0.50561460  1
  P  P66  1  0.42938942  0.48109641  0.07281241  1
  P  P67  1  0.04191548  0.33454302  0.04662591  1
  P  P68  1  0.84060624  0.76471707  0.09689275  1
  P  P69  1  0.31366428  0.93844651  0.10317881  1
  P  P70  1  0.09359739  0.36581413  0.15555789  1
  P  P71  1  0.69929414  0.22084465  0.13108295  1
  P  P72  1  0.48553897  0.65110396  0.18269859  1
  P  P73  1  0.96108190  0.82127049  0.18833498  1
  P  P74  1  0.74687515  0.24798650  0.23923570  1
  P  P75  1  0.34854040  0.10489521  0.21518956  1
  P  P76  1  0.13454922  0.53241571  0.26658169  1
  P  P77  1  0.61160479  0.70204035  0.27187244  1
  P  P78  1  0.39761229  0.12984568  0.32330323  1
  P  P79  1  0.99938234  0.98654141  0.29920428  1
  P  P80  1  0.78433698  0.41331099  0.35005932  1
  P  P81  1  0.25949849  0.58365341  0.35575504  1
  P  P82  1  0.04650982  0.01374041  0.40737503  1
  P  P83  1  0.65162703  0.86872209  0.38293341  1
  P  P84  1  0.43264188  0.29568638  0.43522225  1
  P  P85  1  0.90527912  0.47020164  0.44139020  1
  P  P86  1  0.70401194  0.89974139  0.49182878  1
  P  P87  1  0.31739999  0.75268969  0.46580039  1
  O  O88  1  0.29984193  0.57626715  0.05302133  1
  O  O89  1  0.18676282  0.25622063  0.06809852  1
  O  O90  1  0.90767186  0.26854556  0.03784375  1
  O  O91  1  0.79006906  0.72668171  0.06551270  1
  O  O92  1  0.95358619  0.45590628  0.06459488  1
  O  O93  1  0.50103905  0.36459018  0.05455212  1
  O  O94  1  0.41735776  0.97426786  0.07740826  1
  O  O95  1  0.14106852  0.37237486  0.01924511  1
  O  O96  1  0.03435599  0.69405170  0.10442966  1
  O  O97  1  0.11576675  0.01410156  0.10256630  1
  O  O98  1  0.96843701  0.46311293  0.13528577  1
  O  O99  1  0.82217487  0.12287538  0.15127138  1
  O  O100  1  0.55526647  0.16906396  0.11644311  1
  O  O101  1  0.58256862  0.53137565  0.08448917  1
  O  O102  1  0.39224540  0.96194813  0.13527176  1
  O  O103  1  0.41275490  0.62655172  0.15084186  1
  O  O104  1  0.31341270  0.80438151  0.10163181  1
  O  O105  1  0.82887733  0.90249005  0.09772880  1
  O  O106  1  0.61205924  0.33090055  0.15124715  1
  O  O107  1  0.18081847  0.25573771  0.13557175  1
  O  O108  1  0.72208479  0.73702601  0.12327327  1
  O  O109  1  0.07151344  0.85980765  0.16261156  1
  O  O110  1  0.32767787  0.45294801  0.10128872  1
  O  O111  1  0.80806121  0.25765770  0.10473064  1
  O  O112  1  0.68069271  0.57684565  0.18545529  1
  O  O113  1  0.76597545  0.89539153  0.18511282  1
  O  O114  1  0.62280936  0.34608128  0.21914288  1
  O  O115  1  0.47171376  0.00677562  0.23534859  1
  O  O116  1  0.20289114  0.05494654  0.20057951  1
  O  O117  1  0.23786885  0.41701308  0.17032815  1
  O  O118  1  0.03336457  0.84558140  0.22025092  1
  O  O119  1  0.06032173  0.50777043  0.23481581  1
  O  O120  1  0.97314676  0.68659932  0.18501479  1
  O  O121  1  0.47336092  0.78585878  0.18576851  1
  O  O122  1  0.26329596  0.21502993  0.23540242  1
  O  O123  1  0.83215605  0.13789484  0.21898838  1
  O  O124  1  0.37536572  0.61308333  0.20861910  1
  O  O125  1  0.72117500  0.73964542  0.24582790  1
  O  O126  1  0.98450576  0.32927360  0.18183145  1
  O  O127  1  0.45775221  0.14120610  0.18888689  1
  O  O128  1  0.32955417  0.45773454  0.26941115  1
  O  O129  1  0.41658586  0.77670082  0.26903086  1
  O  O130  1  0.27420613  0.22781049  0.30312763  1
  O  O131  1  0.12374494  0.88850019  0.31927185  1
  O  O132  1  0.85369020  0.93624554  0.28475059  1
  O  O133  1  0.89270185  0.29810964  0.25370960  1
  O  O134  1  0.68560577  0.72663920  0.30365911  1
  O  O135  1  0.71227900  0.38884067  0.31814139  1
  O  O136  1  0.62269367  0.56741597  0.26892771  1
  O  O137  1  0.12351263  0.66704559  0.26952169  1
  O  O138  1  0.91412722  0.09660493  0.31945059  1
  O  O139  1  0.48301411  0.01950567  0.30314673  1
  O  O140  1  0.02488690  0.49486042  0.29261704  1
  O  O141  1  0.37010663  0.62146914  0.32987538  1
  O  O142  1  0.63818230  0.21118719  0.26555629  1
  O  O143  1  0.10814287  0.02316198  0.27285307  1
  O  O144  1  0.97950640  0.33949857  0.35334807  1
  O  O145  1  0.06434799  0.65780173  0.35289584  1
  O  O146  1  0.92385308  0.11184274  0.38719092  1
  O  O147  1  0.77661901  0.77118722  0.40316544  1
  O  O148  1  0.50727100  0.81773874  0.36812932  1
  O  O149  1  0.54295829  0.18007165  0.33792538  1
  O  O150  1  0.33191121  0.60831727  0.38762982  1
  O  O151  1  0.35326616  0.27241815  0.40318089  1
  O  O152  1  0.27204742  0.44879663  0.35272448  1
  O  O153  1  0.77202519  0.54802283  0.35327138  1
  O  O154  1  0.56477677  0.97873516  0.40296847  1
  O  O155  1  0.13336642  0.90364454  0.38719061  1
  O  O156  1  0.67376200  0.37512418  0.37580431  1
  O  O157  1  0.02274150  0.49850576  0.41494840  1
  O  O158  1  0.28823796  0.09355151  0.34959069  1
  O  O159  1  0.76089056  0.90525756  0.35667051  1
  O  O160  1  0.63065734  0.22030322  0.43573424  1
  O  O161  1  0.71099421  0.53989136  0.43398258  1
  O  O162  1  0.55819080  0.97830175  0.47059351  1
  O  O163  1  0.44764561  0.65681471  0.48530172  1
  O  O164  1  0.16362492  0.70317095  0.45403925  1
  O  O165  1  0.19077316  0.06536639  0.42200042  1
  O  O166  1  0.95614538  0.50861244  0.47270391  1
  O  O167  1  0.91829004  0.33223616  0.44054489  1
  O  O168  1  0.43215182  0.42984409  0.43673685  1
  O  O169  1  0.24642720  0.86836974  0.48443472  1
  O  O170  1  0.79136774  0.77861122  0.47373350  1
  O  O171  1  0.32950956  0.25966985  0.46105329  1
  O  O172  1  0.93820012  0.97668418  0.43376646  1
  O  O173  1  0.41808737  0.78181070  0.43731090  1
  O  O174  1  0.83884093  0.96543930  0.50044334  1
  O  O175  1  0.60623557  0.86166915  0.51937963  1
