# generated using pymatgen
data_Li3PO4
_symmetry_space_group_name_H-M   'P 1'
_cell_length_a   10.55485100
_cell_length_b   7.91303400
_cell_length_c   42.56477900
_cell_angle_alpha   90.00000000
_cell_angle_beta   90.00000000
_cell_angle_gamma   90.00000000
_symmetry_Int_Tables_number   1
_chemical_formula_structural   Li3PO4
_chemical_formula_sum   'Li84 P28 O112'
_cell_volume   3555.04843023
_cell_formula_units_Z   28
loop_
 _symmetry_equiv_pos_site_id
 _symmetry_equiv_pos_as_xyz
  1  'x, y, z'
loop_
 _atom_site_type_symbol
 _atom_site_label
 _atom_site_symmetry_multiplicity
 _atom_site_fract_x
 _atom_site_fract_y
 _atom_site_fract_z
 _atom_site_occupancy
  Li  Li0  1  0.15855587  0.20949035  0.06670846  1
  Li  Li1  1  0.83234381  0.39045809  0.02525951  1
  Li  Li2  1  0.34992679  0.37450102  0.03144556  1
  Li  Li3  1  0.66008514  0.19929220  0.06530774  1
  Li  Li4  1  0.66765927  0.89045180  0.02526048  1
  Li  Li5  1  0.34145354  0.70949194  0.06670890  1
  Li  Li6  1  0.83991278  0.69929606  0.06530852  1
  Li  Li7  1  0.15007399  0.87450515  0.03144573  1
  Li  Li8  1  0.16732802  0.20118851  0.00925154  1
  Li  Li9  1  0.92751322  0.38251476  0.08344164  1
  Li  Li10  1  0.33267552  0.70118904  0.00925239  1
  Li  Li11  1  0.57248533  0.88251189  0.08344059  1
  Li  Li12  1  0.16381405  0.83185807  0.15366484  1
  Li  Li13  1  0.83450723  0.98799397  0.11545309  1
  Li  Li14  1  0.33816027  0.02739946  0.10818593  1
  Li  Li15  1  0.66514194  0.78719336  0.16281529  1
  Li  Li16  1  0.66553683  0.48789373  0.11546582  1
  Li  Li17  1  0.33619816  0.33185650  0.15366477  1
  Li  Li18  1  0.83486831  0.28719180  0.16281676  1
  Li  Li19  1  0.16184567  0.52740142  0.10818460  1
  Li  Li20  1  0.06979391  0.83520121  0.09534094  1
  Li  Li21  1  0.92350307  0.97603869  0.17628528  1
  Li  Li22  1  0.43021229  0.33520266  0.09534101  1
  Li  Li23  1  0.57650516  0.47604234  0.17628521  1
  Li  Li24  1  0.16328976  0.43436363  0.24495285  1
  Li  Li25  1  0.83630991  0.58672578  0.20774808  1
  Li  Li26  1  0.33749803  0.63046600  0.19899301  1
  Li  Li27  1  0.66254634  0.39229911  0.25435714  1
  Li  Li28  1  0.66369538  0.08672312  0.20774856  1
  Li  Li29  1  0.33671498  0.93434291  0.24495101  1
  Li  Li30  1  0.83745939  0.89230262  0.25435662  1
  Li  Li31  1  0.16252046  0.13050932  0.19898569  1
  Li  Li32  1  0.07280377  0.44262570  0.18512229  1
  Li  Li33  1  0.92459816  0.58173736  0.26766870  1
  Li  Li34  1  0.42720508  0.94262254  0.18512105  1
  Li  Li35  1  0.57540948  0.08173710  0.26766830  1
  Li  Li36  1  0.16335804  0.03848836  0.33654062  1
  Li  Li37  1  0.83568477  0.19185452  0.29985081  1
  Li  Li38  1  0.33737578  0.23425404  0.29037334  1
  Li  Li39  1  0.66276484  0.99567792  0.34602352  1
  Li  Li40  1  0.66431835  0.69185847  0.29985146  1
  Li  Li41  1  0.33663402  0.53843594  0.33653828  1
  Li  Li42  1  0.83723640  0.49568517  0.34602291  1
  Li  Li43  1  0.16262388  0.73423935  0.29037744  1
  Li  Li44  1  0.07433500  0.04601301  0.27666695  1
  Li  Li45  1  0.92548256  0.18520868  0.35935914  1
  Li  Li46  1  0.42567465  0.54600945  0.27666640  1
  Li  Li47  1  0.57449899  0.68519964  0.35936021  1
  Li  Li48  1  0.16347618  0.64224522  0.42834906  1
  Li  Li49  1  0.83579020  0.79543953  0.39151379  1
  Li  Li50  1  0.33725131  0.83674599  0.38189854  1
  Li  Li51  1  0.66225101  0.59837819  0.43729268  1
  Li  Li52  1  0.66420029  0.29543585  0.39151328  1
  Li  Li53  1  0.33652049  0.14221991  0.42834586  1
  Li  Li54  1  0.83772996  0.09837757  0.43729342  1
  Li  Li55  1  0.16247025  0.33695705  0.38197737  1
  Li  Li56  1  0.07504681  0.64890272  0.36816628  1
  Li  Li57  1  0.92776846  0.78759579  0.45124774  1
  Li  Li58  1  0.42494723  0.14887700  0.36817225  1
  Li  Li59  1  0.57222771  0.28759102  0.45124542  1
  Li  Li60  1  0.16606637  0.24339298  0.52120256  1
  Li  Li61  1  0.83636365  0.39830074  0.48248895  1
  Li  Li62  1  0.33575707  0.44227935  0.47364963  1
  Li  Li63  1  0.66194941  0.20244292  0.52821653  1
  Li  Li64  1  0.66363625  0.89829692  0.48248815  1
  Li  Li65  1  0.33392465  0.74344908  0.52119850  1
  Li  Li66  1  0.83805160  0.70244299  0.52821607  1
  Li  Li67  1  0.16424164  0.94228174  0.47365063  1
  Li  Li68  1  0.07742188  0.25391674  0.46006486  1
  Li  Li69  1  0.93016890  0.39387584  0.54085517  1
  Li  Li70  1  0.42257492  0.75392129  0.46006123  1
  Li  Li71  1  0.56983383  0.89387694  0.54085545  1
  Li  Li72  1  0.16894807  0.84205126  0.61136439  1
  Li  Li73  1  0.84113770  0.01952789  0.56983910  1
  Li  Li74  1  0.33964482  0.03313700  0.57098234  1
  Li  Li75  1  0.64994564  0.85708548  0.60438769  1
  Li  Li76  1  0.65885472  0.51953391  0.56984139  1
  Li  Li77  1  0.33106406  0.34205283  0.61136366  1
  Li  Li78  1  0.85005149  0.35709322  0.60438713  1
  Li  Li79  1  0.16037642  0.53313622  0.57098418  1
  Li  Li80  1  0.07198002  0.84693321  0.55310274  1
  Li  Li81  1  0.83128511  0.03006103  0.62728455  1
  Li  Li82  1  0.42803325  0.34693515  0.55310433  1
  Li  Li83  1  0.66879389  0.53005429  0.62729265  1
  P  P84  1  0.10390876  0.56451176  0.03816798  1
  P  P85  1  0.91124933  0.03741893  0.04708577  1
  P  P86  1  0.39610034  0.06451211  0.03816851  1
  P  P87  1  0.58875851  0.53741622  0.04708665  1
  P  P88  1  0.08649953  0.18064734  0.13079352  1
  P  P89  1  0.91034083  0.63620051  0.13932722  1
  P  P90  1  0.41352318  0.68064375  0.13079168  1
  P  P91  1  0.58967577  0.13618575  0.13932639  1
  P  P92  1  0.08848499  0.78378740  0.22139675  1
  P  P93  1  0.91047751  0.23897501  0.23170758  1
  P  P94  1  0.41152858  0.28378006  0.22139598  1
  P  P95  1  0.58953815  0.73897669  0.23170897  1
  P  P96  1  0.08869101  0.38726341  0.31298379  1
  P  P97  1  0.91110008  0.84261573  0.32327422  1
  P  P98  1  0.41130476  0.88727124  0.31297730  1
  P  P99  1  0.58890826  0.34261291  0.32327382  1
  P  P100  1  0.08936141  0.99024640  0.40457353  1
  P  P101  1  0.91162824  0.44567851  0.41489043  1
  P  P102  1  0.41058157  0.49021102  0.40456809  1
  P  P103  1  0.58832163  0.94563185  0.41488400  1
  P  P104  1  0.08990626  0.59333885  0.49709624  1
  P  P105  1  0.91358453  0.04886101  0.50563798  1
  P  P106  1  0.41009622  0.09335009  0.49709668  1
  P  P107  1  0.58642202  0.54885969  0.50563710  1
  P  P108  1  0.08862893  0.19283001  0.58947023  1
  P  P109  1  0.89674245  0.66586714  0.59835749  1
  P  P110  1  0.41138646  0.69282827  0.58947173  1
  P  P111  1  0.60326327  0.16584631  0.59836126  1
  O  O112  1  0.17129743  0.39034772  0.03596111  1
  O  O113  1  0.84928295  0.20934790  0.05709242  1
  O  O114  1  0.34421314  0.16255142  0.06789493  1
  O  O115  1  0.66576200  0.45414225  0.02114171  1
  O  O116  1  0.65072219  0.70935119  0.05709152  1
  O  O117  1  0.32870484  0.89035265  0.03596111  1
  O  O118  1  0.83423681  0.95414435  0.02114254  1
  O  O119  1  0.15579635  0.66254850  0.06789429  1
  O  O120  1  0.05321109  0.06974463  0.03679396  1
  O  O121  1  0.95928860  0.53923173  0.04264483  1
  O  O122  1  0.44679714  0.56972652  0.03679421  1
  O  O123  1  0.54072276  0.03923229  0.04264204  1
  O  O124  1  0.14442205  0.66884484  0.00915161  1
  O  O125  1  0.91614237  0.91802406  0.07671146  1
  O  O126  1  0.35558522  0.16884439  0.00915231  1
  O  O127  1  0.58387609  0.41800862  0.07671052  1
  O  O128  1  0.15868885  0.01757606  0.12019903  1
  O  O129  1  0.83955649  0.80133680  0.14889460  1
  O  O130  1  0.34194808  0.76386655  0.15884293  1
  O  O131  1  0.65547413  0.05653034  0.11003060  1
  O  O132  1  0.66046938  0.30131854  0.14889620  1
  O  O133  1  0.34133377  0.51757175  0.12019706  1
  O  O134  1  0.84455743  0.55652092  0.11003220  1
  O  O135  1  0.15807687  0.26387843  0.15884334  1
  O  O136  1  0.05082284  0.67853821  0.13137096  1
  O  O137  1  0.94908926  0.13477594  0.14041686  1
  O  O138  1  0.44919675  0.17854864  0.13136922  1
  O  O139  1  0.55093208  0.63476125  0.14041358  1
  O  O140  1  0.08449949  0.30737991  0.10275890  1
  O  O141  1  0.90731617  0.51031977  0.16764166  1
  O  O142  1  0.41551731  0.80738256  0.10275934  1
  O  O143  1  0.59270098  0.01030644  0.16764063  1
  O  O144  1  0.15902565  0.61813070  0.21191218  1
  O  O145  1  0.83996194  0.40471754  0.24109869  1
  O  O146  1  0.34188405  0.36787057  0.24971856  1
  O  O147  1  0.65948189  0.65433931  0.20352531  1
  O  O148  1  0.66005213  0.90471842  0.24109797  1
  O  O149  1  0.34099001  0.11812933  0.21190747  1
  O  O150  1  0.84052391  0.15433248  0.20352572  1
  O  O151  1  0.15811787  0.86787389  0.24972198  1
  O  O152  1  0.04914127  0.28152031  0.22218331  1
  O  O153  1  0.94952089  0.74139716  0.23071281  1
  O  O154  1  0.45087469  0.78150394  0.22218275  1
  O  O155  1  0.55048584  0.24138498  0.23071623  1
  O  O156  1  0.08886600  0.90800204  0.19290758  1
  O  O157  1  0.91052566  0.11538909  0.26031098  1
  O  O158  1  0.41116355  0.40800364  0.19290832  1
  O  O159  1  0.58948821  0.61538787  0.26031166  1
  O  O160  1  0.15939541  0.22176769  0.30347416  1
  O  O161  1  0.84038099  0.00808474  0.33276461  1
  O  O162  1  0.34137277  0.97143076  0.34124910  1
  O  O163  1  0.65847257  0.25837334  0.29495736  1
  O  O164  1  0.65961631  0.50809024  0.33276440  1
  O  O165  1  0.34062079  0.72176126  0.30346939  1
  O  O166  1  0.84153807  0.75838282  0.29495672  1
  O  O167  1  0.15859078  0.47142999  0.34125810  1
  O  O168  1  0.04987349  0.88476366  0.31377824  1
  O  O169  1  0.94999476  0.34497634  0.32254054  1
  O  O170  1  0.45013892  0.38475706  0.31377616  1
  O  O171  1  0.54999603  0.84500267  0.32253710  1
  O  O172  1  0.08875702  0.51114973  0.28442475  1
  O  O173  1  0.91064046  0.71874826  0.35184168  1
  O  O174  1  0.41125127  0.01113943  0.28441621  1
  O  O175  1  0.58935747  0.21874816  0.35184097  1
  O  O176  1  0.15985824  0.82463447  0.39507373  1
  O  O177  1  0.84093847  0.61101097  0.42450522  1
  O  O178  1  0.34051630  0.57457437  0.43276706  1
  O  O179  1  0.65815574  0.86147278  0.38659303  1
  O  O180  1  0.65902354  0.11097848  0.42449167  1
  O  O181  1  0.34004141  0.32461835  0.39508441  1
  O  O182  1  0.84180036  0.36153976  0.38659778  1
  O  O183  1  0.15946329  0.07457227  0.43276985  1
  O  O184  1  0.05031630  0.48840598  0.40540216  1
  O  O185  1  0.95082649  0.94743881  0.41415711  1
  O  O186  1  0.44961739  0.98830156  0.40539690  1
  O  O187  1  0.54912977  0.44742027  0.41414736  1
  O  O188  1  0.08901666  0.11417184  0.37601204  1
  O  O189  1  0.91178291  0.32118614  0.44334270  1
  O  O190  1  0.41090640  0.61409138  0.37599930  1
  O  O191  1  0.58821296  0.82118455  0.44334342  1
  O  O192  1  0.16099089  0.42824518  0.48765790  1
  O  O193  1  0.84120297  0.21195729  0.51614117  1
  O  O194  1  0.34482134  0.17358156  0.52640617  1
  O  O195  1  0.65770136  0.46533685  0.47754727  1
  O  O196  1  0.65880342  0.71195552  0.51614134  1
  O  O197  1  0.33900321  0.92825777  0.48766153  1
  O  O198  1  0.84230775  0.96533562  0.47754922  1
  O  O199  1  0.15517874  0.67355231  0.52640722  1
  O  O200  1  0.05103975  0.09498540  0.49611186  1
  O  O201  1  0.94935480  0.55091182  0.50498691  1
  O  O202  1  0.44897133  0.59497724  0.49610929  1
  O  O203  1  0.55064175  0.05090661  0.50498925  1
  O  O204  1  0.09307470  0.71864007  0.46868233  1
  O  O205  1  0.91524019  0.92217076  0.53369490  1
  O  O206  1  0.40693159  0.21863654  0.46868041  1
  O  O207  1  0.58476907  0.42217317  0.53369539  1
  O  O208  1  0.15082860  0.02126344  0.57927360  1
  O  O209  1  0.82866611  0.83955879  0.60061653  1
  O  O210  1  0.33473717  0.77471708  0.61563665  1
  O  O211  1  0.65506931  0.06722210  0.56863125  1
  O  O212  1  0.67134832  0.33953835  0.60062146  1
  O  O213  1  0.34917348  0.52127091  0.57927537  1
  O  O214  1  0.84492949  0.56722432  0.56863132  1
  O  O215  1  0.16528152  0.27470395  0.61563622  1
  O  O216  1  0.04121566  0.69231367  0.59385927  1
  O  O217  1  0.94642431  0.16030276  0.59952612  1
  O  O218  1  0.45879298  0.19230627  0.59386058  1
  O  O219  1  0.55357654  0.66027267  0.59953465  1
  O  O220  1  0.08427199  0.31314931  0.55994649  1
  O  O221  1  0.85672327  0.56094200  0.62732993  1
  O  O222  1  0.41575665  0.81314081  0.55994657  1
  O  O223  1  0.64328794  0.06091366  0.62733195  1
