# generated using pymatgen
data_Li3PO4
_symmetry_space_group_name_H-M   'P 1'
_cell_length_a   6.15119200
_cell_length_b   11.66978300
_cell_length_c   45.02262600
_cell_angle_alpha   90.00000000
_cell_angle_beta   90.00000000
_cell_angle_gamma   90.00000000
_symmetry_Int_Tables_number   1
_chemical_formula_structural   Li3PO4
_chemical_formula_sum   'Li66 P22 O88'
_cell_volume   3231.86257628
_cell_formula_units_Z   22
loop_
 _symmetry_equiv_pos_site_id
 _symmetry_equiv_pos_as_xyz
  1  'x, y, z'
loop_
 _atom_site_type_symbol
 _atom_site_label
 _atom_site_symmetry_multiplicity
 _atom_site_fract_x
 _atom_site_fract_y
 _atom_site_fract_z
 _atom_site_occupancy
  Li  Li0  1  0.53601956  0.73079316  0.04760531  1
  Li  Li1  1  0.52268591  0.31526028  0.00873965  1
  Li  Li2  1  0.50303215  0.51829422  0.08367044  1
  Li  Li3  1  0.50358043  0.17295494  0.08707316  1
  Li  Li4  1  0.99651220  0.17296854  0.08708263  1
  Li  Li5  1  0.99792882  0.51829794  0.08370313  1
  Li  Li6  1  0.97736296  0.31520862  0.00876216  1
  Li  Li7  1  0.96551081  0.73058873  0.04764734  1
  Li  Li8  1  0.75048055  0.75671685  0.09713838  1
  Li  Li9  1  0.25006072  0.96710563  0.07604389  1
  Li  Li10  1  0.25005323  0.54604802  0.01381790  1
  Li  Li11  1  0.75006031  0.32655322  0.06152250  1
  Li  Li12  1  0.49721143  0.56626111  0.14951635  1
  Li  Li13  1  0.51086192  0.94572716  0.12029005  1
  Li  Li14  1  0.50062714  0.33209888  0.18220181  1
  Li  Li15  1  0.49864218  0.99264577  0.18901784  1
  Li  Li16  1  0.00154943  0.99271591  0.18901665  1
  Li  Li17  1  0.99946139  0.33211418  0.18222645  1
  Li  Li18  1  0.98978971  0.94532674  0.12028573  1
  Li  Li19  1  0.00287022  0.56626737  0.14951660  1
  Li  Li20  1  0.75001622  0.56375168  0.19842407  1
  Li  Li21  1  0.25003150  0.76234919  0.17199985  1
  Li  Li22  1  0.25006888  0.36770347  0.11441013  1
  Li  Li23  1  0.75005585  0.13854761  0.15776080  1
  Li  Li24  1  0.49870975  0.38233860  0.24960273  1
  Li  Li25  1  0.50110020  0.76036372  0.22177449  1
  Li  Li26  1  0.50225366  0.14877012  0.28263508  1
  Li  Li27  1  0.49825282  0.81069464  0.28952145  1
  Li  Li28  1  0.00196086  0.81070137  0.28953073  1
  Li  Li29  1  0.99777895  0.14877204  0.28263389  1
  Li  Li30  1  0.99893092  0.76036540  0.22177432  1
  Li  Li31  1  0.00133372  0.38234258  0.24960287  1
  Li  Li32  1  0.75013050  0.38147664  0.29853461  1
  Li  Li33  1  0.25001309  0.57813364  0.27305752  1
  Li  Li34  1  0.25005945  0.18623547  0.21271329  1
  Li  Li35  1  0.75002699  0.95489260  0.25814650  1
  Li  Li36  1  0.49808376  0.19975946  0.35047844  1
  Li  Li37  1  0.50206550  0.57724994  0.32229436  1
  Li  Li38  1  0.50318345  0.96701941  0.38333322  1
  Li  Li39  1  0.49890213  0.62776979  0.38989504  1
  Li  Li40  1  0.00100277  0.62794590  0.38991614  1
  Li  Li41  1  0.99696026  0.96688101  0.38334900  1
  Li  Li42  1  0.99794007  0.57725765  0.32229530  1
  Li  Li43  1  0.00191650  0.19973671  0.35048067  1
  Li  Li44  1  0.74994440  0.19680254  0.39995012  1
  Li  Li45  1  0.24969811  0.39619078  0.37351504  1
  Li  Li46  1  0.25001718  0.00378594  0.31407832  1
  Li  Li47  1  0.74999576  0.77255202  0.35903282  1
  Li  Li48  1  0.48982602  0.01422518  0.45156458  1
  Li  Li49  1  0.50285610  0.39377971  0.42219394  1
  Li  Li50  1  0.49564235  0.78733995  0.48492585  1
  Li  Li51  1  0.49700252  0.43986383  0.48823214  1
  Li  Li52  1  0.00288606  0.43986307  0.48821997  1
  Li  Li53  1  0.00378786  0.78748063  0.48491171  1
  Li  Li54  1  0.99489902  0.39368927  0.42230108  1
  Li  Li55  1  0.01007182  0.01424304  0.45156086  1
  Li  Li56  1  0.74984867  0.99318202  0.49571035  1
  Li  Li57  1  0.24997460  0.20223706  0.47463133  1
  Li  Li58  1  0.25004479  0.82159391  0.41415775  1
  Li  Li59  1  0.74995793  0.59123190  0.45760547  1
  Li  Li60  1  0.47737766  0.64186259  0.56296664  1
  Li  Li61  1  0.46431026  0.22782525  0.52437389  1
  Li  Li62  1  0.03538919  0.22784070  0.52430913  1
  Li  Li63  1  0.02152598  0.64257832  0.56306226  1
  Li  Li64  1  0.24979782  0.63236007  0.51029275  1
  Li  Li65  1  0.74989549  0.41037622  0.55837069  1
  P  P66  1  0.75025123  0.97616992  0.05980897  1
  P  P67  1  0.75022267  0.53121864  0.02569825  1
  P  P68  1  0.25013912  0.33591737  0.04811365  1
  P  P69  1  0.25039116  0.72184575  0.10594498  1
  P  P70  1  0.75005428  0.79109434  0.16367213  1
  P  P71  1  0.75014505  0.36109734  0.12600390  1
  P  P72  1  0.25010013  0.14464920  0.14527385  1
  P  P73  1  0.25005425  0.53446298  0.20738891  1
  P  P74  1  0.75003211  0.60885065  0.26413064  1
  P  P75  1  0.75011762  0.17885748  0.22521991  1
  P  P76  1  0.25006481  0.96349575  0.24630483  1
  P  P77  1  0.25002426  0.35130763  0.30782903  1
  P  P78  1  0.74990527  0.42527007  0.36450394  1
  P  P79  1  0.75004706  0.99637729  0.32585845  1
  P  P80  1  0.25002480  0.78105282  0.34685873  1
  P  P81  1  0.24980784  0.16841477  0.40828162  1
  P  P82  1  0.74973567  0.23749930  0.46592806  1
  P  P83  1  0.74998613  0.81450574  0.42675969  1
  P  P84  1  0.24988460  0.59848849  0.44598522  1
  P  P85  1  0.24966784  0.98331623  0.51216000  1
  P  P86  1  0.74984380  0.62192448  0.52367054  1
  P  P87  1  0.24962270  0.42673492  0.54630180  1
  O  O88  1  0.45681642  0.68405938  0.08826386  1
  O  O89  1  0.54513570  0.00896095  0.07960883  1
  O  O90  1  0.54198788  0.60444545  0.02065294  1
  O  O91  1  0.46138052  0.26421959  0.05046709  1
  O  O92  1  0.03894361  0.26420834  0.05048312  1
  O  O93  1  0.95839869  0.60443164  0.02063181  1
  O  O94  1  0.95521460  0.00908867  0.07961906  1
  O  O95  1  0.04412731  0.68403318  0.08822955  1
  O  O96  1  0.75059510  0.83969023  0.05781010  1
  O  O97  1  0.25025614  0.43332659  0.07142969  1
  O  O98  1  0.75009925  0.41976017  0.00641655  1
  O  O99  1  0.75012813  0.03361000  0.03002983  1
  O  O100  1  0.75041205  0.49202034  0.05921361  1
  O  O101  1  0.25004101  0.38362544  0.01525627  1
  O  O102  1  0.45680399  0.49564450  0.19002944  1
  O  O103  1  0.54302727  0.82942248  0.18102184  1
  O  O104  1  0.54316214  0.43745403  0.12263868  1
  O  O105  1  0.45753830  0.06907899  0.14899205  1
  O  O106  1  0.04273008  0.06903475  0.14897896  1
  O  O107  1  0.95716952  0.43743184  0.12262997  1
  O  O108  1  0.95709163  0.82941641  0.18101960  1
  O  O109  1  0.04329753  0.49565447  0.19002985  1
  O  O110  1  0.75005760  0.65849135  0.16018162  1
  O  O111  1  0.25024136  0.85395171  0.10982330  1
  O  O112  1  0.25007891  0.24068488  0.16934578  1
  O  O113  1  0.75009550  0.26549873  0.10204890  1
  O  O114  1  0.25015801  0.66179213  0.13693858  1
  O  O115  1  0.75008984  0.84881569  0.13240521  1
  O  O116  1  0.75013295  0.30525364  0.15744542  1
  O  O117  1  0.25016410  0.19907845  0.11356900  1
  O  O118  1  0.45700131  0.31259638  0.29048888  1
  O  O119  1  0.54308153  0.64737731  0.28150146  1
  O  O120  1  0.54289758  0.25500519  0.22188001  1
  O  O121  1  0.45701265  0.88715183  0.24954752  1
  O  O122  1  0.04313012  0.88714762  0.24954217  1
  O  O123  1  0.95741563  0.25496420  0.22189161  1
  O  O124  1  0.95698853  0.64738020  0.28150097  1
  O  O125  1  0.04304263  0.31260701  0.29048481  1
  O  O126  1  0.75000895  0.47618635  0.26067237  1
  O  O127  1  0.25004179  0.66712361  0.21055299  1
  O  O128  1  0.25001810  0.05740167  0.27080108  1
  O  O129  1  0.75010226  0.08428251  0.20088951  1
  O  O130  1  0.25005057  0.47705124  0.23869680  1
  O  O131  1  0.75001538  0.66620244  0.23280740  1
  O  O132  1  0.75002957  0.12236904  0.25666040  1
  O  O133  1  0.25011304  0.02014057  0.21488575  1
  O  O134  1  0.45695035  0.13006960  0.39097614  1
  O  O135  1  0.54306816  0.46422856  0.38184137  1
  O  O136  1  0.54296289  0.07257402  0.32261970  1
  O  O137  1  0.45729327  0.70483990  0.35011549  1
  O  O138  1  0.04276040  0.70485179  0.35012253  1
  O  O139  1  0.95710088  0.07258853  0.32261015  1
  O  O140  1  0.95651713  0.46431620  0.38186731  1
  O  O141  1  0.04272054  0.12985827  0.39099004  1
  O  O142  1  0.75002686  0.29258790  0.36152405  1
  O  O143  1  0.25001366  0.48397791  0.31120119  1
  O  O144  1  0.25009935  0.87557916  0.37121171  1
  O  O145  1  0.75005904  0.90238341  0.30135380  1
  O  O146  1  0.24998581  0.29415053  0.33920033  1
  O  O147  1  0.74999197  0.48219125  0.33315142  1
  O  O148  1  0.75005956  0.93931245  0.35723155  1
  O  O149  1  0.25000428  0.83748306  0.31541978  1
  O  O150  1  0.45484163  0.95068284  0.49233944  1
  O  O151  1  0.54360838  0.27469508  0.48371700  1
  O  O152  1  0.54290370  0.89039747  0.42306477  1
  O  O153  1  0.45668016  0.52193248  0.44931264  1
  O  O154  1  0.04304792  0.52196517  0.44930063  1
  O  O155  1  0.95730622  0.89025742  0.42308885  1
  O  O156  1  0.95620503  0.27473339  0.48364072  1
  O  O157  1  0.04456137  0.95076701  0.49232574  1
  O  O158  1  0.74982000  0.10545334  0.46187535  1
  O  O159  1  0.24941086  0.30100558  0.41171786  1
  O  O160  1  0.24977402  0.69407377  0.46993454  1
  O  O161  1  0.74993590  0.71870673  0.40265091  1
  O  O162  1  0.24996221  0.11048014  0.43951550  1
  O  O163  1  0.74931419  0.29803936  0.43499674  1
  O  O164  1  0.74977833  0.76011603  0.45846815  1
  O  O165  1  0.24999623  0.65465304  0.41458158  1
  O  O166  1  0.53858967  0.69380012  0.52142346  1
  O  O167  1  0.45774628  0.35341318  0.55135086  1
  O  O168  1  0.04157973  0.35331041  0.55131296  1
  O  O169  1  0.96079959  0.69401645  0.52143975  1
  O  O170  1  0.24981758  0.11968302  0.51413142  1
  O  O171  1  0.24939996  0.53792119  0.56567421  1
  O  O172  1  0.74997817  0.52500222  0.50023770  1
  O  O173  1  0.24947155  0.92582592  0.54191612  1
  O  O174  1  0.74981925  0.57336947  0.55644539  1
  O  O175  1  0.24976226  0.46626435  0.51281366  1
