# generated using pymatgen
data_Li3PO4
_symmetry_space_group_name_H-M   'P 1'
_cell_length_a   10.55485100
_cell_length_b   7.91303400
_cell_length_c   42.56477900
_cell_angle_alpha   90.00000000
_cell_angle_beta   90.00000000
_cell_angle_gamma   90.00000000
_symmetry_Int_Tables_number   1
_chemical_formula_structural   Li3PO4
_chemical_formula_sum   'Li72 P24 O96'
_cell_volume   3555.04843023
_cell_formula_units_Z   24
loop_
 _symmetry_equiv_pos_site_id
 _symmetry_equiv_pos_as_xyz
  1  'x, y, z'
loop_
 _atom_site_type_symbol
 _atom_site_label
 _atom_site_symmetry_multiplicity
 _atom_site_fract_x
 _atom_site_fract_y
 _atom_site_fract_z
 _atom_site_occupancy
  Li  Li0  1  0.76960778  0.35753239  0.99806172  1
  Li  Li1  1  0.33594179  0.09354715  0.09583352  1
  Li  Li2  1  0.68455653  0.28830418  0.05838938  1
  Li  Li3  1  0.73039014  0.85753222  0.99806170  1
  Li  Li4  1  0.81544489  0.78830502  0.05838963  1
  Li  Li5  1  0.16405904  0.59354675  0.09583364  1
  Li  Li6  1  0.08607252  0.03700601  0.05844071  1
  Li  Li7  1  0.92576420  0.44204794  0.06703758  1
  Li  Li8  1  0.41392680  0.53700387  0.05844103  1
  Li  Li9  1  0.57423709  0.94204669  0.06703725  1
  Li  Li10  1  0.15838836  0.91597443  0.13235424  1
  Li  Li11  1  0.83869192  0.06602539  0.09703535  1
  Li  Li12  1  0.33653939  0.71546376  0.17873571  1
  Li  Li13  1  0.66596326  0.87002715  0.14349917  1
  Li  Li14  1  0.66130911  0.56602633  0.09703539  1
  Li  Li15  1  0.34161232  0.41597440  0.13235404  1
  Li  Li16  1  0.83403699  0.37002668  0.14349921  1
  Li  Li17  1  0.16346067  0.21546394  0.17873575  1
  Li  Li18  1  0.07242300  0.52689267  0.16553896  1
  Li  Li19  1  0.92474992  0.06224261  0.15635498  1
  Li  Li20  1  0.42757715  0.02689177  0.16553905  1
  Li  Li21  1  0.57525006  0.56224275  0.15635491  1
  Li  Li22  1  0.16351649  0.52074796  0.22468226  1
  Li  Li23  1  0.83573905  0.67154635  0.18871046  1
  Li  Li24  1  0.33716480  0.32212191  0.26995584  1
  Li  Li25  1  0.66272572  0.47817512  0.23444379  1
  Li  Li26  1  0.66426033  0.17154754  0.18871037  1
  Li  Li27  1  0.33648297  0.02074736  0.22468209  1
  Li  Li28  1  0.83727454  0.97817499  0.23444374  1
  Li  Li29  1  0.16283454  0.82212104  0.26995574  1
  Li  Li30  1  0.07548967  0.13287130  0.25670541  1
  Li  Li31  1  0.92497184  0.66721939  0.24796183  1
  Li  Li32  1  0.42451123  0.63287184  0.25670533  1
  Li  Li33  1  0.57502718  0.16721894  0.24796177  1
  Li  Li34  1  0.16337513  0.12599900  0.31616537  1
  Li  Li35  1  0.83640102  0.27899739  0.27975855  1
  Li  Li36  1  0.33723125  0.92666422  0.36157077  1
  Li  Li37  1  0.66334672  0.08536901  0.32591364  1
  Li  Li38  1  0.66359892  0.77899752  0.27975866  1
  Li  Li39  1  0.33662394  0.62599922  0.31616549  1
  Li  Li40  1  0.83665280  0.58536874  0.32591365  1
  Li  Li41  1  0.16276899  0.42666417  0.36157086  1
  Li  Li42  1  0.07491501  0.73810572  0.34808078  1
  Li  Li43  1  0.92420456  0.27579808  0.33916514  1
  Li  Li44  1  0.42508486  0.23810549  0.34808071  1
  Li  Li45  1  0.57579544  0.77579845  0.33916503  1
  Li  Li46  1  0.16370968  0.73267966  0.40748068  1
  Li  Li47  1  0.83698148  0.88490413  0.37159675  1
  Li  Li48  1  0.33406883  0.53680426  0.45238973  1
  Li  Li49  1  0.66378234  0.68967333  0.41743429  1
  Li  Li50  1  0.66301836  0.38490379  0.37159669  1
  Li  Li51  1  0.33629044  0.23267991  0.40748064  1
  Li  Li52  1  0.83621711  0.18967191  0.41743427  1
  Li  Li53  1  0.16593076  0.03680334  0.45238929  1
  Li  Li54  1  0.07502326  0.34366970  0.43953846  1
  Li  Li55  1  0.92800869  0.87863395  0.43063157  1
  Li  Li56  1  0.42497590  0.84366915  0.43953868  1
  Li  Li57  1  0.57199208  0.37863490  0.43063163  1
  Li  Li58  1  0.16086389  0.33843608  0.49897879  1
  Li  Li59  1  0.84188111  0.48838847  0.46409174  1
  Li  Li60  1  0.31309288  0.11399514  0.53795015  1
  Li  Li61  1  0.66359698  0.31133592  0.50052765  1
  Li  Li62  1  0.65811868  0.98838726  0.46409175  1
  Li  Li63  1  0.33913532  0.83843740  0.49897887  1
  Li  Li64  1  0.83640343  0.81133646  0.50052764  1
  Li  Li65  1  0.18690881  0.61399637  0.53795031  1
  Li  Li66  1  0.07390044  0.95994683  0.52912907  1
  Li  Li67  1  0.91201980  0.36541569  0.53798515  1
  Li  Li68  1  0.42609910  0.45995036  0.52912960  1
  Li  Li69  1  0.58797964  0.86541577  0.53798546  1
  Li  Li70  1  0.22776907  0.04564358  0.59799394  1
  Li  Li71  1  0.27223062  0.54563685  0.59799448  1
  P  P72  1  0.90070899  0.12139100  0.02721780  1
  P  P73  1  0.59928933  0.62139044  0.02721805  1
  P  P74  1  0.08806385  0.26940611  0.11012595  1
  P  P75  1  0.91308448  0.71453426  0.12054864  1
  P  P76  1  0.41193746  0.76940612  0.11012579  1
  P  P77  1  0.58691689  0.21453428  0.12054830  1
  P  P78  1  0.08830791  0.86974370  0.20127385  1
  P  P79  1  0.91121382  0.32373606  0.21192387  1
  P  P80  1  0.41169147  0.36974321  0.20127370  1
  P  P81  1  0.58878540  0.82373601  0.21192391  1
  P  P82  1  0.08877537  0.47575021  0.29283323  1
  P  P83  1  0.91137365  0.93063639  0.30321920  1
  P  P84  1  0.41122285  0.97575050  0.29283282  1
  P  P85  1  0.58862498  0.43063786  0.30321953  1
  P  P86  1  0.08873723  0.08145880  0.38411121  1
  P  P87  1  0.91149552  0.53547782  0.39484488  1
  P  P88  1  0.41126451  0.58145869  0.38411113  1
  P  P89  1  0.58850272  0.03547823  0.39484495  1
  P  P90  1  0.08733169  0.69033136  0.47565305  1
  P  P91  1  0.91165334  0.13552774  0.48597715  1
  P  P92  1  0.41266759  0.19033187  0.47565248  1
  P  P93  1  0.58834629  0.63552726  0.48597782  1
  P  P94  1  0.09871843  0.28352759  0.56895270  1
  P  P95  1  0.40128266  0.78353060  0.56895495  1
  O  O96  1  0.84313549  0.29728562  0.03868292  1
  O  O97  1  0.68962263  0.56788953  0.00027048  1
  O  O98  1  0.65686885  0.79728084  0.03868318  1
  O  O99  1  0.81037531  0.06788878  0.00027036  1
  O  O100  1  0.04076423  0.13547940  0.01952611  1
  O  O101  1  0.45923273  0.63548665  0.01952857  1
  O  O102  1  0.08629219  0.39546580  0.08252746  1
  O  O103  1  0.89360177  0.99566692  0.05639868  1
  O  O104  1  0.41371010  0.89546684  0.08252758  1
  O  O105  1  0.60639878  0.49566160  0.05639941  1
  O  O106  1  0.15786246  0.10407667  0.09970232  1
  O  O107  1  0.84203376  0.88159264  0.12895812  1
  O  O108  1  0.33988587  0.85143916  0.13844308  1
  O  O109  1  0.65412475  0.13106915  0.09145320  1
  O  O110  1  0.65796781  0.38158901  0.12895713  1
  O  O111  1  0.34213902  0.60407775  0.09970215  1
  O  O112  1  0.84587839  0.63106869  0.09145244  1
  O  O113  1  0.16011512  0.35143996  0.13844328  1
  O  O114  1  0.05342797  0.74975820  0.11295247  1
  O  O115  1  0.94996387  0.22269962  0.12003707  1
  O  O116  1  0.44657941  0.24976366  0.11294998  1
  O  O117  1  0.55003727  0.72270116  0.12003691  1
  O  O118  1  0.08856543  0.99312983  0.17265610  1
  O  O119  1  0.90435911  0.59144309  0.14916377  1
  O  O120  1  0.41143410  0.49312830  0.17265586  1
  O  O121  1  0.59563558  0.09144292  0.14916410  1
  O  O122  1  0.15851494  0.70363850  0.19194616  1
  O  O123  1  0.84070413  0.48933920  0.22141577  1
  O  O124  1  0.34174353  0.45480066  0.22945061  1
  O  O125  1  0.65896493  0.73858482  0.18380643  1
  O  O126  1  0.65929607  0.98934135  0.22141453  1
  O  O127  1  0.34148503  0.20363760  0.19194589  1
  O  O128  1  0.84103051  0.23858763  0.18380686  1
  O  O129  1  0.15825569  0.95480107  0.22945075  1
  O  O130  1  0.04982647  0.36579852  0.20229787  1
  O  O131  1  0.94949944  0.82755385  0.21081066  1
  O  O132  1  0.45017291  0.86579829  0.20229817  1
  O  O133  1  0.55049980  0.32755407  0.21081074  1
  O  O134  1  0.08963041  0.59905609  0.26419362  1
  O  O135  1  0.91109028  0.20035388  0.24052158  1
  O  O136  1  0.41036481  0.09905559  0.26419317  1
  O  O137  1  0.58890717  0.70035522  0.24052171  1
  O  O138  1  0.15914753  0.30986164  0.28340871  1
  O  O139  1  0.84092979  0.09656945  0.31255615  1
  O  O140  1  0.34156789  0.06038432  0.32107517  1
  O  O141  1  0.65838317  0.34529846  0.27504184  1
  O  O142  1  0.65906993  0.59657027  0.31255620  1
  O  O143  1  0.34085151  0.80986127  0.28340878  1
  O  O144  1  0.84161286  0.84529759  0.27504168  1
  O  O145  1  0.15843059  0.56038592  0.32107557  1
  O  O146  1  0.05021465  0.97202085  0.29365771  1
  O  O147  1  0.94972114  0.43451628  0.30226414  1
  O  O148  1  0.44978386  0.47202409  0.29365881  1
  O  O149  1  0.55027776  0.93451914  0.30226332  1
  O  O150  1  0.08833050  0.20452015  0.35546408  1
  O  O151  1  0.91071781  0.80771088  0.33192006  1
  O  O152  1  0.41167077  0.70452049  0.35546374  1
  O  O153  1  0.58928163  0.30771044  0.33192010  1
  O  O154  1  0.15909623  0.91566882  0.37464254  1
  O  O155  1  0.84175018  0.70180903  0.40419703  1
  O  O156  1  0.34080630  0.66698255  0.41214337  1
  O  O157  1  0.65863657  0.95127398  0.36659834  1
  O  O158  1  0.65824838  0.20180961  0.40419690  1
  O  O159  1  0.34090493  0.41566836  0.37464237  1
  O  O160  1  0.84136210  0.45127497  0.36659809  1
  O  O161  1  0.15919439  0.16698787  0.41214334  1
  O  O162  1  0.05048000  0.57688028  0.38532132  1
  O  O163  1  0.95036697  0.03934135  0.39394377  1
  O  O164  1  0.44951885  0.07688233  0.38532077  1
  O  O165  1  0.54963475  0.53934119  0.39394406  1
  O  O166  1  0.09634286  0.81407066  0.44712529  1
  O  O167  1  0.91088433  0.41197547  0.42344843  1
  O  O168  1  0.40365776  0.31407481  0.44712545  1
  O  O169  1  0.58911223  0.91197716  0.42344858  1
  O  O170  1  0.15810864  0.52327255  0.46709595  1
  O  O171  1  0.84151565  0.30044291  0.49652545  1
  O  O172  1  0.34527414  0.27242825  0.50486459  1
  O  O173  1  0.66060357  0.55337650  0.45773052  1
  O  O174  1  0.65848353  0.80044560  0.49652529  1
  O  O175  1  0.34189308  0.02327825  0.46709504  1
  O  O176  1  0.83940331  0.05337681  0.45772894  1
  O  O177  1  0.15472819  0.77243088  0.50486537  1
  O  O178  1  0.04940107  0.18284990  0.47590425  1
  O  O179  1  0.94687117  0.65542434  0.48318122  1
  O  O180  1  0.45059912  0.68284928  0.47590581  1
  O  O181  1  0.55312788  0.15542687  0.48318043  1
  O  O182  1  0.10560759  0.40843960  0.53968638  1
  O  O183  1  0.91406817  0.00961575  0.51360889  1
  O  O184  1  0.39439689  0.90843689  0.53968801  1
  O  O185  1  0.58593309  0.50961356  0.51360927  1
  O  O186  1  0.15479443  0.10655121  0.55752818  1
  O  O187  1  0.30969350  0.83672794  0.59565853  1
  O  O188  1  0.34520571  0.60655494  0.55753196  1
  O  O189  1  0.19031012  0.33670936  0.59565808  1
  O  O190  1  0.95890310  0.27066456  0.57703128  1
  O  O191  1  0.54109662  0.77066504  0.57703518  1
