# generated using pymatgen
data_Li3PO4
_symmetry_space_group_name_H-M   'P 1'
_cell_length_a   6.15119200
_cell_length_b   11.66978300
_cell_length_c   45.02262600
_cell_angle_alpha   90.00000000
_cell_angle_beta   90.00000000
_cell_angle_gamma   90.00000000
_symmetry_Int_Tables_number   1
_chemical_formula_structural   Li3PO4
_chemical_formula_sum   'Li54 P18 O72'
_cell_volume   3231.86257628
_cell_formula_units_Z   18
loop_
 _symmetry_equiv_pos_site_id
 _symmetry_equiv_pos_as_xyz
  1  'x, y, z'
loop_
 _atom_site_type_symbol
 _atom_site_label
 _atom_site_symmetry_multiplicity
 _atom_site_fract_x
 _atom_site_fract_y
 _atom_site_fract_z
 _atom_site_occupancy
  Li  Li0  1  0.50945389  0.57036294  0.07094076  1
  Li  Li1  1  0.52968975  0.20076016  0.06518225  1
  Li  Li2  1  0.97027172  0.20076273  0.06517849  1
  Li  Li3  1  0.99050412  0.57035385  0.07094728  1
  Li  Li4  1  0.74999841  0.81165030  0.06306797  1
  Li  Li5  1  0.24998345  0.98113308  0.05878938  1
  Li  Li6  1  0.25000203  0.38896723  0.10899548  1
  Li  Li7  1  0.50004053  0.60191029  0.13248892  1
  Li  Li8  1  0.50675440  0.97457226  0.10452063  1
  Li  Li9  1  0.50664434  0.36553476  0.16386517  1
  Li  Li10  1  0.49653656  0.02645331  0.17005645  1
  Li  Li11  1  0.00360872  0.02649464  0.17005038  1
  Li  Li12  1  0.99334307  0.36551453  0.16386555  1
  Li  Li13  1  0.99323129  0.97457145  0.10451922  1
  Li  Li14  1  0.99997228  0.60169990  0.13252323  1
  Li  Li15  1  0.74999594  0.59972804  0.18054810  1
  Li  Li16  1  0.24998211  0.79723726  0.15256775  1
  Li  Li17  1  0.25000214  0.22120844  0.19470302  1
  Li  Li18  1  0.74999415  0.17178480  0.13756640  1
  Li  Li19  1  0.49913241  0.41683745  0.23069787  1
  Li  Li20  1  0.50121257  0.79568211  0.20295589  1
  Li  Li21  1  0.50245891  0.18430228  0.26406036  1
  Li  Li22  1  0.49729728  0.84475853  0.27066511  1
  Li  Li23  1  0.00269016  0.84474651  0.27066695  1
  Li  Li24  1  0.99753092  0.18430504  0.26406057  1
  Li  Li25  1  0.99878047  0.79568373  0.20295427  1
  Li  Li26  1  0.00088072  0.41684651  0.23069654  1
  Li  Li27  1  0.74998347  0.41547547  0.27988090  1
  Li  Li28  1  0.24999771  0.61119972  0.25458123  1
  Li  Li29  1  0.24999208  0.03872366  0.29528636  1
  Li  Li30  1  0.74999712  0.99007294  0.23921967  1
  Li  Li31  1  0.49896871  0.23259689  0.33208939  1
  Li  Li32  1  0.50134790  0.61232253  0.30358567  1
  Li  Li33  1  0.50469733  0.00013968  0.36460028  1
  Li  Li34  1  0.49403970  0.66089074  0.37071447  1
  Li  Li35  1  0.00598021  0.66094367  0.37074790  1
  Li  Li36  1  0.99528676  0.00013937  0.36459991  1
  Li  Li37  1  0.99897137  0.61192744  0.30359025  1
  Li  Li38  1  0.00101291  0.23259437  0.33209083  1
  Li  Li39  1  0.74987147  0.22904913  0.38273135  1
  Li  Li40  1  0.24999977  0.42830755  0.35424487  1
  Li  Li41  1  0.25000095  0.85424674  0.39660502  1
  Li  Li42  1  0.75014395  0.80577138  0.34015013  1
  Li  Li43  1  0.49216418  0.05181575  0.43024304  1
  Li  Li44  1  0.50012093  0.42477554  0.40237644  1
  Li  Li45  1  0.46942696  0.82477385  0.46984898  1
  Li  Li46  1  0.49124621  0.45624405  0.46369830  1
  Li  Li47  1  0.00874679  0.45624445  0.46369631  1
  Li  Li48  1  0.03056854  0.82477843  0.46984915  1
  Li  Li49  1  0.99986664  0.42476196  0.40237570  1
  Li  Li50  1  0.00781895  0.05181297  0.43024549  1
  Li  Li51  1  0.74998322  0.04565717  0.47602399  1
  Li  Li52  1  0.24999703  0.21560603  0.47218477  1
  Li  Li53  1  0.74998205  0.63675718  0.42572920  1
  P  P54  1  0.24997214  0.75336637  0.08858874  1
  P  P55  1  0.74998848  0.03309281  0.04615977  1
  P  P56  1  0.25003633  0.56761022  0.18895565  1
  P  P57  1  0.75003701  0.82464955  0.14520929  1
  P  P58  1  0.74998809  0.39385486  0.10566229  1
  P  P59  1  0.25000728  0.18224437  0.12524445  1
  P  P60  1  0.25001310  0.38505088  0.28893848  1
  P  P61  1  0.74999809  0.64312460  0.24556717  1
  P  P62  1  0.74999104  0.21196597  0.20618445  1
  P  P63  1  0.24999335  0.99858764  0.22774537  1
  P  P64  1  0.24996003  0.20235339  0.38961971  1
  P  P65  1  0.74996821  0.45989087  0.34566528  1
  P  P66  1  0.75000256  0.02945103  0.30704699  1
  P  P67  1  0.24996971  0.81548853  0.32842998  1
  P  P68  1  0.25000738  0.99291645  0.48857515  1
  P  P69  1  0.74999672  0.27296068  0.44642032  1
  P  P70  1  0.74999042  0.84418993  0.40951543  1
  P  P71  1  0.25001611  0.63233657  0.42903375  1
  O  O72  1  0.45763381  0.71917640  0.07079661  1
  O  O73  1  0.53872949  0.03750419  0.06692354  1
  O  O74  1  0.96124022  0.03752130  0.06692876  1
  O  O75  1  0.04239899  0.71917429  0.07077749  1
  O  O76  1  0.75001296  0.91860153  0.03005483  1
  O  O77  1  0.24995935  0.88233393  0.09588228  1
  O  O78  1  0.74997099  0.30214022  0.08164454  1
  O  O79  1  0.74996573  0.15107835  0.03082007  1
  O  O80  1  0.24999557  0.23379419  0.09323905  1
  O  O81  1  0.45707188  0.52777404  0.17171041  1
  O  O82  1  0.54243485  0.86332831  0.16276121  1
  O  O83  1  0.54191467  0.47241552  0.10230044  1
  O  O84  1  0.45576841  0.10877749  0.13132514  1
  O  O85  1  0.04424543  0.10877960  0.13132301  1
  O  O86  1  0.95810359  0.47239494  0.10229880  1
  O  O87  1  0.95761613  0.86336948  0.16276018  1
  O  O88  1  0.04293328  0.52773743  0.17172891  1
  O  O89  1  0.75007597  0.69106912  0.14317452  1
  O  O90  1  0.24999927  0.69996041  0.19194509  1
  O  O91  1  0.25000483  0.28886814  0.14709018  1
  O  O92  1  0.75000072  0.11727571  0.18206692  1
  O  O93  1  0.24992194  0.68454375  0.11885298  1
  O  O94  1  0.74999714  0.88052022  0.11426345  1
  O  O95  1  0.74998585  0.34252656  0.13750792  1
  O  O96  1  0.25001190  0.05558993  0.19636731  1
  O  O97  1  0.45694251  0.34730766  0.27142882  1
  O  O98  1  0.54289366  0.68098336  0.26301665  1
  O  O99  1  0.54283961  0.28859182  0.20266011  1
  O  O100  1  0.45667474  0.92216278  0.23101291  1
  O  O101  1  0.04331363  0.92216072  0.23101309  1
  O  O102  1  0.95715228  0.28858116  0.20266031  1
  O  O103  1  0.95709456  0.68097161  0.26301852  1
  O  O104  1  0.04306465  0.34732625  0.27142837  1
  O  O105  1  0.74999335  0.51055323  0.24175082  1
  O  O106  1  0.25003607  0.51764384  0.29275597  1
  O  O107  1  0.24999408  0.09281810  0.25217798  1
  O  O108  1  0.74998051  0.93565243  0.28249285  1
  O  O109  1  0.25007537  0.51042614  0.22028641  1
  O  O110  1  0.74999967  0.70173328  0.21444866  1
  O  O111  1  0.74998758  0.15757301  0.23783427  1
  O  O112  1  0.24997975  0.87055943  0.29687112  1
  O  O113  1  0.45766069  0.16373489  0.37207739  1
  O  O114  1  0.54308499  0.49940359  0.36300369  1
  O  O115  1  0.54329599  0.10589536  0.30384869  1
  O  O116  1  0.45719010  0.73887111  0.33189988  1
  O  O117  1  0.04282862  0.73881128  0.33190763  1
  O  O118  1  0.95670441  0.10590388  0.30384723  1
  O  O119  1  0.95688265  0.49937745  0.36299812  1
  O  O120  1  0.04226588  0.16373566  0.37207659  1
  O  O121  1  0.74997110  0.32753123  0.34268147  1
  O  O122  1  0.24999353  0.33595208  0.39162740  1
  O  O123  1  0.24997418  0.90969996  0.35267224  1
  O  O124  1  0.74998234  0.73775995  0.38757311  1
  O  O125  1  0.24999298  0.32643729  0.32006587  1
  O  O126  1  0.74995761  0.51728762  0.31434385  1
  O  O127  1  0.74999957  0.97157180  0.33833207  1
  O  O128  1  0.25001456  0.68383392  0.39720777  1
  O  O129  1  0.46139803  0.98844158  0.46785448  1
  O  O130  1  0.54241786  0.30723881  0.46422425  1
  O  O131  1  0.54429895  0.91768646  0.40338439  1
  O  O132  1  0.45811962  0.55372849  0.43233986  1
  O  O133  1  0.04190599  0.55372818  0.43233420  1
  O  O134  1  0.95570565  0.91767397  0.40338968  1
  O  O135  1  0.95758328  0.30723473  0.46422342  1
  O  O136  1  0.03856104  0.98846116  0.46786245  1
  O  O137  1  0.74998605  0.14410628  0.43900064  1
  O  O138  1  0.25005309  0.10727351  0.50476458  1
  O  O139  1  0.24999618  0.72345931  0.45319505  1
  O  O140  1  0.24998403  0.14652932  0.42055691  1
  O  O141  1  0.74998871  0.34217457  0.41620272  1
  O  O142  1  0.75000373  0.79224219  0.44146780  1
  O  O143  1  0.25004225  0.87488298  0.50392223  1
