# generated using pymatgen
data_Li3PO4
_symmetry_space_group_name_H-M   'P 1'
_cell_length_a   7.91303400
_cell_length_b   11.66978227
_cell_length_c   43.59685200
_cell_angle_alpha   90.00000000
_cell_angle_beta   90.00000000
_cell_angle_gamma   74.43479159
_symmetry_Int_Tables_number   1
_chemical_formula_structural   Li3PO4
_chemical_formula_sum   'Li66 P22 O88'
_cell_volume   3878.23441823
_cell_formula_units_Z   22
loop_
 _symmetry_equiv_pos_site_id
 _symmetry_equiv_pos_as_xyz
  1  'x, y, z'
loop_
 _atom_site_type_symbol
 _atom_site_label
 _atom_site_symmetry_multiplicity
 _atom_site_fract_x
 _atom_site_fract_y
 _atom_site_fract_z
 _atom_site_occupancy
  Li  Li0  1  0.34708118  0.92300485  0.02045052  1
  Li  Li1  1  0.17969535  0.04332847  0.07241343  1
  Li  Li2  1  0.30416793  0.23279865  0.06475743  1
  Li  Li3  1  0.66457840  0.54551310  0.08276002  1
  Li  Li4  1  0.83955231  0.10518079  0.03125684  1
  Li  Li5  1  0.80284400  0.80774198  0.03251646  1
  Li  Li6  1  0.45413207  0.81254926  0.07000637  1
  Li  Li7  1  0.13556896  0.15903525  0.02269934  1
  Li  Li8  1  0.19738533  0.45142658  0.04465307  1
  Li  Li9  1  0.09502573  0.70731772  0.09095429  1
  Li  Li10  1  0.84990136  0.94007509  0.15395401  1
  Li  Li11  1  0.99345539  0.49021375  0.12057553  1
  Li  Li12  1  0.96445779  0.15375013  0.12800354  1
  Li  Li13  1  0.64403412  0.22279703  0.08294043  1
  Li  Li14  1  0.31394571  0.43208779  0.16475474  1
  Li  Li15  1  0.51832204  0.00179575  0.11196655  1
  Li  Li16  1  0.42715432  0.64303263  0.13610701  1
  Li  Li17  1  0.09093317  0.70109129  0.15495888  1
  Li  Li18  1  0.84454300  0.94361180  0.09293005  1
  Li  Li19  1  0.71939198  0.39020497  0.12757329  1
  Li  Li20  1  0.23734273  0.25275024  0.12625677  1
  Li  Li21  1  0.75315401  0.58296763  0.17721703  1
  Li  Li22  1  0.50274468  0.82367322  0.23851782  1
  Li  Li23  1  0.63944090  0.37202848  0.20552135  1
  Li  Li24  1  0.61575251  0.03580044  0.21060838  1
  Li  Li25  1  0.29223822  0.09125955  0.16974070  1
  Li  Li26  1  0.96258051  0.31277977  0.24747070  1
  Li  Li27  1  0.17122077  0.88387679  0.19598490  1
  Li  Li28  1  0.08092009  0.52451362  0.22016256  1
  Li  Li29  1  0.74649786  0.58409082  0.23966263  1
  Li  Li30  1  0.50856103  0.82289839  0.17639900  1
  Li  Li31  1  0.36820770  0.27442881  0.21042114  1
  Li  Li32  1  0.88812287  0.13204541  0.20575338  1
  Li  Li33  1  0.40261935  0.46484764  0.26168241  1
  Li  Li34  1  0.15350419  0.70480108  0.32257707  1
  Li  Li35  1  0.29068761  0.25307666  0.28922832  1
  Li  Li36  1  0.26683061  0.91771137  0.29453305  1
  Li  Li37  1  0.94359798  0.97589412  0.25284719  1
  Li  Li38  1  0.61498438  0.19756115  0.33000756  1
  Li  Li39  1  0.82614841  0.76505770  0.27966934  1
  Li  Li40  1  0.73269980  0.40710959  0.30402977  1
  Li  Li41  1  0.39785957  0.46686279  0.32382051  1
  Li  Li42  1  0.16176731  0.70501286  0.26033466  1
  Li  Li43  1  0.01782973  0.15683923  0.29438573  1
  Li  Li44  1  0.53689714  0.01480735  0.28933311  1
  Li  Li45  1  0.05840386  0.34926958  0.34599141  1
  Li  Li46  1  0.81163972  0.58156119  0.40901310  1
  Li  Li47  1  0.94108356  0.13706318  0.37196345  1
  Li  Li48  1  0.91427601  0.79798912  0.37955835  1
  Li  Li49  1  0.59215968  0.85707777  0.33520662  1
  Li  Li50  1  0.26438825  0.06680230  0.41681368  1
  Li  Li51  1  0.47837669  0.64531942  0.36399229  1
  Li  Li52  1  0.39181017  0.28688530  0.38800376  1
  Li  Li53  1  0.06281161  0.34478995  0.40743269  1
  Li  Li54  1  0.81494187  0.58881630  0.34505932  1
  Li  Li55  1  0.66991611  0.03663493  0.37381400  1
  Li  Li56  1  0.18858008  0.89931293  0.37200981  1
  Li  Li57  1  0.72765793  0.24540597  0.42775612  1
  Li  Li58  1  0.55923777  0.36681026  0.47999319  1
  Li  Li59  1  0.60488546  0.05611650  0.43551252  1
  Li  Li60  1  0.24216965  0.74457224  0.41731905  1
  Li  Li61  1  0.10406235  0.48167457  0.46783695  1
  Li  Li62  1  0.06684205  0.18280144  0.46842481  1
  Li  Li63  1  0.77127708  0.13127715  0.47731376  1
  Li  Li64  1  0.45250560  0.47604543  0.43005544  1
  Li  Li65  1  0.70863062  0.83878354  0.45481560  1
  P  P66  1  0.08135446  0.85992493  0.03483437  1
  P  P67  1  0.55294138  0.03425496  0.04227110  1
  P  P68  1  0.96690533  0.30121730  0.06984367  1
  P  P69  1  0.73325995  0.73529691  0.12090785  1
  P  P70  1  0.21376164  0.90416890  0.12664675  1
  P  P71  1  0.34911778  0.45342563  0.09652045  1
  P  P72  1  0.60431999  0.19016572  0.15391048  1
  P  P73  1  0.38856141  0.61971332  0.20552705  1
  P  P74  1  0.86609793  0.78795042  0.21050011  1
  P  P75  1  0.00065157  0.33438335  0.17889575  1
  P  P76  1  0.25445308  0.07257952  0.23790954  1
  P  P77  1  0.04042347  0.50092319  0.28948485  1
  P  P78  1  0.51798935  0.66960875  0.29452010  1
  P  P79  1  0.65201516  0.21650377  0.26201992  1
  P  P80  1  0.90571992  0.95456169  0.32111072  1
  P  P81  1  0.69388749  0.38509386  0.37335538  1
  P  P82  1  0.17422240  0.55349014  0.37922438  1
  P  P83  1  0.30249019  0.09920686  0.34601788  1
  P  P84  1  0.55825999  0.83574990  0.40330529  1
  P  P85  1  0.35404091  0.25450242  0.45785314  1
  P  P86  1  0.82587223  0.42900900  0.46527766  1
  P  P87  1  0.94091156  0.98793001  0.43000881  1
  O  O88  1  0.27942198  0.79944161  0.03902937  1
  O  O89  1  0.34775096  0.09157151  0.04161135  1
  O  O90  1  0.22346241  0.55053451  0.07698071  1
  O  O91  1  0.83699065  0.23752947  0.05652645  1
  O  O92  1  0.62180065  0.06069237  0.07459332  1
  O  O93  1  0.99410622  0.81809507  0.00755335  1
  O  O94  1  0.57268912  0.89803234  0.03892098  1
  O  O95  1  0.07045994  0.00016972  0.03249862  1
  O  O96  1  0.42176330  0.34421721  0.07514890  1
  O  O97  1  0.97662875  0.83987683  0.06414952  1
  O  O98  1  0.63886309  0.08422204  0.01639927  1
  O  O99  1  0.08470621  0.32670302  0.04299149  1
  O  O100  1  0.92896632  0.66240931  0.12375095  1
  O  O101  1  0.01977531  0.98209243  0.12334068  1
  O  O102  1  0.88002353  0.43111704  0.15795524  1
  O  O103  1  0.10009661  0.21164757  0.09157631  1
  O  O104  1  0.45685454  0.14002871  0.14005353  1
  O  O105  1  0.50247390  0.49820187  0.10998033  1
  O  O106  1  0.28731078  0.93071357  0.15835874  1
  O  O107  1  0.65638894  0.70523806  0.09008614  1
  O  O108  1  0.22101689  0.77040610  0.12432372  1
  O  O109  1  0.72027862  0.87076668  0.12335093  1
  O  O110  1  0.87312183  0.41466292  0.08807099  1
  O  O111  1  0.08555880  0.22221426  0.15928699  1
  O  O112  1  0.62717077  0.69966493  0.14798252  1
  O  O113  1  0.32531576  0.93819822  0.10042672  1
  O  O114  1  0.24396994  0.41679933  0.12345068  1
  O  O115  1  0.71196758  0.22670741  0.12732137  1
  O  O116  1  0.58406889  0.54561147  0.20811002  1
  O  O117  1  0.67075144  0.86228354  0.20790863  1
  O  O118  1  0.52864992  0.31494401  0.24198041  1
  O  O119  1  0.72947808  0.09176161  0.17373400  1
  O  O120  1  0.10854118  0.02318734  0.22317519  1
  O  O121  1  0.14685411  0.38393857  0.19338611  1
  O  O122  1  0.94158975  0.81343735  0.24209572  1
  O  O123  1  0.31346079  0.59460994  0.17392429  1
  O  O124  1  0.87841840  0.65302595  0.20786356  1
  O  O125  1  0.37533852  0.75456057  0.20850153  1
  O  O126  1  0.52052498  0.30023798  0.17431479  1
  O  O127  1  0.73774498  0.10652165  0.24174635  1
  O  O128  1  0.28083690  0.58121186  0.23174102  1
  O  O129  1  0.97352631  0.82532733  0.18412500  1
  O  O130  1  0.88947065  0.29978644  0.20506950  1
  O  O131  1  0.36458307  0.10895414  0.21174979  1
  O  O132  1  0.23568871  0.42640591  0.29222881  1
  O  O133  1  0.32284810  0.74424916  0.29181588  1
  O  O134  1  0.17749505  0.19743187  0.32613487  1
  O  O135  1  0.37759102  0.97405986  0.25796255  1
  O  O136  1  0.75925264  0.90536229  0.30658915  1
  O  O137  1  0.79750378  0.26607274  0.27686755  1
  O  O138  1  0.59278260  0.69459793  0.32614844  1
  O  O139  1  0.96548096  0.47518142  0.25786883  1
  O  O140  1  0.52969951  0.53493002  0.29162036  1
  O  O141  1  0.02881451  0.63577002  0.29199511  1
  O  O142  1  0.16902674  0.18259253  0.25818702  1
  O  O143  1  0.38586871  0.98887504  0.32565287  1
  O  O144  1  0.93240251  0.46421054  0.31587647  1
  O  O145  1  0.62671121  0.70734582  0.26833709  1
  O  O146  1  0.54190121  0.17992895  0.28815264  1
  O  O147  1  0.01687231  0.98924150  0.29493884  1
  O  O148  1  0.88812321  0.30779561  0.37658753  1
  O  O149  1  0.97827622  0.62585586  0.37644495  1
  O  O150  1  0.80735874  0.07795012  0.40839962  1
  O  O151  1  0.02649962  0.85749044  0.34193893  1
  O  O152  1  0.40423617  0.79159509  0.38991735  1
  O  O153  1  0.45034139  0.14901866  0.35983054  1
  O  O154  1  0.25195428  0.58424724  0.40989726  1
  O  O155  1  0.61981145  0.35832731  0.34170772  1
  O  O156  1  0.18828929  0.41790086  0.37686010  1
  O  O157  1  0.68555131  0.51900989  0.37567624  1
  O  O158  1  0.82144329  0.06682919  0.34073700  1
  O  O159  1  0.03332326  0.87430756  0.41178149  1
  O  O160  1  0.58322410  0.35062284  0.39965439  1
  O  O161  1  0.27924899  0.58938527  0.35200890  1
  O  O162  1  0.19467525  0.06297650  0.37261547  1
  O  O163  1  0.66348977  0.87224566  0.37639431  1
  O  O164  1  0.55918209  0.19724315  0.45866818  1
  O  O165  1  0.62779267  0.48937786  0.46109459  1
  O  O166  1  0.68361151  0.73833722  0.42279823  1
  O  O167  1  0.07199702  0.05093186  0.44314603  1
  O  O168  1  0.91271818  0.47025086  0.49269004  1
  O  O169  1  0.28651549  0.22820017  0.42541297  1
  O  O170  1  0.83712154  0.28854972  0.46736315  1
  O  O171  1  0.33434560  0.39075641  0.46126540  1
  O  O172  1  0.48697960  0.94495413  0.42477897  1
  O  O173  1  0.26684736  0.20469960  0.48356828  1
  O  O174  1  0.93094356  0.44958635  0.43606030  1
  O  O175  1  0.82330975  0.96279792  0.45695141  1
