# generated using pymatgen
data_Li3PO4
_symmetry_space_group_name_H-M   'P 1'
_cell_length_a   6.15119200
_cell_length_b   14.50933100
_cell_length_c   43.45376800
_cell_angle_alpha   90.00000000
_cell_angle_beta   90.00000000
_cell_angle_gamma   90.00000000
_symmetry_Int_Tables_number   1
_chemical_formula_structural   Li3PO4
_chemical_formula_sum   'Li72 P24 O96'
_cell_volume   3878.23492236
_cell_formula_units_Z   24
loop_
 _symmetry_equiv_pos_site_id
 _symmetry_equiv_pos_as_xyz
  1  'x, y, z'
loop_
 _atom_site_type_symbol
 _atom_site_label
 _atom_site_symmetry_multiplicity
 _atom_site_fract_x
 _atom_site_fract_y
 _atom_site_fract_z
 _atom_site_occupancy
  Li  Li0  1  0.97946044  0.25117069  0.03642705  1
  Li  Li1  1  0.70303812  0.54793375  0.06699903  1
  Li  Li2  1  0.01424256  0.04130214  0.04718419  1
  Li  Li3  1  0.98506020  0.73109105  0.03439648  1
  Li  Li4  1  0.72869812  0.72023006  0.08003097  1
  Li  Li5  1  0.28259237  0.87767318  0.07612065  1
  Li  Li6  1  0.24494273  0.40253936  0.06573429  1
  Li  Li7  1  0.48754213  0.50815258  0.11671219  1
  Li  Li8  1  0.51650829  0.82702625  0.12054274  1
  Li  Li9  1  0.49694640  0.30149228  0.12924984  1
  Li  Li10  1  0.50802730  0.03873997  0.10459602  1
  Li  Li11  1  0.00695835  0.04255754  0.10710407  1
  Li  Li12  1  0.99214713  0.30187433  0.12957093  1
  Li  Li13  1  0.01199134  0.82521144  0.11872035  1
  Li  Li14  1  0.00536972  0.51060306  0.11593181  1
  Li  Li15  1  0.74895771  0.46348880  0.16391876  1
  Li  Li16  1  0.25184678  0.63686963  0.15521227  1
  Li  Li17  1  0.25184503  0.16066173  0.14704725  1
  Li  Li18  1  0.73354887  0.18373421  0.08621363  1
  Li  Li19  1  0.49851388  0.27397253  0.19940427  1
  Li  Li20  1  0.50352006  0.58997419  0.20350823  1
  Li  Li21  1  0.50235665  0.06487214  0.21155137  1
  Li  Li22  1  0.49993646  0.79832447  0.19025948  1
  Li  Li23  1  0.00387970  0.79851615  0.18999816  1
  Li  Li24  1  0.99755550  0.06538597  0.21156094  1
  Li  Li25  1  0.99723574  0.58965023  0.20357794  1
  Li  Li26  1  0.00275907  0.27427678  0.19976635  1
  Li  Li27  1  0.74978678  0.22610257  0.24782331  1
  Li  Li28  1  0.25034702  0.40068759  0.23912586  1
  Li  Li29  1  0.25015878  0.92352191  0.23018567  1
  Li  Li30  1  0.75340652  0.94012214  0.17157070  1
  Li  Li31  1  0.49813365  0.03710190  0.28233752  1
  Li  Li32  1  0.50191428  0.35308340  0.28719483  1
  Li  Li33  1  0.50333285  0.82817823  0.29547188  1
  Li  Li34  1  0.49698546  0.56184102  0.27415613  1
  Li  Li35  1  0.00226825  0.56193482  0.27410373  1
  Li  Li36  1  0.99770327  0.82843872  0.29537440  1
  Li  Li37  1  0.99837036  0.35300869  0.28712019  1
  Li  Li38  1  0.00237027  0.03744645  0.28236443  1
  Li  Li39  1  0.75073082  0.98969034  0.33038596  1
  Li  Li40  1  0.25142671  0.16460820  0.32201175  1
  Li  Li41  1  0.24902050  0.68765036  0.31399661  1
  Li  Li42  1  0.75062066  0.70269327  0.25581227  1
  Li  Li43  1  0.49684306  0.80026432  0.36612665  1
  Li  Li44  1  0.50238021  0.11709473  0.37016603  1
  Li  Li45  1  0.50009612  0.59153516  0.37919684  1
  Li  Li46  1  0.49775507  0.32587428  0.35791114  1
  Li  Li47  1  0.00045132  0.32565765  0.35778665  1
  Li  Li48  1  0.99704034  0.59173310  0.37961913  1
  Li  Li49  1  0.99822244  0.11711915  0.36992619  1
  Li  Li50  1  0.00206208  0.80074231  0.36595337  1
  Li  Li51  1  0.74885725  0.75327679  0.41419679  1
  Li  Li52  1  0.24999145  0.92861986  0.40561988  1
  Li  Li53  1  0.24630413  0.45116176  0.39815813  1
  Li  Li54  1  0.74957602  0.46789174  0.33924347  1
  Li  Li55  1  0.48011585  0.56401600  0.44948259  1
  Li  Li56  1  0.51405442  0.88297759  0.45240164  1
  Li  Li57  1  0.49029133  0.35280985  0.46501746  1
  Li  Li58  1  0.50253697  0.09016601  0.44002909  1
  Li  Li59  1  0.00554135  0.08965496  0.43966213  1
  Li  Li60  1  0.99308714  0.34972396  0.46233614  1
  Li  Li61  1  0.99724195  0.88074651  0.45370730  1
  Li  Li62  1  0.98602045  0.56739381  0.45043527  1
  Li  Li63  1  0.71679508  0.51321694  0.49331566  1
  Li  Li64  1  0.26276513  0.67325512  0.48962952  1
  Li  Li65  1  0.26479645  0.20803930  0.48300380  1
  Li  Li66  1  0.74583457  0.23146272  0.42262985  1
  Li  Li67  1  0.30524443  0.84529037  0.50278216  1
  Li  Li68  1  0.02098583  0.13927974  0.53323991  1
  Li  Li69  1  0.01375108  0.66041808  0.53554513  1
  Li  Li70  1  0.98367735  0.35096239  0.52206582  1
  Li  Li71  1  0.76014748  0.98963108  0.50335993  1
  P  P72  1  0.77532061  0.91028881  0.06118380  1
  P  P73  1  0.74430928  0.37707292  0.07507498  1
  P  P74  1  0.25130508  0.20173808  0.07759403  1
  P  P75  1  0.26921753  0.66363093  0.08575566  1
  P  P76  1  0.75386813  0.66967852  0.14818282  1
  P  P77  1  0.75116059  0.14278641  0.15812244  1
  P  P78  1  0.25315181  0.95776231  0.16002422  1
  P  P79  1  0.24933376  0.43172610  0.17105485  1
  P  P80  1  0.75000083  0.43288857  0.23245640  1
  P  P81  1  0.75109336  0.90579483  0.24125459  1
  P  P82  1  0.25053163  0.72118486  0.24431296  1
  P  P83  1  0.25044839  0.19387940  0.25394777  1
  P  P84  1  0.75034534  0.19662697  0.31563852  1
  P  P85  1  0.74970293  0.66942138  0.32528203  1
  P  P86  1  0.24879098  0.48465333  0.32824152  1
  P  P87  1  0.25068770  0.95777356  0.33710206  1
  P  P88  1  0.75071098  0.95956840  0.39840494  1
  P  P89  1  0.74558162  0.43372351  0.40955957  1
  P  P90  1  0.24794301  0.24907935  0.41123828  1
  P  P91  1  0.24670221  0.72167312  0.42117367  1
  P  P92  1  0.73067628  0.72750866  0.48366229  1
  P  P93  1  0.74845915  0.18998082  0.49191760  1
  P  P94  1  0.25864262  0.01490182  0.49414239  1
  P  P95  1  0.22342366  0.48162892  0.50842974  1
  O  O96  1  0.48902554  0.64554943  0.06924146  1
  O  O97  1  0.53663262  0.44037441  0.07773911  1
  O  O98  1  0.44647275  0.13603249  0.07559205  1
  O  O99  1  0.03341962  0.14453613  0.07146461  1
  O  O100  1  0.94021984  0.44665716  0.07780256  1
  O  O101  1  0.06980740  0.65309253  0.06403151  1
  O  O102  1  0.78975204  0.80973576  0.04936290  1
  O  O103  1  0.75218938  0.32326131  0.04502605  1
  O  O104  1  0.76733232  0.98091598  0.03527587  1
  O  O105  1  0.24864207  0.27843604  0.05302344  1
  O  O106  1  0.45602737  0.41905699  0.15071762  1
  O  O107  1  0.57705426  0.91704589  0.08400631  1
  O  O108  1  0.54328909  0.20348824  0.16155926  1
  O  O109  1  0.46004179  0.89593900  0.15737963  1
  O  O110  1  0.04661594  0.89588787  0.15643872  1
  O  O111  1  0.95774329  0.20379154  0.16219339  1
  O  O112  1  0.99349554  0.93099742  0.08037491  1
  O  O113  1  0.04245969  0.41995786  0.15073773  1
  O  O114  1  0.74922781  0.57252233  0.13305526  1
  O  O115  1  0.26910278  0.76508117  0.09901629  1
  O  O116  1  0.24001684  0.24445173  0.11058881  1
  O  O117  1  0.75473713  0.09590591  0.12597031  1
  O  O118  1  0.24714182  0.59450932  0.11318813  1
  O  O119  1  0.76137343  0.74608581  0.12279251  1
  O  O120  1  0.74574099  0.30918169  0.10314608  1
  O  O121  1  0.25678647  0.03071850  0.13365678  1
  O  O122  1  0.45708271  0.18124795  0.23356793  1
  O  O123  1  0.54576047  0.68284224  0.16824251  1
  O  O124  1  0.54358790  0.96697032  0.24428065  1
  O  O125  1  0.45770940  0.65979559  0.24130574  1
  O  O126  1  0.04343475  0.65975172  0.24139708  1
  O  O127  1  0.95780308  0.96738286  0.24443668  1
  O  O128  1  0.95899966  0.68049675  0.16892210  1
  O  O129  1  0.04298447  0.18126464  0.23375187  1
  O  O130  1  0.74984080  0.33485940  0.21807191  1
  O  O131  1  0.25119066  0.52969720  0.18556904  1
  O  O132  1  0.24957636  0.00615040  0.19192881  1
  O  O133  1  0.75242316  0.85722397  0.20932680  1
  O  O134  1  0.24970781  0.35708667  0.19689264  1
  O  O135  1  0.74985194  0.50721053  0.20645842  1
  O  O136  1  0.74981193  0.06777207  0.18397146  1
  O  O137  1  0.25070337  0.79419680  0.21789517  1
  O  O138  1  0.45759325  0.94497690  0.31675835  1
  O  O139  1  0.54319440  0.44565033  0.25281338  1
  O  O140  1  0.54247292  0.73074481  0.32828111  1
  O  O141  1  0.45635204  0.42357982  0.32513931  1
  O  O142  1  0.04181660  0.42330142  0.32502217  1
  O  O143  1  0.95664934  0.73094146  0.32813065  1
  O  O144  1  0.95720813  0.44564845  0.25273421  1
  O  O145  1  0.04379052  0.94518805  0.31673478  1
  O  O146  1  0.74997670  0.09886733  0.30097142  1
  O  O147  1  0.25058412  0.29177359  0.26857126  1
  O  O148  1  0.25064762  0.77034366  0.27610695  1
  O  O149  1  0.74956273  0.62004105  0.29352542  1
  O  O150  1  0.25092217  0.11944722  0.27986816  1
  O  O151  1  0.74981803  0.27123526  0.28977280  1
  O  O152  1  0.75071990  0.83223200  0.26749110  1
  O  O153  1  0.24914094  0.55830796  0.30204228  1
  O  O154  1  0.45465195  0.70775511  0.40115762  1
  O  O155  1  0.54379912  0.20942172  0.33603668  1
  O  O156  1  0.53894778  0.49560856  0.41233293  1
  O  O157  1  0.45582773  0.18834490  0.40784028  1
  O  O158  1  0.04113509  0.18816767  0.40727362  1
  O  O159  1  0.95262511  0.49537796  0.41309584  1
  O  O160  1  0.95784221  0.20929711  0.33582054  1
  O  O161  1  0.04151739  0.71037580  0.40045745  1
  O  O162  1  0.74904427  0.86142315  0.38402174  1
  O  O163  1  0.25091970  0.05574405  0.35158179  1
  O  O164  1  0.24775790  0.53325604  0.36016835  1
  O  O165  1  0.74912732  0.38543788  0.37763633  1
  O  O166  1  0.25014352  0.88338681  0.36308992  1
  O  O167  1  0.75146732  0.03404041  0.37252360  1
  O  O168  1  0.74975765  0.59654909  0.35173312  1
  O  O169  1  0.24923137  0.32386903  0.38534834  1
  O  O170  1  0.42225328  0.47424096  0.48573198  1
  O  O171  1  0.54351108  0.97270625  0.41859732  1
  O  O172  1  0.55245887  0.25526915  0.49391789  1
  O  O173  1  0.46765631  0.95238148  0.49136920  1
  O  O174  1  0.06418646  0.94445598  0.49172761  1
  O  O175  1  0.96582689  0.24751843  0.49788248  1
  O  O176  1  0.95684002  0.97153097  0.41887638  1
  O  O177  1  0.00603613  0.46077309  0.48909272  1
  O  O178  1  0.72997056  0.62615869  0.47037993  1
  O  O179  1  0.25196264  0.81912662  0.43605675  1
  O  O180  1  0.24481495  0.29625136  0.44336184  1
  O  O181  1  0.75939118  0.14706932  0.45893435  1
  O  O182  1  0.23781433  0.64589688  0.44676706  1
  O  O183  1  0.75472272  0.79668624  0.45625686  1
  O  O184  1  0.74192354  0.36087329  0.43594824  1
  O  O185  1  0.25391350  0.08243254  0.46602145  1
  O  O186  1  0.51050088  0.74603941  0.50006291  1
  O  O187  1  0.92958243  0.73752685  0.50552372  1
  O  O188  1  0.20937370  0.58228587  0.52015053  1
  O  O189  1  0.25026214  0.06891563  0.52414759  1
  O  O190  1  0.22961148  0.41128557  0.53443734  1
  O  O191  1  0.75239516  0.11327424  0.51650497  1
