# generated using pymatgen
data_Li3PO4
_symmetry_space_group_name_H-M   'P 1'
_cell_length_a   6.15119200
_cell_length_b   14.50933100
_cell_length_c   43.45376800
_cell_angle_alpha   90.00000000
_cell_angle_beta   90.00000000
_cell_angle_gamma   90.00000000
_symmetry_Int_Tables_number   1
_chemical_formula_structural   Li3PO4
_chemical_formula_sum   'Li72 P24 O96'
_cell_volume   3878.23492236
_cell_formula_units_Z   24
loop_
 _symmetry_equiv_pos_site_id
 _symmetry_equiv_pos_as_xyz
  1  'x, y, z'
loop_
 _atom_site_type_symbol
 _atom_site_label
 _atom_site_symmetry_multiplicity
 _atom_site_fract_x
 _atom_site_fract_y
 _atom_site_fract_z
 _atom_site_occupancy
  Li  Li0  1  0.97913007  0.28097785  0.02652129  1
  Li  Li1  1  0.69639353  0.57630100  0.05597069  1
  Li  Li2  1  0.01575226  0.07064040  0.03699798  1
  Li  Li3  1  0.99032374  0.76178029  0.02407156  1
  Li  Li4  1  0.73686164  0.74734857  0.06980187  1
  Li  Li5  1  0.28135362  0.90774009  0.06605043  1
  Li  Li6  1  0.24118246  0.43135874  0.05586525  1
  Li  Li7  1  0.73329792  0.21279221  0.07648910  1
  Li  Li8  1  0.48747743  0.53809457  0.10667337  1
  Li  Li9  1  0.51657855  0.85524860  0.10983848  1
  Li  Li10  1  0.49635647  0.33080871  0.11904847  1
  Li  Li11  1  0.50764028  0.06735513  0.09451160  1
  Li  Li12  1  0.00446313  0.07135915  0.09703318  1
  Li  Li13  1  0.99124241  0.33163507  0.11966694  1
  Li  Li14  1  0.01241081  0.85284775  0.10892273  1
  Li  Li15  1  0.00505538  0.53997502  0.10566797  1
  Li  Li16  1  0.74997914  0.49216641  0.15375871  1
  Li  Li17  1  0.25073760  0.66639767  0.14531146  1
  Li  Li18  1  0.25163465  0.19017304  0.13630123  1
  Li  Li19  1  0.75183367  0.96956309  0.16094820  1
  Li  Li20  1  0.49804890  0.30353676  0.18893313  1
  Li  Li21  1  0.50378671  0.61919232  0.19333657  1
  Li  Li22  1  0.50182279  0.09419891  0.20145146  1
  Li  Li23  1  0.49847066  0.82832883  0.18006896  1
  Li  Li24  1  0.00261161  0.82819819  0.17998022  1
  Li  Li25  1  0.99802933  0.09435256  0.20142941  1
  Li  Li26  1  0.99829674  0.61882556  0.19355460  1
  Li  Li27  1  0.00394673  0.30321163  0.18936304  1
  Li  Li28  1  0.75032011  0.25573530  0.23707622  1
  Li  Li29  1  0.25120624  0.42987533  0.22918195  1
  Li  Li30  1  0.25004770  0.95255079  0.22001602  1
  Li  Li31  1  0.75079389  0.73238565  0.24512035  1
  Li  Li32  1  0.49825328  0.06651758  0.27208051  1
  Li  Li33  1  0.50195212  0.38171939  0.27709021  1
  Li  Li34  1  0.50259145  0.85700962  0.28525431  1
  Li  Li35  1  0.49779404  0.59060468  0.26399804  1
  Li  Li36  1  0.00209699  0.59056111  0.26401146  1
  Li  Li37  1  0.99859743  0.85713748  0.28524848  1
  Li  Li38  1  0.99816067  0.38157522  0.27705523  1
  Li  Li39  1  0.00196923  0.06661298  0.27208520  1
  Li  Li40  1  0.74998307  0.01839555  0.32001284  1
  Li  Li41  1  0.25064032  0.19373010  0.31171566  1
  Li  Li42  1  0.24952079  0.71552559  0.30379134  1
  Li  Li43  1  0.74969113  0.49596216  0.32892215  1
  Li  Li44  1  0.49621905  0.82923729  0.35577757  1
  Li  Li45  1  0.50206656  0.14599583  0.35977311  1
  Li  Li46  1  0.50053051  0.62077332  0.36909899  1
  Li  Li47  1  0.49907179  0.35424360  0.34770664  1
  Li  Li48  1  0.00120285  0.35400288  0.34776620  1
  Li  Li49  1  0.99682788  0.62071922  0.36931962  1
  Li  Li50  1  0.99844046  0.14599399  0.35964459  1
  Li  Li51  1  0.00147397  0.83010365  0.35561577  1
  Li  Li52  1  0.74863201  0.78259668  0.40379916  1
  Li  Li53  1  0.24965263  0.95760974  0.39509532  1
  Li  Li54  1  0.24786339  0.48028055  0.38783194  1
  Li  Li55  1  0.74949718  0.25970354  0.41229816  1
  Li  Li56  1  0.48009531  0.59425036  0.43909518  1
  Li  Li57  1  0.51347088  0.91199185  0.44200998  1
  Li  Li58  1  0.49507061  0.38215431  0.45430756  1
  Li  Li59  1  0.50301921  0.11885790  0.42968073  1
  Li  Li60  1  0.00665398  0.11832946  0.42930303  1
  Li  Li61  1  0.99626432  0.37749061  0.45188056  1
  Li  Li62  1  0.99609600  0.90991005  0.44340037  1
  Li  Li63  1  0.98600654  0.59556187  0.44018653  1
  Li  Li64  1  0.71522926  0.54188538  0.48264129  1
  Li  Li65  1  0.25953188  0.70306090  0.47912026  1
  Li  Li66  1  0.26868838  0.23790621  0.47226635  1
  Li  Li67  1  0.76091780  0.01898349  0.49298813  1
  Li  Li68  1  0.30344156  0.87441062  0.49253460  1
  Li  Li69  1  0.02550497  0.16894764  0.52242116  1
  Li  Li70  1  0.01106574  0.68902253  0.52482682  1
  Li  Li71  1  0.98224488  0.37977475  0.51150725  1
  P  P72  1  0.26899356  0.69304975  0.07554392  1
  P  P73  1  0.77608405  0.93936439  0.05086996  1
  P  P74  1  0.74225302  0.40638983  0.06503778  1
  P  P75  1  0.25062788  0.23114865  0.06746176  1
  P  P76  1  0.24955606  0.46102111  0.16095793  1
  P  P77  1  0.75305024  0.69873061  0.13818446  1
  P  P78  1  0.75054622  0.17191614  0.14797379  1
  P  P79  1  0.25251429  0.98678133  0.14977470  1
  P  P80  1  0.25028285  0.22310139  0.24366748  1
  P  P81  1  0.75046996  0.46201289  0.22223641  1
  P  P82  1  0.75051672  0.93528432  0.23104474  1
  P  P83  1  0.25062433  0.75021580  0.23411721  1
  P  P84  1  0.25008184  0.98678844  0.32664712  1
  P  P85  1  0.75012416  0.22533958  0.30536027  1
  P  P86  1  0.74959462  0.69800782  0.31501960  1
  P  P87  1  0.24928957  0.51317889  0.31806988  1
  P  P88  1  0.24577835  0.75083021  0.41082748  1
  P  P89  1  0.75021878  0.98844789  0.38797956  1
  P  P90  1  0.74701796  0.46258618  0.39923068  1
  P  P91  1  0.25029954  0.27780825  0.40091305  1
  P  P92  1  0.22202272  0.51049425  0.49774753  1
  P  P93  1  0.72903800  0.75674112  0.47326998  1
  P  P94  1  0.75089502  0.21882090  0.48147002  1
  P  P95  1  0.25958448  0.04391956  0.48377122  1
  O  O96  1  0.48918758  0.67499740  0.05911982  1
  O  O97  1  0.57669722  0.94646566  0.07348241  1
  O  O98  1  0.53383703  0.46930141  0.06772486  1
  O  O99  1  0.44563176  0.16531764  0.06563252  1
  O  O100  1  0.03260487  0.17409361  0.06134773  1
  O  O101  1  0.93758331  0.47630045  0.06765021  1
  O  O102  1  0.99308625  0.96064602  0.07023380  1
  O  O103  1  0.06998214  0.68241020  0.05372592  1
  O  O104  1  0.79168580  0.83859565  0.03929454  1
  O  O105  1  0.75078662  0.35259382  0.03499544  1
  O  O106  1  0.76978890  0.00951208  0.02480236  1
  O  O107  1  0.24864166  0.30773659  0.04285024  1
  O  O108  1  0.45622491  0.44821629  0.14064320  1
  O  O109  1  0.54468016  0.71234004  0.15813731  1
  O  O110  1  0.54273333  0.23268804  0.15131810  1
  O  O111  1  0.45912740  0.92485413  0.14685351  1
  O  O112  1  0.04551887  0.92513030  0.14624153  1
  O  O113  1  0.95741885  0.23283356  0.15192544  1
  O  O114  1  0.95808212  0.71007573  0.15893196  1
  O  O115  1  0.04284266  0.44923274  0.14060226  1
  O  O116  1  0.74901967  0.60133508  0.12328046  1
  O  O117  1  0.26811660  0.79456748  0.08871560  1
  O  O118  1  0.23896746  0.27435374  0.10038416  1
  O  O119  1  0.75360963  0.12485319  0.11584172  1
  O  O120  1  0.24627253  0.62421812  0.10305538  1
  O  O121  1  0.76103312  0.77452562  0.11258199  1
  O  O122  1  0.74490843  0.33864868  0.09313328  1
  O  O123  1  0.25566931  0.05999214  0.12348657  1
  O  O124  1  0.45688935  0.21062838  0.22327780  1
  O  O125  1  0.54378526  0.47446623  0.24264640  1
  O  O126  1  0.54325146  0.99657768  0.23410220  1
  O  O127  1  0.45786617  0.68894250  0.23105134  1
  O  O128  1  0.04358700  0.68877341  0.23122522  1
  O  O129  1  0.95735436  0.99681489  0.23415960  1
  O  O130  1  0.95746842  0.47438068  0.24257682  1
  O  O131  1  0.04300933  0.21050577  0.22342722  1
  O  O132  1  0.75017084  0.36423841  0.20763297  1
  O  O133  1  0.25134014  0.55903682  0.17543057  1
  O  O134  1  0.24993251  0.03466174  0.18175655  1
  O  O135  1  0.75105319  0.88671538  0.19911156  1
  O  O136  1  0.24960841  0.38646681  0.18680338  1
  O  O137  1  0.75041509  0.53664106  0.19634459  1
  O  O138  1  0.74937451  0.09699568  0.17382201  1
  O  O139  1  0.25020375  0.82345451  0.20776170  1
  O  O140  1  0.45692141  0.97392306  0.30632375  1
  O  O141  1  0.54324384  0.23828323  0.32567701  1
  O  O142  1  0.54234880  0.75934563  0.31803079  1
  O  O143  1  0.45663756  0.45197451  0.31502478  1
  O  O144  1  0.04220935  0.45185831  0.31492756  1
  O  O145  1  0.95658439  0.75947666  0.31793760  1
  O  O146  1  0.95729436  0.23822495  0.32561359  1
  O  O147  1  0.04311401  0.97403466  0.30633509  1
  O  O148  1  0.74996794  0.12746664  0.29080337  1
  O  O149  1  0.25032582  0.32087237  0.25836748  1
  O  O150  1  0.25082721  0.79907726  0.26595128  1
  O  O151  1  0.74962294  0.64891970  0.28322052  1
  O  O152  1  0.25046329  0.14862330  0.26956710  1
  O  O153  1  0.74992765  0.29970053  0.27941925  1
  O  O154  1  0.75049067  0.86171723  0.25727551  1
  O  O155  1  0.24977482  0.58653381  0.29177966  1
  O  O156  1  0.45438313  0.73681382  0.39093880  1
  O  O157  1  0.54306415  0.00151459  0.40816804  1
  O  O158  1  0.54031416  0.52438234  0.40219205  1
  O  O159  1  0.45801506  0.21706745  0.39742395  1
  O  O160  1  0.04333764  0.21691151  0.39700876  1
  O  O161  1  0.95374994  0.52440162  0.40267649  1
  O  O162  1  0.95653700  0.00037731  0.40841361  1
  O  O163  1  0.04107550  0.73966372  0.39003283  1
  O  O164  1  0.74839954  0.89032599  0.37359424  1
  O  O165  1  0.25038484  0.08474089  0.34113135  1
  O  O166  1  0.24844147  0.56211254  0.34993692  1
  O  O167  1  0.74968267  0.41426399  0.36733454  1
  O  O168  1  0.24972546  0.91248542  0.35265542  1
  O  O169  1  0.75101683  0.06297810  0.36212492  1
  O  O170  1  0.74945648  0.62498166  0.34142753  1
  O  O171  1  0.25063670  0.35272490  0.37508476  1
  O  O172  1  0.42139227  0.50302824  0.47515551  1
  O  O173  1  0.50854996  0.77502618  0.48958898  1
  O  O174  1  0.55596739  0.28466806  0.48349742  1
  O  O175  1  0.46810123  0.98121789  0.48085747  1
  O  O176  1  0.06447333  0.97378432  0.48127960  1
  O  O177  1  0.96903691  0.27602679  0.48730482  1
  O  O178  1  0.92777887  0.76729537  0.49514555  1
  O  O179  1  0.00496006  0.48927949  0.47836804  1
  O  O180  1  0.72956857  0.65527663  0.46007395  1
  O  O181  1  0.25086162  0.84823759  0.42571704  1
  O  O182  1  0.24804800  0.32478979  0.43304578  1
  O  O183  1  0.76022474  0.17556678  0.44852864  1
  O  O184  1  0.23635708  0.67494787  0.43638421  1
  O  O185  1  0.75340390  0.82576816  0.44584006  1
  O  O186  1  0.74482489  0.38941930  0.42553385  1
  O  O187  1  0.25472735  0.11182047  0.45573709  1
  O  O188  1  0.20667782  0.61125760  0.50929519  1
  O  O189  1  0.25254142  0.09723448  0.51389543  1
  O  O190  1  0.22792266  0.44045911  0.52384683  1
  O  O191  1  0.75497878  0.14241666  0.50613743  1
