# generated using pymatgen
data_Li3PO4
_symmetry_space_group_name_H-M   'P 1'
_cell_length_a   6.15119200
_cell_length_b   11.66978300
_cell_length_c   45.02262600
_cell_angle_alpha   90.00000000
_cell_angle_beta   90.00000000
_cell_angle_gamma   90.00000000
_symmetry_Int_Tables_number   1
_chemical_formula_structural   Li3PO4
_chemical_formula_sum   'Li60 P20 O80'
_cell_volume   3231.86257628
_cell_formula_units_Z   20
loop_
 _symmetry_equiv_pos_site_id
 _symmetry_equiv_pos_as_xyz
  1  'x, y, z'
loop_
 _atom_site_type_symbol
 _atom_site_label
 _atom_site_symmetry_multiplicity
 _atom_site_fract_x
 _atom_site_fract_y
 _atom_site_fract_z
 _atom_site_occupancy
  Li  Li0  1  0.50043476  0.19401765  0.01000069  1
  Li  Li1  1  0.46185739  0.54168231  0.06512484  1
  Li  Li2  1  0.48842997  0.19497694  0.08005755  1
  Li  Li3  1  0.01146544  0.19469063  0.08014643  1
  Li  Li4  1  0.03147142  0.54213129  0.06549898  1
  Li  Li5  1  0.99920930  0.19211258  0.01005284  1
  Li  Li6  1  0.74983308  0.77990777  0.07139843  1
  Li  Li7  1  0.24994086  0.96902702  0.06107528  1
  Li  Li8  1  0.75001953  0.29703103  0.05096675  1
  Li  Li9  1  0.50218065  0.59481050  0.13363570  1
  Li  Li10  1  0.50520927  0.96399436  0.10727252  1
  Li  Li11  1  0.50271814  0.35946503  0.17112871  1
  Li  Li12  1  0.50145647  0.01460476  0.17640283  1
  Li  Li13  1  0.99868230  0.01459143  0.17639984  1
  Li  Li14  1  0.99729194  0.35950269  0.17112339  1
  Li  Li15  1  0.99478538  0.96395429  0.10726387  1
  Li  Li16  1  0.99782058  0.59484015  0.13365047  1
  Li  Li17  1  0.74995818  0.59108175  0.18373305  1
  Li  Li18  1  0.24996578  0.78393606  0.15863299  1
  Li  Li19  1  0.24988501  0.38783222  0.10949652  1
  Li  Li20  1  0.75001684  0.16792033  0.14473481  1
  Li  Li21  1  0.49733674  0.40757389  0.23708130  1
  Li  Li22  1  0.50265978  0.78494753  0.20800932  1
  Li  Li23  1  0.50163849  0.17412960  0.26973042  1
  Li  Li24  1  0.49874092  0.83354000  0.27608514  1
  Li  Li25  1  0.00240650  0.83405459  0.27615251  1
  Li  Li26  1  0.99867928  0.17413094  0.26975080  1
  Li  Li27  1  0.99749260  0.78491829  0.20804210  1
  Li  Li28  1  0.00277384  0.40758296  0.23707732  1
  Li  Li29  1  0.75010496  0.40420627  0.28628156  1
  Li  Li30  1  0.25046928  0.60218458  0.25953327  1
  Li  Li31  1  0.25004111  0.21072403  0.20175403  1
  Li  Li32  1  0.75107395  0.97964594  0.24525703  1
  Li  Li33  1  0.49827190  0.22366253  0.33795260  1
  Li  Li34  1  0.50465598  0.59916954  0.30862628  1
  Li  Li35  1  0.49931250  0.99085255  0.36953973  1
  Li  Li36  1  0.49691456  0.64855358  0.37427164  1
  Li  Li37  1  0.00362207  0.64852380  0.37416239  1
  Li  Li38  1  0.00072809  0.99087925  0.36963556  1
  Li  Li39  1  0.99718849  0.59977888  0.30804198  1
  Li  Li40  1  0.00317576  0.22288782  0.33811865  1
  Li  Li41  1  0.75013633  0.22128112  0.38744626  1
  Li  Li42  1  0.25062911  0.41722123  0.36173600  1
  Li  Li43  1  0.25126500  0.02870953  0.30044574  1
  Li  Li44  1  0.75022695  0.79719910  0.34352345  1
  Li  Li45  1  0.49647810  0.04282153  0.43846679  1
  Li  Li46  1  0.49866732  0.41155752  0.41216574  1
  Li  Li47  1  0.51160721  0.80875232  0.46600169  1
  Li  Li48  1  0.53919056  0.46605947  0.48074619  1
  Li  Li49  1  0.96735548  0.46567681  0.48006051  1
  Li  Li50  1  0.98877550  0.81365704  0.46493012  1
  Li  Li51  1  0.00313741  0.41184197  0.41197306  1
  Li  Li52  1  0.00400337  0.04362661  0.43840615  1
  Li  Li53  1  0.75005295  0.03932057  0.48481200  1
  Li  Li54  1  0.25207321  0.22824020  0.47411060  1
  Li  Li55  1  0.25003671  0.83989012  0.40117014  1
  Li  Li56  1  0.75019725  0.61797938  0.43583422  1
  Li  Li57  1  0.49200404  0.81148424  0.53580209  1
  Li  Li58  1  0.99626278  0.81708969  0.53510044  1
  Li  Li59  1  0.24182020  0.70688385  0.49457234  1
  P  P60  1  0.24982193  0.73795664  0.09219780  1
  P  P61  1  0.74939636  0.01637281  0.04741502  1
  P  P62  1  0.24876355  0.34482130  0.03110968  1
  P  P63  1  0.25000574  0.55989637  0.19342776  1
  P  P64  1  0.74994596  0.81543339  0.14920186  1
  P  P65  1  0.74963289  0.38428950  0.11196226  1
  P  P66  1  0.25008128  0.16825753  0.13487083  1
  P  P67  1  0.25024559  0.37530583  0.29501830  1
  P  P68  1  0.75022095  0.63219241  0.25053032  1
  P  P69  1  0.75018858  0.20352794  0.21285147  1
  P  P70  1  0.25045001  0.98743975  0.23316717  1
  P  P71  1  0.25069639  0.19102787  0.39647359  1
  P  P72  1  0.75086412  0.44751336  0.35231237  1
  P  P73  1  0.75068772  0.02082829  0.31267671  1
  P  P74  1  0.25025845  0.80373673  0.33273656  1
  P  P75  1  0.25231409  0.99069427  0.49795926  1
  P  P76  1  0.75098443  0.26971406  0.45358413  1
  P  P77  1  0.74937959  0.83837625  0.41077635  1
  P  P78  1  0.25019941  0.62249454  0.43355262  1
  P  P79  1  0.74753525  0.66213664  0.51452606  1
  O  O80  1  0.45818370  0.69608003  0.07603021  1
  O  O81  1  0.53942570  0.04348917  0.06669129  1
  O  O82  1  0.45962679  0.29191730  0.04486849  1
  O  O83  1  0.04022839  0.28996899  0.04496405  1
  O  O84  1  0.95980849  0.04335544  0.06661983  1
  O  O85  1  0.04099416  0.69641338  0.07607508  1
  O  O86  1  0.74929592  0.89124493  0.03857025  1
  O  O87  1  0.25010808  0.87161537  0.09513006  1
  O  O88  1  0.24653745  0.47429266  0.03847969  1
  O  O89  1  0.74985733  0.27433975  0.09263819  1
  O  O90  1  0.74907962  0.10573713  0.02082128  1
  O  O91  1  0.24899814  0.29809830  0.99870954  1
  O  O92  1  0.45605440  0.52165821  0.17582272  1
  O  O93  1  0.54353557  0.85348312  0.16702989  1
  O  O94  1  0.54192550  0.45777182  0.10519690  1
  O  O95  1  0.45790191  0.09310863  0.13729375  1
  O  O96  1  0.04221529  0.09311344  0.13727209  1
  O  O97  1  0.95720974  0.45797980  0.10520749  1
  O  O98  1  0.95630202  0.85346669  0.16704618  1
  O  O99  1  0.04378977  0.52168909  0.17585367  1
  O  O100  1  0.74989935  0.68255527  0.14640390  1
  O  O101  1  0.25003163  0.69210769  0.19736279  1
  O  O102  1  0.25000417  0.26509842  0.15876563  1
  O  O103  1  0.75018583  0.11063944  0.18815147  1
  O  O104  1  0.24983723  0.68475554  0.12439673  1
  O  O105  1  0.74998401  0.87287309  0.11809459  1
  O  O106  1  0.74989403  0.34411714  0.14493959  1
  O  O107  1  0.25012991  0.22825305  0.10401295  1
  O  O108  1  0.45721366  0.33653221  0.27766427  1
  O  O109  1  0.54364865  0.67091591  0.26798724  1
  O  O110  1  0.54320800  0.28000969  0.20982680  1
  O  O111  1  0.45781691  0.91139435  0.23631914  1
  O  O112  1  0.04318794  0.91129476  0.23632607  1
  O  O113  1  0.95700292  0.28009158  0.20980732  1
  O  O114  1  0.95745004  0.67107436  0.26783888  1
  O  O115  1  0.04325960  0.33666347  0.27765269  1
  O  O116  1  0.75021781  0.49940283  0.24764359  1
  O  O117  1  0.25066159  0.50813925  0.29785443  1
  O  O118  1  0.25036259  0.08184801  0.25759536  1
  O  O119  1  0.75052472  0.92631465  0.28826038  1
  O  O120  1  0.25014160  0.50097096  0.22468684  1
  O  O121  1  0.74988271  0.68906263  0.21918333  1
  O  O122  1  0.75031018  0.14588631  0.24409886  1
  O  O123  1  0.25023476  0.04447950  0.20183278  1
  O  O124  1  0.45694118  0.15276425  0.37865637  1
  O  O125  1  0.54442776  0.48612595  0.36978454  1
  O  O126  1  0.54367084  0.09707566  0.30949566  1
  O  O127  1  0.45726292  0.72724728  0.33564625  1
  O  O128  1  0.04329548  0.72714995  0.33550036  1
  O  O129  1  0.95814658  0.09678048  0.30954599  1
  O  O130  1  0.95705709  0.48601650  0.36984296  1
  O  O131  1  0.04389835  0.15263469  0.37878070  1
  O  O132  1  0.75076769  0.31523120  0.34861361  1
  O  O133  1  0.25076381  0.32399362  0.39909005  1
  O  O134  1  0.24975491  0.89563900  0.35768348  1
  O  O135  1  0.75040674  0.74280243  0.38655317  1
  O  O136  1  0.25024241  0.31883727  0.32640812  1
  O  O137  1  0.75108359  0.50587032  0.32098325  1
  O  O138  1  0.75026324  0.96342278  0.34398867  1
  O  O139  1  0.25072522  0.86244193  0.30163753  1
  O  O140  1  0.46247058  0.96160667  0.47891563  1
  O  O141  1  0.54289082  0.31206668  0.46972023  1
  O  O142  1  0.54220217  0.91395240  0.40841849  1
  O  O143  1  0.45788049  0.54897622  0.44031596  1
  O  O144  1  0.04279452  0.54859947  0.44029949  1
  O  O145  1  0.95743592  0.91363738  0.40872978  1
  O  O146  1  0.96000103  0.31108232  0.46966131  1
  O  O147  1  0.04138150  0.96480374  0.47876776  1
  O  O148  1  0.74977016  0.13608137  0.45067431  1
  O  O149  1  0.25583765  0.11604664  0.50663187  1
  O  O150  1  0.24899575  0.73208968  0.45299387  1
  O  O151  1  0.75607762  0.53254940  0.50736084  1
  O  O152  1  0.25090824  0.13413647  0.42765516  1
  O  O153  1  0.75099684  0.32237367  0.42133062  1
  O  O154  1  0.74848758  0.77724011  0.44147131  1
  O  O155  1  0.25018808  0.66341921  0.40064096  1
  O  O156  1  0.53192599  0.71094649  0.50110273  1
  O  O157  1  0.95167365  0.71970503  0.50018318  1
  O  O158  1  0.24895285  0.90209354  0.52472543  1
  O  O159  1  0.74874210  0.70971271  0.54683133  1
