# generated using pymatgen
data_Li3PO4
_symmetry_space_group_name_H-M   'P 1'
_cell_length_a   7.91303400
_cell_length_b   11.66978227
_cell_length_c   43.59685200
_cell_angle_alpha   90.00000000
_cell_angle_beta   90.00000000
_cell_angle_gamma   74.43479159
_symmetry_Int_Tables_number   1
_chemical_formula_structural   Li3PO4
_chemical_formula_sum   'Li66 P22 O88'
_cell_volume   3878.23441823
_cell_formula_units_Z   22
loop_
 _symmetry_equiv_pos_site_id
 _symmetry_equiv_pos_as_xyz
  1  'x, y, z'
loop_
 _atom_site_type_symbol
 _atom_site_label
 _atom_site_symmetry_multiplicity
 _atom_site_fract_x
 _atom_site_fract_y
 _atom_site_fract_z
 _atom_site_occupancy
  Li  Li0  1  0.23476024  0.72272058  0.07023664  1
  Li  Li1  1  0.37945154  0.29132483  0.02983337  1
  Li  Li2  1  0.74902905  0.28776936  0.05665834  1
  Li  Li3  1  0.76858680  0.58895886  0.05223030  1
  Li  Li4  1  0.98634282  0.98913241  0.06934578  1
  Li  Li5  1  0.14758460  0.53375840  0.02689130  1
  Li  Li6  1  0.87544884  0.62647475  0.14808712  1
  Li  Li7  1  0.97502799  0.98161016  0.12694010  1
  Li  Li8  1  0.10177093  0.52869070  0.09339854  1
  Li  Li9  1  0.09280331  0.19667334  0.09589639  1
  Li  Li10  1  0.40576743  0.13512470  0.14140934  1
  Li  Li11  1  0.42954114  0.47253531  0.13579509  1
  Li  Li12  1  0.61811594  0.02074569  0.09258848  1
  Li  Li13  1  0.54856041  0.68459136  0.10625025  1
  Li  Li14  1  0.21591192  0.74374058  0.12917984  1
  Li  Li15  1  0.62845861  0.85979068  0.14813060  1
  Li  Li16  1  0.83509538  0.43357393  0.09778450  1
  Li  Li17  1  0.35826773  0.29154234  0.09454825  1
  Li  Li18  1  0.52262461  0.50412821  0.23302711  1
  Li  Li19  1  0.62182480  0.86540647  0.21025032  1
  Li  Li20  1  0.75900796  0.41175489  0.17637089  1
  Li  Li21  1  0.73305507  0.07674728  0.18228136  1
  Li  Li22  1  0.06139662  0.01664206  0.22442003  1
  Li  Li23  1  0.08154400  0.35352596  0.21835999  1
  Li  Li24  1  0.29684354  0.92539646  0.16732596  1
  Li  Li25  1  0.19922058  0.56357998  0.19157389  1
  Li  Li26  1  0.86531065  0.62565487  0.21097331  1
  Li  Li27  1  0.28082051  0.74399501  0.23193438  1
  Li  Li28  1  0.48691467  0.31513111  0.18165151  1
  Li  Li29  1  0.00646448  0.17214374  0.17714901  1
  Li  Li30  1  0.17295865  0.38584920  0.31659589  1
  Li  Li31  1  0.27377113  0.74660577  0.29391303  1
  Li  Li32  1  0.41059127  0.29267932  0.26045709  1
  Li  Li33  1  0.38381933  0.95861887  0.26627649  1
  Li  Li34  1  0.71207639  0.89817527  0.30840680  1
  Li  Li35  1  0.73279636  0.23441355  0.30210625  1
  Li  Li36  1  0.94607630  0.80511672  0.25197914  1
  Li  Li37  1  0.85060834  0.44564398  0.27497889  1
  Li  Li38  1  0.51578388  0.50522870  0.29506060  1
  Li  Li39  1  0.92948312  0.62716666  0.31578942  1
  Li  Li40  1  0.13739348  0.19744930  0.26555759  1
  Li  Li41  1  0.65766248  0.05392249  0.26142388  1
  Li  Li42  1  0.82035620  0.26955881  0.39982347  1
  Li  Li43  1  0.92160187  0.62526690  0.37875473  1
  Li  Li44  1  0.06132008  0.17407047  0.34421774  1
  Li  Li45  1  0.03714866  0.84008624  0.35003895  1
  Li  Li46  1  0.36549555  0.77868254  0.39057578  1
  Li  Li47  1  0.38822882  0.11681314  0.38565919  1
  Li  Li48  1  0.59676616  0.68711291  0.33500557  1
  Li  Li49  1  0.49810878  0.32628641  0.35963315  1
  Li  Li50  1  0.16622546  0.39103351  0.37863281  1
  Li  Li51  1  0.57976617  0.50735254  0.39769107  1
  Li  Li52  1  0.78851506  0.07969658  0.34966032  1
  Li  Li53  1  0.30952141  0.93664317  0.34505603  1
  Li  Li54  1  0.56072430  0.52942907  0.45606569  1
  Li  Li55  1  0.70115462  0.05488881  0.43087032  1
  Li  Li56  1  0.69260966  0.72323593  0.43328191  1
  Li  Li57  1  0.02816980  0.65968239  0.47439300  1
  Li  Li58  1  0.04507335  0.96438925  0.46974304  1
  Li  Li59  1  0.24806396  0.56653658  0.42014434  1
  Li  Li60  1  0.17555678  0.23008234  0.43427236  1
  Li  Li61  1  0.80653535  0.26312366  0.45753287  1
  Li  Li62  1  0.43603859  0.95904087  0.43194794  1
  Li  Li63  1  0.96009331  0.81752644  0.42897721  1
  Li  Li64  1  0.41549578  0.95947339  0.49623182  1
  Li  Li65  1  0.64482063  0.71643738  0.49995321  1
  P  P66  1  0.45296839  0.48947824  0.06694708  1
  P  P67  1  0.06655057  0.34264813  0.04087771  1
  P  P68  1  0.86456056  0.77288971  0.09124509  1
  P  P69  1  0.33709657  0.94697912  0.09755326  1
  P  P70  1  0.11833362  0.37416110  0.14987036  1
  P  P71  1  0.72308248  0.22932753  0.12530728  1
  P  P72  1  0.51029512  0.65911895  0.17700881  1
  P  P73  1  0.98595057  0.82938896  0.18260914  1
  P  P74  1  0.77113798  0.25626711  0.23344133  1
  P  P75  1  0.37271233  0.11339104  0.20946967  1
  P  P76  1  0.15890910  0.54076926  0.26088102  1
  P  P77  1  0.63670806  0.71042021  0.26601368  1
  P  P78  1  0.42210960  0.13827297  0.31744237  1
  P  P79  1  0.02400583  0.99496909  0.29324048  1
  P  P80  1  0.80989481  0.42174518  0.34422786  1
  P  P81  1  0.28549604  0.59178981  0.34976781  1
  P  P82  1  0.07179578  0.02198368  0.40131089  1
  P  P83  1  0.67714515  0.87725217  0.37680759  1
  P  P84  1  0.45743521  0.30438354  0.42924532  1
  P  P85  1  0.93065817  0.47785146  0.43542230  1
  P  P86  1  0.72902204  0.90726426  0.48569527  1
  P  P87  1  0.34111738  0.76155368  0.45949716  1
  O  O88  1  0.32332013  0.58525670  0.04732354  1
  O  O89  1  0.21118284  0.26371897  0.06224357  1
  O  O90  1  0.93181391  0.27730468  0.03194734  1
  O  O91  1  0.60669949  0.53915692  0.07866987  1
  O  O92  1  0.81383919  0.73410679  0.05995853  1
  O  O93  1  0.97872086  0.46373080  0.05897115  1
  O  O94  1  0.52405226  0.37350115  0.04843941  1
  O  O95  1  0.44000134  0.98300392  0.07169025  1
  O  O96  1  0.16536214  0.38067245  0.01345808  1
  O  O97  1  0.05873788  0.70311530  0.09873833  1
  O  O98  1  0.13905259  0.02231929  0.09700419  1
  O  O99  1  0.99356484  0.47145217  0.12954468  1
  O  O100  1  0.84622956  0.13160179  0.14554236  1
  O  O101  1  0.57862636  0.17743458  0.11089397  1
  O  O102  1  0.26309272  0.42498044  0.16455348  1
  O  O103  1  0.41633436  0.97055118  0.12959119  1
  O  O104  1  0.43746860  0.63445105  0.14516642  1
  O  O105  1  0.33804957  0.81274600  0.09609355  1
  O  O106  1  0.85141157  0.91081990  0.09205192  1
  O  O107  1  0.63671243  0.33973258  0.14541513  1
  O  O108  1  0.20449178  0.26368813  0.12993496  1
  O  O109  1  0.74692013  0.74476040  0.11771266  1
  O  O110  1  0.09570787  0.86834907  0.15685503  1
  O  O111  1  0.35152664  0.46086074  0.09540233  1
  O  O112  1  0.83127617  0.26591966  0.09882184  1
  O  O113  1  0.70580144  0.58556516  0.17967151  1
  O  O114  1  0.79058588  0.90305976  0.17944425  1
  O  O115  1  0.64735711  0.35439194  0.21333778  1
  O  O116  1  0.49585501  0.01530868  0.22963985  1
  O  O117  1  0.22750127  0.06328513  0.19474602  1
  O  O118  1  0.91683284  0.30642345  0.24796806  1
  O  O119  1  0.05880777  0.85349018  0.21448917  1
  O  O120  1  0.08455428  0.51621419  0.22912242  1
  O  O121  1  0.99889703  0.69460881  0.17926240  1
  O  O122  1  0.49686718  0.79407392  0.18009221  1
  O  O123  1  0.28696868  0.22361782  0.22960435  1
  O  O124  1  0.85646585  0.14610100  0.21323281  1
  O  O125  1  0.40087705  0.62066301  0.20297532  1
  O  O126  1  0.74591034  0.74819854  0.23995750  1
  O  O127  1  0.00895291  0.33816902  0.17617739  1
  O  O128  1  0.48240499  0.14979148  0.18325641  1
  O  O129  1  0.35401894  0.46609715  0.26364680  1
  O  O130  1  0.44156043  0.78498533  0.26326252  1
  O  O131  1  0.29898993  0.23627099  0.29724387  1
  O  O132  1  0.14827379  0.89694994  0.31332477  1
  O  O133  1  0.87824597  0.94475591  0.27879239  1
  O  O134  1  0.56757402  0.18829139  0.33209349  1
  O  O135  1  0.71105767  0.73523976  0.29774975  1
  O  O136  1  0.73752794  0.39720385  0.31232980  1
  O  O137  1  0.64797939  0.57576721  0.26313630  1
  O  O138  1  0.14805664  0.67537024  0.26379208  1
  O  O139  1  0.93844185  0.10509764  0.31344083  1
  O  O140  1  0.50745316  0.02801769  0.29726834  1
  O  O141  1  0.04954579  0.50336539  0.28696488  1
  O  O142  1  0.39546573  0.62976889  0.32382380  1
  O  O143  1  0.66194169  0.21985711  0.25975275  1
  O  O144  1  0.13277309  0.03163291  0.26692103  1
  O  O145  1  0.00507898  0.34781918  0.34743311  1
  O  O146  1  0.09032173  0.66599328  0.34707837  1
  O  O147  1  0.94887378  0.11984066  0.38110154  1
  O  O148  1  0.80176092  0.78003872  0.39717511  1
  O  O149  1  0.53285381  0.82617835  0.36199932  1
  O  O150  1  0.21593793  0.07383268  0.41590111  1
  O  O151  1  0.35850842  0.61632074  0.38159838  1
  O  O152  1  0.37843220  0.28103221  0.39719142  1
  O  O153  1  0.29809299  0.45699234  0.34673514  1
  O  O154  1  0.79739188  0.55647568  0.34751802  1
  O  O155  1  0.59001040  0.98758535  0.39672143  1
  O  O156  1  0.15894335  0.91190838  0.38115307  1
  O  O157  1  0.69963503  0.38310596  0.36995967  1
  O  O158  1  0.04899121  0.50611657  0.40910202  1
  O  O159  1  0.31250534  0.10205808  0.34368071  1
  O  O160  1  0.78684152  0.91341726  0.35056734  1
  O  O161  1  0.65538844  0.22892226  0.42977412  1
  O  O162  1  0.73686726  0.54838283  0.42787208  1
  O  O163  1  0.58446548  0.98577689  0.46418762  1
  O  O164  1  0.47057306  0.66601821  0.47923323  1
  O  O165  1  0.18798646  0.71137061  0.44777163  1
  O  O166  1  0.86287541  0.97338096  0.49462912  1
  O  O167  1  0.98092835  0.51557169  0.46684308  1
  O  O168  1  0.94285045  0.34005272  0.43450004  1
  O  O169  1  0.45718957  0.43848965  0.43074365  1
  O  O170  1  0.26968291  0.87766868  0.47791466  1
  O  O171  1  0.81783473  0.78622521  0.46773664  1
  O  O172  1  0.35419866  0.26829244  0.45505373  1
  O  O173  1  0.96328815  0.98524439  0.42770735  1
  O  O174  1  0.44303830  0.78993339  0.43107977  1
  O  O175  1  0.62910577  0.86972205  0.51303189  1
