# generated using pymatgen
data_Li3PO4
_symmetry_space_group_name_H-M   'P 1'
_cell_length_a   6.15119200
_cell_length_b   11.66978300
_cell_length_c   45.02262600
_cell_angle_alpha   90.00000000
_cell_angle_beta   90.00000000
_cell_angle_gamma   90.00000000
_symmetry_Int_Tables_number   1
_chemical_formula_structural   Li3PO4
_chemical_formula_sum   'Li48 P16 O64'
_cell_volume   3231.86257628
_cell_formula_units_Z   16
loop_
 _symmetry_equiv_pos_site_id
 _symmetry_equiv_pos_as_xyz
  1  'x, y, z'
loop_
 _atom_site_type_symbol
 _atom_site_label
 _atom_site_symmetry_multiplicity
 _atom_site_fract_x
 _atom_site_fract_y
 _atom_site_fract_z
 _atom_site_occupancy
  Li  Li0  1  0.47528735  0.99957237  0.08938431  1
  Li  Li1  1  0.99582416  0.24226470  0.05834753  1
  Li  Li2  1  0.95016236  0.60051706  0.05234836  1
  Li  Li3  1  0.01316114  0.98670419  0.09802276  1
  Li  Li4  1  0.73727610  0.80677934  0.06266414  1
  Li  Li5  1  0.26839168  0.42918329  0.08383566  1
  Li  Li6  1  0.49890631  0.63097042  0.11048850  1
  Li  Li7  1  0.49978362  0.82427589  0.18594228  1
  Li  Li8  1  0.51175846  0.39953271  0.14555108  1
  Li  Li9  1  0.49804767  0.05779177  0.15338059  1
  Li  Li10  1  0.00051611  0.06051039  0.15450095  1
  Li  Li11  1  0.00112021  0.39673852  0.14639136  1
  Li  Li12  1  0.99818580  0.82482799  0.18572672  1
  Li  Li13  1  0.00378787  0.62901246  0.11330891  1
  Li  Li14  1  0.74768097  0.62866532  0.16171300  1
  Li  Li15  1  0.25007632  0.82018282  0.13614015  1
  Li  Li16  1  0.25489241  0.25381158  0.17719318  1
  Li  Li17  1  0.74714637  0.20459881  0.12159447  1
  Li  Li18  1  0.49869579  0.44722320  0.21366407  1
  Li  Li19  1  0.50532276  0.64227966  0.28635994  1
  Li  Li20  1  0.50230870  0.21437750  0.24709128  1
  Li  Li21  1  0.49948023  0.87464822  0.25348634  1
  Li  Li22  1  0.00192656  0.87511880  0.25330081  1
  Li  Li23  1  0.99844577  0.21591633  0.24654873  1
  Li  Li24  1  0.00033368  0.64061899  0.28617186  1
  Li  Li25  1  0.00223212  0.44711557  0.21366403  1
  Li  Li26  1  0.75067360  0.44719541  0.26276237  1
  Li  Li27  1  0.25176658  0.64282926  0.23679221  1
  Li  Li28  1  0.24996969  0.06848801  0.27788997  1
  Li  Li29  1  0.74992557  0.02112476  0.22197062  1
  Li  Li30  1  0.49954925  0.26502554  0.31469989  1
  Li  Li31  1  0.50695659  0.46164050  0.38665950  1
  Li  Li32  1  0.50161721  0.03024308  0.34554656  1
  Li  Li33  1  0.50246691  0.69456881  0.35377527  1
  Li  Li34  1  0.01361798  0.69133149  0.35452189  1
  Li  Li35  1  0.00014648  0.03206591  0.34597422  1
  Li  Li36  1  0.00072663  0.46062832  0.38944911  1
  Li  Li37  1  0.00063633  0.26692675  0.31403060  1
  Li  Li38  1  0.75370992  0.26960572  0.36406001  1
  Li  Li39  1  0.24999307  0.46147526  0.33800640  1
  Li  Li40  1  0.24840452  0.88620761  0.37880336  1
  Li  Li41  1  0.75811086  0.83569467  0.32283477  1
  Li  Li42  1  0.51476701  0.10371158  0.40226527  1
  Li  Li43  1  0.49940625  0.84493415  0.44233079  1
  Li  Li44  1  0.44922208  0.48891562  0.44742869  1
  Li  Li45  1  0.97942413  0.09206635  0.40989438  1
  Li  Li46  1  0.24050837  0.28293801  0.43735895  1
  Li  Li47  1  0.76691054  0.66196271  0.41600291  1
  P  P48  1  0.24565699  0.78621245  0.07100282  1
  P  P49  1  0.75564169  0.42164634  0.08826498  1
  P  P50  1  0.24987651  0.59874420  0.17122080  1
  P  P51  1  0.74342653  0.85571790  0.12731966  1
  P  P52  1  0.75118776  0.24456783  0.18948652  1
  P  P53  1  0.25126867  0.21111402  0.10985274  1
  P  P54  1  0.25189698  0.41637303  0.27199566  1
  P  P55  1  0.75126906  0.67321134  0.22791015  1
  P  P56  1  0.75123727  0.06136264  0.28962640  1
  P  P57  1  0.25076922  0.02879463  0.21044615  1
  P  P58  1  0.24665548  0.23510120  0.37263892  1
  P  P59  1  0.75164087  0.49142836  0.32886149  1
  P  P60  1  0.75255504  0.87994974  0.39014245  1
  P  P61  1  0.25331890  0.84509548  0.31050746  1
  P  P62  1  0.74911781  0.30436845  0.42891637  1
  P  P63  1  0.25560357  0.66902301  0.41186445  1
  O  O64  1  0.45379773  0.75757844  0.05395685  1
  O  O65  1  0.54933012  0.49739692  0.08622215  1
  O  O66  1  0.96476675  0.50097397  0.08453957  1
  O  O67  1  0.03089428  0.74879358  0.05483719  1
  O  O68  1  0.23336292  0.91744466  0.07797518  1
  O  O69  1  0.76196070  0.32736739  0.06466537  1
  O  O70  1  0.73553246  0.91427134  0.09607852  1
  O  O71  1  0.24592004  0.26618155  0.07869930  1
  O  O72  1  0.45654637  0.56121831  0.15378790  1
  O  O73  1  0.54088762  0.89391393  0.14552191  1
  O  O74  1  0.54615702  0.32180531  0.18591202  1
  O  O75  1  0.45498411  0.13268945  0.11367957  1
  O  O76  1  0.04169315  0.13578501  0.11398327  1
  O  O77  1  0.96011311  0.31928449  0.18615750  1
  O  O78  1  0.95613272  0.89865423  0.14304603  1
  O  O79  1  0.04237007  0.55995455  0.15401472  1
  O  O80  1  0.74913887  0.72369045  0.12408527  1
  O  O81  1  0.24761415  0.73155296  0.17479540  1
  O  O82  1  0.25671777  0.30704011  0.13400127  1
  O  O83  1  0.74909429  0.14919214  0.16536844  1
  O  O84  1  0.24707780  0.72168758  0.10210862  1
  O  O85  1  0.75039530  0.73059560  0.19655165  1
  O  O86  1  0.76314122  0.36899868  0.12044729  1
  O  O87  1  0.25180572  0.08687230  0.17920864  1
  O  O88  1  0.45822498  0.37723240  0.25458920  1
  O  O89  1  0.54459070  0.71197273  0.24530600  1
  O  O90  1  0.54306525  0.13730346  0.28698305  1
  O  O91  1  0.45706551  0.95203702  0.21357333  1
  O  O92  1  0.04284395  0.95272923  0.21318918  1
  O  O93  1  0.95742049  0.13821350  0.28651998  1
  O  O94  1  0.95843427  0.71205220  0.24519741  1
  O  O95  1  0.04415505  0.37796933  0.25475809  1
  O  O96  1  0.75102070  0.54057654  0.22464363  1
  O  O97  1  0.25282769  0.54899395  0.27520632  1
  O  O98  1  0.25030781  0.12201148  0.23510644  1
  O  O99  1  0.75076560  0.96833824  0.26492222  1
  O  O100  1  0.25075038  0.54116911  0.20256011  1
  O  O101  1  0.75224649  0.54775901  0.29736381  1
  O  O102  1  0.74965126  0.18849189  0.22098976  1
  O  O103  1  0.25089655  0.90145209  0.27903246  1
  O  O104  1  0.45906849  0.19215372  0.35688254  1
  O  O105  1  0.54435311  0.53093467  0.34600225  1
  O  O106  1  0.54311822  0.95522633  0.38599689  1
  O  O107  1  0.46260913  0.77070017  0.31379847  1
  O  O108  1  0.04859048  0.76750809  0.31398234  1
  O  O109  1  0.95662582  0.95794270  0.38619767  1
  O  O110  1  0.95855146  0.52942587  0.34616787  1
  O  O111  1  0.04396071  0.19623671  0.35454692  1
  O  O112  1  0.74903978  0.35857937  0.32552469  1
  O  O113  1  0.25161424  0.36709426  0.37581207  1
  O  O114  1  0.25063323  0.94032207  0.33466557  1
  O  O115  1  0.75805760  0.78360417  0.36606618  1
  O  O116  1  0.25187563  0.35930164  0.30338496  1
  O  O117  1  0.75007625  0.36945650  0.39789315  1
  O  O118  1  0.75265697  0.00293519  0.32080778  1
  O  O119  1  0.26393110  0.72194411  0.37973236  1
  O  O120  1  0.53429358  0.34127802  0.44513643  1
  O  O121  1  0.46465180  0.58951067  0.41554452  1
  O  O122  1  0.04892942  0.59361272  0.41385474  1
  O  O123  1  0.95725981  0.33268374  0.44598969  1
  O  O124  1  0.73713247  0.17331371  0.42172531  1
  O  O125  1  0.26240756  0.76304562  0.43554552  1
  O  O126  1  0.23929273  0.17682554  0.40391864  1
  O  O127  1  0.74718703  0.82486827  0.42130308  1
