# generated using pymatgen
data_Li3PO4
_symmetry_space_group_name_H-M   'P 1'
_cell_length_a   7.91303400
_cell_length_b   11.66978227
_cell_length_c   43.59685200
_cell_angle_alpha   90.00000000
_cell_angle_beta   90.00000000
_cell_angle_gamma   74.43479159
_symmetry_Int_Tables_number   1
_chemical_formula_structural   Li3PO4
_chemical_formula_sum   'Li66 P22 O88'
_cell_volume   3878.23441823
_cell_formula_units_Z   22
loop_
 _symmetry_equiv_pos_site_id
 _symmetry_equiv_pos_as_xyz
  1  'x, y, z'
loop_
 _atom_site_type_symbol
 _atom_site_label
 _atom_site_symmetry_multiplicity
 _atom_site_fract_x
 _atom_site_fract_y
 _atom_site_fract_z
 _atom_site_occupancy
  Li  Li0  1  0.27210611  0.73523878  0.06136876  1
  Li  Li1  1  0.41667273  0.30478201  0.02038077  1
  Li  Li2  1  0.78823560  0.30117985  0.04797612  1
  Li  Li3  1  0.80593295  0.60333713  0.04309637  1
  Li  Li4  1  0.65702166  0.03360045  0.08347856  1
  Li  Li5  1  0.02461114  0.00210469  0.05985472  1
  Li  Li6  1  0.18296135  0.54747082  0.01810636  1
  Li  Li7  1  0.91139387  0.63916390  0.13878661  1
  Li  Li8  1  0.01384821  0.99509457  0.11770265  1
  Li  Li9  1  0.14103558  0.54103534  0.08421773  1
  Li  Li10  1  0.13208044  0.20981830  0.08636646  1
  Li  Li11  1  0.44576603  0.14762336  0.13193146  1
  Li  Li12  1  0.46759610  0.48558824  0.12658141  1
  Li  Li13  1  0.33542218  0.93763110  0.15811412  1
  Li  Li14  1  0.58544565  0.69817430  0.09688094  1
  Li  Li15  1  0.25266526  0.75624949  0.12001323  1
  Li  Li16  1  0.66693207  0.87377648  0.13897928  1
  Li  Li17  1  0.87307082  0.44663530  0.08856405  1
  Li  Li18  1  0.39698933  0.30415594  0.08528295  1
  Li  Li19  1  0.56076219  0.51674826  0.22379190  1
  Li  Li20  1  0.66045058  0.87780966  0.20109499  1
  Li  Li21  1  0.79666017  0.42414488  0.16732250  1
  Li  Li22  1  0.77148451  0.08967814  0.17330958  1
  Li  Li23  1  0.10097593  0.02963777  0.21571236  1
  Li  Li24  1  0.12004536  0.36624936  0.20892482  1
  Li  Li25  1  0.98286410  0.81843901  0.24267280  1
  Li  Li26  1  0.23752016  0.57717340  0.18220343  1
  Li  Li27  1  0.90326192  0.63820968  0.20176593  1
  Li  Li28  1  0.31875963  0.75756387  0.22248930  1
  Li  Li29  1  0.52323252  0.32753221  0.17226688  1
  Li  Li30  1  0.04402096  0.18450718  0.16801452  1
  Li  Li31  1  0.21049275  0.39902627  0.30771167  1
  Li  Li32  1  0.31064173  0.75887929  0.28433981  1
  Li  Li33  1  0.44880989  0.30571858  0.25136155  1
  Li  Li34  1  0.42315577  0.97123276  0.25714037  1
  Li  Li35  1  0.75190902  0.91164149  0.29963535  1
  Li  Li36  1  0.77229452  0.24687613  0.29305028  1
  Li  Li37  1  0.63335156  0.70014190  0.32598036  1
  Li  Li38  1  0.88794346  0.45896654  0.26583284  1
  Li  Li39  1  0.55335109  0.51823628  0.28587071  1
  Li  Li40  1  0.96734332  0.63983174  0.30625033  1
  Li  Li41  1  0.17559314  0.21106787  0.25618921  1
  Li  Li42  1  0.69635563  0.06659687  0.25224918  1
  Li  Li43  1  0.85882442  0.28311328  0.39058507  1
  Li  Li44  1  0.95954709  0.63865927  0.36919822  1
  Li  Li45  1  0.10146237  0.18741383  0.33560802  1
  Li  Li46  1  0.07571006  0.85333492  0.34117689  1
  Li  Li47  1  0.40416549  0.79215586  0.38187932  1
  Li  Li48  1  0.42770523  0.12930733  0.37642252  1
  Li  Li49  1  0.28641710  0.57959195  0.41121030  1
  Li  Li50  1  0.53612611  0.33898663  0.35031551  1
  Li  Li51  1  0.20371341  0.40426196  0.36970259  1
  Li  Li52  1  0.61738572  0.52048532  0.38850383  1
  Li  Li53  1  0.82827648  0.09244509  0.34040070  1
  Li  Li54  1  0.35020749  0.94825472  0.33584687  1
  Li  Li55  1  0.60013815  0.54172771  0.44750601  1
  Li  Li56  1  0.73840912  0.06847780  0.42192039  1
  Li  Li57  1  0.73148134  0.73599870  0.42399528  1
  Li  Li58  1  0.06691863  0.67341619  0.46532363  1
  Li  Li59  1  0.08381259  0.97582461  0.46021687  1
  Li  Li60  1  0.21591406  0.24363561  0.42499721  1
  Li  Li61  1  0.85123877  0.27352857  0.44804688  1
  Li  Li62  1  0.47363796  0.97227888  0.42297426  1
  Li  Li63  1  0.99836040  0.83020154  0.41989181  1
  Li  Li64  1  0.45484885  0.97252259  0.48784859  1
  Li  Li65  1  0.68850098  0.73086755  0.49042940  1
  P  P66  1  0.49104620  0.50236379  0.05771482  1
  P  P67  1  0.10402848  0.35589645  0.03161677  1
  P  P68  1  0.90298976  0.78592471  0.08208072  1
  P  P69  1  0.37493034  0.96011548  0.08824455  1
  P  P70  1  0.15639005  0.38701920  0.14053947  1
  P  P71  1  0.76172752  0.24218143  0.11619491  1
  P  P72  1  0.54838171  0.67199109  0.16771122  1
  P  P73  1  0.02372637  0.84250373  0.17336047  1
  P  P74  1  0.80936775  0.26918570  0.22429629  1
  P  P75  1  0.41110033  0.12610724  0.20021445  1
  P  P76  1  0.19667600  0.55352615  0.25145617  1
  P  P77  1  0.67427510  0.72329063  0.25683982  1
  P  P78  1  0.46096134  0.15116754  0.30822223  1
  P  P79  1  0.06337061  0.00792016  0.28421270  1
  P  P80  1  0.84775011  0.43480215  0.33502652  1
  P  P81  1  0.32306460  0.60505646  0.34063506  1
  P  P82  1  0.11017845  0.03516582  0.39221404  1
  P  P83  1  0.71587924  0.89010497  0.36777801  1
  P  P84  1  0.49680065  0.31759948  0.42023176  1
  P  P85  1  0.96917412  0.49144677  0.42625383  1
  P  P86  1  0.76732736  0.92177615  0.47661190  1
  P  P87  1  0.38092332  0.77487483  0.45065629  1
  O  O88  1  0.36035441  0.59803883  0.03821836  1
  O  O89  1  0.24952456  0.27725072  0.05288810  1
  O  O90  1  0.96959646  0.28997274  0.02292134  1
  O  O91  1  0.64436115  0.55265518  0.06939763  1
  O  O92  1  0.85385109  0.74734137  0.05065376  1
  O  O93  1  0.01617674  0.47700498  0.04971137  1
  O  O94  1  0.56271024  0.38648433  0.03919819  1
  O  O95  1  0.47856013  0.99602817  0.06247336  1
  O  O96  1  0.20189485  0.39423377  0.00413853  1
  O  O97  1  0.09662590  0.71559760  0.08979920  1
  O  O98  1  0.17701532  0.03567651  0.08763083  1
  O  O99  1  0.03127264  0.48438527  0.12027301  1
  O  O100  1  0.88440650  0.14439030  0.13645705  1
  O  O101  1  0.61786930  0.19014743  0.10158839  1
  O  O102  1  0.30064842  0.43812091  0.15533362  1
  O  O103  1  0.45406064  0.98351688  0.12031613  1
  O  O104  1  0.47513560  0.64763797  0.13588539  1
  O  O105  1  0.37512538  0.82602174  0.08678577  1
  O  O106  1  0.89030707  0.92377397  0.08292435  1
  O  O107  1  0.67439608  0.35240651  0.13627851  1
  O  O108  1  0.24358892  0.27696806  0.12053304  1
  O  O109  1  0.78385203  0.75805315  0.10832448  1
  O  O110  1  0.13369465  0.88144121  0.14763586  1
  O  O111  1  0.39029047  0.47331698  0.08621778  1
  O  O112  1  0.87035699  0.27901993  0.08982775  1
  O  O113  1  0.74377910  0.59819630  0.17036987  1
  O  O114  1  0.82831894  0.91613757  0.17020035  1
  O  O115  1  0.68540940  0.36698047  0.20412609  1
  O  O116  1  0.53451376  0.02816578  0.22039716  1
  O  O117  1  0.26569410  0.07582568  0.18563230  1
  O  O118  1  0.95503385  0.31958534  0.23872950  1
  O  O119  1  0.09623077  0.86671943  0.20526593  1
  O  O120  1  0.12236207  0.52883671  0.21971293  1
  O  O121  1  0.03648675  0.70774722  0.16997064  1
  O  O122  1  0.53530240  0.80689808  0.17085765  1
  O  O123  1  0.32564619  0.23657214  0.22031356  1
  O  O124  1  0.89489716  0.15877751  0.20418027  1
  O  O125  1  0.43898200  0.63352715  0.19367489  1
  O  O126  1  0.78380771  0.76069448  0.23076577  1
  O  O127  1  0.04708664  0.35041864  0.16677911  1
  O  O128  1  0.52052972  0.16218543  0.17391314  1
  O  O129  1  0.39186450  0.47912113  0.25428707  1
  O  O130  1  0.47913217  0.79771998  0.25395912  1
  O  O131  1  0.33742658  0.24931210  0.28813434  1
  O  O132  1  0.18743136  0.90951726  0.30420322  1
  O  O133  1  0.91738795  0.95787299  0.26973282  1
  O  O134  1  0.60642729  0.20121958  0.32287484  1
  O  O135  1  0.74828024  0.74863526  0.28856299  1
  O  O136  1  0.77567929  0.41001280  0.30313982  1
  O  O137  1  0.68548375  0.58861909  0.25402636  1
  O  O138  1  0.18532456  0.68823080  0.25431708  1
  O  O139  1  0.97822744  0.11799836  0.30447128  1
  O  O140  1  0.54664839  0.04094651  0.28805449  1
  O  O141  1  0.08759576  0.51601405  0.27759338  1
  O  O142  1  0.43302783  0.64236802  0.31458281  1
  O  O143  1  0.70044154  0.23282204  0.25065826  1
  O  O144  1  0.17201197  0.04481269  0.25790512  1
  O  O145  1  0.04301295  0.36102010  0.33837876  1
  O  O146  1  0.12789866  0.67917442  0.33780646  1
  O  O147  1  0.98758356  0.13315847  0.37200508  1
  O  O148  1  0.84075129  0.79268976  0.38805588  1
  O  O149  1  0.57190741  0.83881140  0.35295142  1
  O  O150  1  0.25397994  0.08707009  0.40688818  1
  O  O151  1  0.39609147  0.63021473  0.37241730  1
  O  O152  1  0.41713007  0.29372540  0.38823987  1
  O  O153  1  0.33566508  0.47013527  0.33778822  1
  O  O154  1  0.83510794  0.56955412  0.33820616  1
  O  O155  1  0.62841944  0.00018351  0.38773084  1
  O  O156  1  0.19787721  0.92514285  0.37207610  1
  O  O157  1  0.73740013  0.39616757  0.36073430  1
  O  O158  1  0.08689880  0.52051316  0.39993982  1
  O  O159  1  0.35196838  0.11444216  0.33449496  1
  O  O160  1  0.82551054  0.92667854  0.34159274  1
  O  O161  1  0.69498529  0.24241901  0.42071052  1
  O  O162  1  0.77496691  0.56111538  0.41879156  1
  O  O163  1  0.62172394  0.99956743  0.45522123  1
  O  O164  1  0.51076319  0.67961850  0.47037500  1
  O  O165  1  0.22737347  0.72486712  0.43896838  1
  O  O166  1  0.90122483  0.98835465  0.48515818  1
  O  O167  1  0.01910725  0.52934162  0.45769943  1
  O  O168  1  0.98330591  0.35338971  0.42518523  1
  O  O169  1  0.49578047  0.45185697  0.42160840  1
  O  O170  1  0.30933148  0.89133050  0.46893975  1
  O  O171  1  0.85584639  0.80023408  0.45872898  1
  O  O172  1  0.39395330  0.28150500  0.44609289  1
  O  O173  1  0.00106032  0.99808272  0.41845318  1
  O  O174  1  0.48236597  0.80298687  0.42213507  1
  O  O175  1  0.66953844  0.88404472  0.50419773  1
