# generated using pymatgen
data_Li3PO4
_symmetry_space_group_name_H-M   'P 1'
_cell_length_a   10.55485100
_cell_length_b   7.91303400
_cell_length_c   42.56477900
_cell_angle_alpha   90.00000000
_cell_angle_beta   90.00000000
_cell_angle_gamma   90.00000000
_symmetry_Int_Tables_number   1
_chemical_formula_structural   Li3PO4
_chemical_formula_sum   'Li60 P20 O80'
_cell_volume   3555.04843023
_cell_formula_units_Z   20
loop_
 _symmetry_equiv_pos_site_id
 _symmetry_equiv_pos_as_xyz
  1  'x, y, z'
loop_
 _atom_site_type_symbol
 _atom_site_label
 _atom_site_symmetry_multiplicity
 _atom_site_fract_x
 _atom_site_fract_y
 _atom_site_fract_z
 _atom_site_occupancy
  Li  Li0  1  0.83474930  0.18029503  0.07611974  1
  Li  Li1  1  0.33268638  0.21160542  0.06649079  1
  Li  Li2  1  0.66523371  0.68027836  0.07610365  1
  Li  Li3  1  0.16731029  0.71160307  0.06649101  1
  Li  Li4  1  0.91807537  0.54286309  0.05601542  1
  Li  Li5  1  0.58192273  0.04286377  0.05601524  1
  Li  Li6  1  0.15980984  0.02677499  0.10582472  1
  Li  Li7  1  0.83518210  0.78499578  0.16408250  1
  Li  Li8  1  0.33456354  0.83069390  0.15228527  1
  Li  Li9  1  0.66648154  0.98442349  0.11947613  1
  Li  Li10  1  0.66481696  0.28499575  0.16408268  1
  Li  Li11  1  0.34018913  0.52677168  0.10582553  1
  Li  Li12  1  0.83351341  0.48442617  0.11947596  1
  Li  Li13  1  0.16543820  0.33069331  0.15228484  1
  Li  Li14  1  0.07246050  0.64212065  0.13958683  1
  Li  Li15  1  0.92645546  0.17257745  0.13260380  1
  Li  Li16  1  0.42753965  0.14212434  0.13958664  1
  Li  Li17  1  0.57354536  0.67258074  0.13260181  1
  Li  Li18  1  0.16370835  0.63346463  0.19920019  1
  Li  Li19  1  0.83651296  0.39029470  0.25430198  1
  Li  Li20  1  0.33643947  0.43160687  0.24472202  1
  Li  Li21  1  0.66263988  0.58979500  0.20943026  1
  Li  Li22  1  0.66348821  0.89029336  0.25430138  1
  Li  Li23  1  0.33629176  0.13346772  0.19919948  1
  Li  Li24  1  0.83735999  0.08979701  0.20943056  1
  Li  Li25  1  0.16356174  0.93160525  0.24472192  1
  Li  Li26  1  0.07574858  0.24105205  0.23144297  1
  Li  Li27  1  0.92587460  0.78016660  0.22278821  1
  Li  Li28  1  0.42425211  0.74105055  0.23144288  1
  Li  Li29  1  0.57412799  0.28016891  0.22278805  1
  Li  Li30  1  0.16335267  0.23585315  0.29110237  1
  Li  Li31  1  0.83597743  0.99373200  0.34593621  1
  Li  Li32  1  0.33711802  0.03528759  0.33609689  1
  Li  Li33  1  0.66405764  0.19368277  0.30062968  1
  Li  Li34  1  0.66402486  0.49373509  0.34593595  1
  Li  Li35  1  0.33665095  0.73585312  0.29110247  1
  Li  Li36  1  0.83594376  0.69368137  0.30062987  1
  Li  Li37  1  0.16288269  0.53528955  0.33609667  1
  Li  Li38  1  0.07408936  0.84495163  0.32274655  1
  Li  Li39  1  0.92442289  0.38387861  0.31407200  1
  Li  Li40  1  0.42591178  0.34495261  0.32274590  1
  Li  Li41  1  0.57558201  0.88388044  0.31407142  1
  Li  Li42  1  0.16490783  0.83933324  0.38136132  1
  Li  Li43  1  0.83941789  0.59972436  0.43954798  1
  Li  Li44  1  0.33337013  0.64025663  0.42592353  1
  Li  Li45  1  0.66474699  0.79588602  0.39309921  1
  Li  Li46  1  0.66058099  0.09973569  0.43954725  1
  Li  Li47  1  0.33508319  0.33933776  0.38136042  1
  Li  Li48  1  0.83525581  0.29588060  0.39309988  1
  Li  Li49  1  0.16666123  0.14027373  0.42594058  1
  Li  Li50  1  0.07374933  0.45303764  0.41301742  1
  Li  Li51  1  0.92735089  0.98333860  0.40580769  1
  Li  Li52  1  0.42625840  0.95304695  0.41301961  1
  Li  Li53  1  0.57264813  0.48334594  0.40580553  1
  Li  Li54  1  0.16530447  0.44485296  0.46963732  1
  Li  Li55  1  0.66735099  0.41416628  0.47915398  1
  Li  Li56  1  0.33470188  0.94485288  0.46964076  1
  Li  Li57  1  0.83264264  0.91414647  0.47915383  1
  Li  Li58  1  0.08014872  0.08185889  0.48957254  1
  Li  Li59  1  0.41980910  0.58187704  0.48957121  1
  P  P60  1  0.09110368  0.38275242  0.08377227  1
  P  P61  1  0.40889352  0.88274804  0.08377181  1
  P  P62  1  0.08911649  0.98232801  0.17593880  1
  P  P63  1  0.91039023  0.82665708  0.09590958  1
  P  P64  1  0.41088417  0.48232798  0.17593817  1
  P  P65  1  0.58960012  0.32666388  0.09590897  1
  P  P66  1  0.08888950  0.58517467  0.26755388  1
  P  P67  1  0.91263284  0.43615937  0.18667901  1
  P  P68  1  0.41111369  0.08517600  0.26755359  1
  P  P69  1  0.58736821  0.93616347  0.18667851  1
  P  P70  1  0.08743275  0.18934012  0.35877429  1
  P  P71  1  0.91139338  0.04020308  0.27784181  1
  P  P72  1  0.41257206  0.68936200  0.35876951  1
  P  P73  1  0.58861130  0.54020669  0.27784148  1
  P  P74  1  0.08945640  0.79873707  0.44968155  1
  P  P75  1  0.91089480  0.64363950  0.36944184  1
  P  P76  1  0.41054483  0.29876404  0.44968123  1
  P  P77  1  0.58910424  0.14364888  0.36944119  1
  P  P78  1  0.90867291  0.24354504  0.46161147  1
  P  P79  1  0.59131901  0.74359119  0.46160484  1
  O  O80  1  0.15957474  0.21600778  0.07711319  1
  O  O81  1  0.66421352  0.24131924  0.06833658  1
  O  O82  1  0.34042472  0.71601489  0.07711379  1
  O  O83  1  0.83577424  0.74131715  0.06833752  1
  O  O84  1  0.05008831  0.85572688  0.08735388  1
  O  O85  1  0.44989952  0.35572460  0.08735291  1
  O  O86  1  0.09135315  0.50452026  0.05522528  1
  O  O87  1  0.40864213  0.00451877  0.05522358  1
  O  O88  1  0.15869645  0.81606188  0.16657910  1
  O  O89  1  0.84381539  0.99752447  0.10462901  1
  O  O90  1  0.34634911  0.97087353  0.11283185  1
  O  O91  1  0.65710720  0.85058084  0.15839865  1
  O  O92  1  0.65616849  0.49754032  0.10462478  1
  O  O93  1  0.34129778  0.31606445  0.16657724  1
  O  O94  1  0.84289754  0.35057775  0.15839939  1
  O  O95  1  0.15365489  0.47087712  0.11283092  1
  O  O96  1  0.05079782  0.47834956  0.17702834  1
  O  O97  1  0.94494181  0.34986905  0.09095403  1
  O  O98  1  0.44920278  0.97836520  0.17702721  1
  O  O99  1  0.55505920  0.84986605  0.09094977  1
  O  O100  1  0.09025093  0.10588876  0.14735073  1
  O  O101  1  0.90220527  0.70664281  0.12511213  1
  O  O102  1  0.40974647  0.60589871  0.14735159  1
  O  O103  1  0.59779976  0.20665457  0.12511272  1
  O  O104  1  0.15906285  0.41916720  0.25821832  1
  O  O105  1  0.84091181  0.60089980  0.19619794  1
  O  O106  1  0.34118458  0.56581448  0.20429932  1
  O  O107  1  0.65846680  0.45583422  0.24957359  1
  O  O108  1  0.65909457  0.10089888  0.19619846  1
  O  O109  1  0.34094508  0.91916752  0.25821792  1
  O  O110  1  0.84154025  0.95584151  0.24957414  1
  O  O111  1  0.15881625  0.06581538  0.20429933  1
  O  O112  1  0.05035903  0.08120097  0.26837583  1
  O  O113  1  0.94983329  0.94136095  0.18546241  1
  O  O114  1  0.44964252  0.58120008  0.26837495  1
  O  O115  1  0.55016873  0.44135553  0.18546293  1
  O  O116  1  0.08997307  0.70881539  0.23896112  1
  O  O117  1  0.91164240  0.31197203  0.21514652  1
  O  O118  1  0.41003055  0.20881637  0.23896142  1
  O  O119  1  0.58835837  0.81197178  0.21514520  1
  O  O120  1  0.15888610  0.02430726  0.34932539  1
  O  O121  1  0.84119670  0.20620619  0.28721484  1
  O  O122  1  0.34134668  0.16961120  0.29583211  1
  O  O123  1  0.65867933  0.05993212  0.34107176  1
  O  O124  1  0.65881225  0.70621773  0.28721417  1
  O  O125  1  0.34111480  0.52433237  0.34932619  1
  O  O126  1  0.84132206  0.55991379  0.34107228  1
  O  O127  1  0.15865758  0.66960620  0.29583360  1
  O  O128  1  0.05025728  0.68406747  0.35991824  1
  O  O129  1  0.94984831  0.54434220  0.27701949  1
  O  O130  1  0.44974251  0.18407347  0.35991794  1
  O  O131  1  0.55015315  0.04435291  0.27702174  1
  O  O132  1  0.08878688  0.31344222  0.33029334  1
  O  O133  1  0.91025223  0.91647456  0.30640334  1
  O  O134  1  0.41123120  0.81345238  0.33028894  1
  O  O135  1  0.58975637  0.41647878  0.30640462  1
  O  O136  1  0.15615132  0.62782253  0.44105429  1
  O  O137  1  0.84129078  0.80993908  0.37874394  1
  O  O138  1  0.34286656  0.77478876  0.38707498  1
  O  O139  1  0.65360488  0.65544922  0.43251675  1
  O  O140  1  0.65870262  0.30994786  0.37874786  1
  O  O141  1  0.34386406  0.12783680  0.44105911  1
  O  O142  1  0.84641192  0.15543121  0.43251725  1
  O  O143  1  0.15713938  0.27476769  0.38708253  1
  O  O144  1  0.05497746  0.27574344  0.45453426  1
  O  O145  1  0.94907713  0.14776349  0.36833799  1
  O  O146  1  0.44502721  0.77581317  0.45451885  1
  O  O147  1  0.55091218  0.64777186  0.36834092  1
  O  O148  1  0.09760141  0.91823574  0.42039202  1
  O  O149  1  0.90989288  0.52037835  0.39807431  1
  O  O150  1  0.40236601  0.41822782  0.42038635  1
  O  O151  1  0.59011756  0.02038266  0.39807301  1
  O  O152  1  0.84027415  0.41035432  0.46824207  1
  O  O153  1  0.33609077  0.38466808  0.47722112  1
  O  O154  1  0.65972622  0.91038883  0.46824164  1
  O  O155  1  0.16390861  0.88464968  0.47721867  1
  O  O156  1  0.94976626  0.76994130  0.45830146  1
  O  O157  1  0.55025515  0.27001558  0.45828812  1
  O  O158  1  0.90765241  0.12204264  0.49021056  1
  O  O159  1  0.59231233  0.62207053  0.49020406  1
