# generated using pymatgen
data_Li3PO4
_symmetry_space_group_name_H-M   'P 1'
_cell_length_a   4.97784600
_cell_length_b   12.21646600
_cell_length_c   42.51632900
_cell_angle_alpha   90.00000000
_cell_angle_beta   90.00000000
_cell_angle_gamma   90.00000000
_symmetry_Int_Tables_number   1
_chemical_formula_structural   Li3PO4
_chemical_formula_sum   'Li48 P16 O64'
_cell_volume   2585.48966655
_cell_formula_units_Z   16
loop_
 _symmetry_equiv_pos_site_id
 _symmetry_equiv_pos_as_xyz
  1  'x, y, z'
loop_
 _atom_site_type_symbol
 _atom_site_label
 _atom_site_symmetry_multiplicity
 _atom_site_fract_x
 _atom_site_fract_y
 _atom_site_fract_z
 _atom_site_occupancy
  Li  Li0  1  0.18758896  0.99976643  0.08631352  1
  Li  Li1  1  0.70184483  0.12390026  0.10357578  1
  Li  Li2  1  0.32128556  0.60720256  0.01713310  1
  Li  Li3  1  0.29495478  0.49573631  0.08026131  1
  Li  Li4  1  0.69013969  0.25568674  0.04342437  1
  Li  Li5  1  0.79213876  0.62358770  0.10162524  1
  Li  Li6  1  0.18682317  0.75460516  0.09053923  1
  Li  Li7  1  0.30524002  0.37278231  0.02503770  1
  Li  Li8  1  0.70660819  0.36822900  0.10181442  1
  Li  Li9  1  0.19689378  0.74139971  0.20728649  1
  Li  Li10  1  0.80291390  0.49793740  0.16580103  1
  Li  Li11  1  0.69731349  0.87145587  0.22880434  1
  Li  Li12  1  0.30398936  0.36792648  0.14468558  1
  Li  Li13  1  0.30342727  0.24413721  0.20737893  1
  Li  Li14  1  0.69737001  0.99754020  0.16693584  1
  Li  Li15  1  0.80266570  0.37123434  0.22956051  1
  Li  Li16  1  0.19806326  0.87131578  0.14528580  1
  Li  Li17  1  0.79424091  0.73796008  0.16436982  1
  Li  Li18  1  0.19951382  0.50042672  0.20895149  1
  Li  Li19  1  0.30275210  0.12924680  0.14684296  1
  Li  Li20  1  0.70203293  0.11309435  0.22781559  1
  Li  Li21  1  0.19752489  0.48800928  0.33356267  1
  Li  Li22  1  0.80338849  0.24426114  0.29171038  1
  Li  Li23  1  0.69830314  0.61730825  0.35521837  1
  Li  Li24  1  0.30322693  0.11435071  0.27061179  1
  Li  Li25  1  0.30281759  0.98832177  0.33306607  1
  Li  Li26  1  0.69760826  0.74287990  0.29236853  1
  Li  Li27  1  0.80294052  0.11601112  0.35515189  1
  Li  Li28  1  0.19809119  0.61608472  0.26990237  1
  Li  Li29  1  0.79877482  0.48581163  0.29055285  1
  Li  Li30  1  0.20388215  0.24608951  0.33455539  1
  Li  Li31  1  0.29909912  0.87323070  0.27191133  1
  Li  Li32  1  0.70148605  0.85900502  0.35319688  1
  Li  Li33  1  0.20163511  0.23480198  0.45901328  1
  Li  Li34  1  0.80389628  0.99095830  0.41798202  1
  Li  Li35  1  0.68752465  0.35982702  0.47590990  1
  Li  Li36  1  0.30358084  0.86136900  0.39638973  1
  Li  Li37  1  0.29106842  0.73574565  0.46101650  1
  Li  Li38  1  0.70017178  0.48848586  0.41730266  1
  Li  Li39  1  0.79531168  0.86365992  0.48237108  1
  Li  Li40  1  0.19953571  0.36157764  0.39550563  1
  Li  Li41  1  0.80276303  0.23015683  0.41562205  1
  Li  Li42  1  0.20671802  0.99087613  0.46081846  1
  Li  Li43  1  0.29728528  0.62204645  0.39808504  1
  Li  Li44  1  0.68676383  0.60486378  0.47179379  1
  Li  Li45  1  0.81762947  0.75071192  0.54553786  1
  Li  Li46  1  0.18889661  0.10204328  0.51920234  1
  Li  Li47  1  0.80469482  0.98563231  0.53787045  1
  P  P48  1  0.70150422  0.87706784  0.10451476  1
  P  P49  1  0.19651912  0.24276008  0.08175609  1
  P  P50  1  0.79368062  0.50035567  0.03822581  1
  P  P51  1  0.69273996  0.62283265  0.22921192  1
  P  P52  1  0.30733785  0.61461745  0.14418109  1
  P  P53  1  0.19284171  0.99106738  0.20747689  1
  P  P54  1  0.80839988  0.25008013  0.16676251  1
  P  P55  1  0.69355290  0.36813557  0.35497250  1
  P  P56  1  0.30727443  0.36383292  0.27019814  1
  P  P57  1  0.19325198  0.73620041  0.33315292  1
  P  P58  1  0.80727740  0.99545955  0.29226399  1
  P  P59  1  0.69625548  0.11612048  0.48089917  1
  P  P60  1  0.30849991  0.10903317  0.39582287  1
  P  P61  1  0.20157343  0.48228800  0.45788310  1
  P  P62  1  0.80784239  0.74497396  0.41827317  1
  P  P63  1  0.29228778  0.85803546  0.52448874  1
  O  O64  1  0.81111291  0.98254662  0.08902362  1
  O  O65  1  0.29892757  0.14006551  0.09996141  1
  O  O66  1  0.68190112  0.60032407  0.02066358  1
  O  O67  1  0.70597877  0.50166124  0.07379015  1
  O  O68  1  0.30354374  0.23974284  0.04751464  1
  O  O69  1  0.20286552  0.61286543  0.10947831  1
  O  O70  1  0.81017610  0.77392901  0.08784741  1
  O  O71  1  0.69315046  0.39197289  0.02296483  1
  O  O72  1  0.29684778  0.34856578  0.09864090  1
  O  O73  1  0.38479468  0.87852888  0.10331364  1
  O  O74  1  0.88258587  0.24239184  0.08150222  1
  O  O75  1  0.11257231  0.50242442  0.03738313  1
  O  O76  1  0.79571012  0.72736059  0.21189551  1
  O  O77  1  0.20430525  0.51110051  0.16179609  1
  O  O78  1  0.29562174  0.88565809  0.22438634  1
  O  O79  1  0.70528522  0.35430211  0.14928412  1
  O  O80  1  0.70462523  0.25076253  0.20140400  1
  O  O81  1  0.29530290  0.99161303  0.17277550  1
  O  O82  1  0.20360199  0.36413439  0.23555094  1
  O  O83  1  0.78926379  0.87519339  0.14002506  1
  O  O84  1  0.20392303  0.71969681  0.16096020  1
  O  O85  1  0.79627988  0.51906816  0.21182816  1
  O  O86  1  0.70545445  0.14592598  0.14961280  1
  O  O87  1  0.29803396  0.09456266  0.22485567  1
  O  O88  1  0.37902245  0.62358202  0.22938106  1
  O  O89  1  0.62045214  0.61414571  0.14356132  1
  O  O90  1  0.87949823  0.99071053  0.20746926  1
  O  O91  1  0.12200159  0.25115005  0.16700015  1
  O  O92  1  0.79638007  0.47353040  0.33806871  1
  O  O93  1  0.20506258  0.25874677  0.28727955  1
  O  O94  1  0.29658004  0.63184206  0.35052269  1
  O  O95  1  0.70505865  0.10038251  0.27509607  1
  O  O96  1  0.70354386  0.99546149  0.32690673  1
  O  O97  1  0.29637650  0.73594933  0.29847922  1
  O  O98  1  0.20460745  0.10844348  0.36117668  1
  O  O99  1  0.79620990  0.62290732  0.26387394  1
  O  O100  1  0.20324024  0.46753417  0.28759305  1
  O  O101  1  0.79885415  0.26470220  0.33756966  1
  O  O102  1  0.70328818  0.89171677  0.27487415  1
  O  O103  1  0.29669308  0.84014056  0.35047174  1
  O  O104  1  0.38019078  0.36845170  0.35493475  1
  O  O105  1  0.62085375  0.36331278  0.27001598  1
  O  O106  1  0.87957784  0.73539034  0.33298458  1
  O  O107  1  0.12090840  0.99587036  0.29249257  1
  O  O108  1  0.79870814  0.21887983  0.46271883  1
  O  O109  1  0.20542941  0.00490363  0.41333116  1
  O  O110  1  0.31082411  0.37664014  0.47331128  1
  O  O111  1  0.70478498  0.84832069  0.40058139  1
  O  O112  1  0.70266920  0.74675633  0.45295083  1
  O  O113  1  0.28935709  0.48442780  0.42237840  1
  O  O114  1  0.20477653  0.85731930  0.48891751  1
  O  O115  1  0.79552819  0.36757565  0.38969287  1
  O  O116  1  0.20573219  0.21323435  0.41296354  1
  O  O117  1  0.79657338  0.01047659  0.46393314  1
  O  O118  1  0.70488180  0.63973768  0.40151500  1
  O  O119  1  0.31014318  0.58528421  0.47463945  1
  O  O120  1  0.38229021  0.11645940  0.48119445  1
  O  O121  1  0.62212763  0.10801301  0.39555990  1
  O  O122  1  0.88479993  0.48090457  0.45912747  1
  O  O123  1  0.12092622  0.74552812  0.41894532  1
  O  O124  1  0.17975094  0.75793202  0.54193801  1
  O  O125  1  0.80332832  0.11852685  0.51514057  1
  O  O126  1  0.19269002  0.96634287  0.53989000  1
  O  O127  1  0.61115603  0.85591468  0.52530474  1
