# generated using pymatgen
data_Li3PO4
_symmetry_space_group_name_H-M   'P 1'
_cell_length_a   4.97784600
_cell_length_b   12.21646600
_cell_length_c   42.51632900
_cell_angle_alpha   90.00000000
_cell_angle_beta   90.00000000
_cell_angle_gamma   90.00000000
_symmetry_Int_Tables_number   1
_chemical_formula_structural   Li3PO4
_chemical_formula_sum   'Li48 P16 O64'
_cell_volume   2585.48966655
_cell_formula_units_Z   16
loop_
 _symmetry_equiv_pos_site_id
 _symmetry_equiv_pos_as_xyz
  1  'x, y, z'
loop_
 _atom_site_type_symbol
 _atom_site_label
 _atom_site_symmetry_multiplicity
 _atom_site_fract_x
 _atom_site_fract_y
 _atom_site_fract_z
 _atom_site_occupancy
  Li  Li0  1  0.18532630  0.06207913  0.05349309  1
  Li  Li1  1  0.69894948  0.18563759  0.07119723  1
  Li  Li2  1  0.29268886  0.43539194  0.11142834  1
  Li  Li3  1  0.68093427  0.29529176  0.01137298  1
  Li  Li4  1  0.80896614  0.70279532  0.07460444  1
  Li  Li5  1  0.20048004  0.93307140  0.11238871  1
  Li  Li6  1  0.19157395  0.81603035  0.05536276  1
  Li  Li7  1  0.29807487  0.19305066  0.11443405  1
  Li  Li8  1  0.68934674  0.40891195  0.07296238  1
  Li  Li9  1  0.19733964  0.80472042  0.17610159  1
  Li  Li10  1  0.79704691  0.56230431  0.13460260  1
  Li  Li11  1  0.69665627  0.93411265  0.19729963  1
  Li  Li12  1  0.29675969  0.17818148  0.23852895  1
  Li  Li13  1  0.29997518  0.30703941  0.17535644  1
  Li  Li14  1  0.69799364  0.06000314  0.13438422  1
  Li  Li15  1  0.80124545  0.43292895  0.19805477  1
  Li  Li16  1  0.19853044  0.67891787  0.23858054  1
  Li  Li17  1  0.79372051  0.80389986  0.13374673  1
  Li  Li18  1  0.20119437  0.56387649  0.17720607  1
  Li  Li19  1  0.29719784  0.93688910  0.24029670  1
  Li  Li20  1  0.69773613  0.17441701  0.19586871  1
  Li  Li21  1  0.20107485  0.55173151  0.30202169  1
  Li  Li22  1  0.79922574  0.30737454  0.26048638  1
  Li  Li23  1  0.70121561  0.68061699  0.32399451  1
  Li  Li24  1  0.30343106  0.92397916  0.36514314  1
  Li  Li25  1  0.30222947  0.05230591  0.30129942  1
  Li  Li26  1  0.69971317  0.80610942  0.26104492  1
  Li  Li27  1  0.80122945  0.18028001  0.32396718  1
  Li  Li28  1  0.20017660  0.42612893  0.36427908  1
  Li  Li29  1  0.79846781  0.54838960  0.25924734  1
  Li  Li30  1  0.20324449  0.30992739  0.30328705  1
  Li  Li31  1  0.30191893  0.68443828  0.36665856  1
  Li  Li32  1  0.70429311  0.92213759  0.32209306  1
  Li  Li33  1  0.20331497  0.29685105  0.42781357  1
  Li  Li34  1  0.80267501  0.05432760  0.38631682  1
  Li  Li35  1  0.70661984  0.42387847  0.45092886  1
  Li  Li36  1  0.29770634  0.67440477  0.49153672  1
  Li  Li37  1  0.30287637  0.79984462  0.42837856  1
  Li  Li38  1  0.69912940  0.55219368  0.38712863  1
  Li  Li39  1  0.80143756  0.92689173  0.44995439  1
  Li  Li40  1  0.19108307  0.15717460  0.48802726  1
  Li  Li41  1  0.79887135  0.29520707  0.38531968  1
  Li  Li42  1  0.20966554  0.05631716  0.42879442  1
  Li  Li43  1  0.31026872  0.45137906  0.48938989  1
  Li  Li44  1  0.70111544  0.66560807  0.44836936  1
  Li  Li45  1  0.81372017  0.79742000  0.50904655  1
  Li  Li46  1  0.31865452  0.56244137  0.55112766  1
  Li  Li47  1  0.80852698  0.04313347  0.50719508  1
  P  P48  1  0.69817659  0.94017713  0.07101850  1
  P  P49  1  0.30093473  0.68131865  0.11261213  1
  P  P50  1  0.20575056  0.30476636  0.04858250  1
  P  P51  1  0.69192021  0.68553098  0.19798409  1
  P  P52  1  0.30607686  0.42672521  0.23865518  1
  P  P53  1  0.19153083  0.05367872  0.17524285  1
  P  P54  1  0.80689705  0.31329602  0.13512951  1
  P  P55  1  0.69455906  0.43218071  0.32384158  1
  P  P56  1  0.30806147  0.17313310  0.36446076  1
  P  P57  1  0.19487571  0.79979598  0.30175634  1
  P  P58  1  0.80519031  0.05881790  0.26066349  1
  P  P59  1  0.69970172  0.17801043  0.44984878  1
  P  P60  1  0.30151326  0.91983298  0.49156846  1
  P  P61  1  0.19265217  0.54607180  0.42733218  1
  P  P62  1  0.80848815  0.80528026  0.38730096  1
  P  P63  1  0.79303763  0.55414155  0.51397782  1
  O  O64  1  0.80649525  0.04590347  0.05559088  1
  O  O65  1  0.29230664  0.19995418  0.06769038  1
  O  O66  1  0.70172936  0.41816722  0.11806687  1
  O  O67  1  0.31604026  0.29660117  0.01482562  1
  O  O68  1  0.19087986  0.68440375  0.07857015  1
  O  O69  1  0.78842061  0.93708491  0.10644415  1
  O  O70  1  0.80607248  0.83756797  0.05370262  1
  O  O71  1  0.70455106  0.21031392  0.11722724  1
  O  O72  1  0.31138320  0.40664213  0.06633685  1
  O  O73  1  0.38189996  0.94050652  0.07004791  1
  O  O74  1  0.61579497  0.67948245  0.11198478  1
  O  O75  1  0.88764104  0.30780399  0.04767007  1
  O  O76  1  0.79503703  0.79023451  0.18076207  1
  O  O77  1  0.19967183  0.57686870  0.13004536  1
  O  O78  1  0.29549791  0.94928160  0.19252837  1
  O  O79  1  0.70122025  0.16324976  0.24337156  1
  O  O80  1  0.70349379  0.31218764  0.16972476  1
  O  O81  1  0.29456937  0.05420391  0.14053825  1
  O  O82  1  0.20338696  0.42689641  0.20396569  1
  O  O83  1  0.79564278  0.68552542  0.23262596  1
  O  O84  1  0.20506394  0.78559522  0.13065859  1
  O  O85  1  0.79476826  0.58177629  0.18053287  1
  O  O86  1  0.70167974  0.95476299  0.24336561  1
  O  O87  1  0.29396048  0.15768421  0.19263217  1
  O  O88  1  0.37833756  0.68645793  0.19814357  1
  O  O89  1  0.61976737  0.42595097  0.23855501  1
  O  O90  1  0.87777894  0.05238627  0.17505664  1
  O  O91  1  0.12005274  0.31553990  0.13505965  1
  O  O92  1  0.79801681  0.53702142  0.30672880  1
  O  O93  1  0.20259442  0.32187726  0.25577770  1
  O  O94  1  0.29875316  0.69537814  0.31907759  1
  O  O95  1  0.70468347  0.90953243  0.36992736  1
  O  O96  1  0.70342662  0.05921212  0.29539598  1
  O  O97  1  0.29690676  0.79950961  0.26703667  1
  O  O98  1  0.20446203  0.17289578  0.32981291  1
  O  O99  1  0.79682287  0.43202089  0.35854820  1
  O  O100  1  0.20296904  0.53046906  0.25610112  1
  O  O101  1  0.79791102  0.32844145  0.30640692  1
  O  O102  1  0.70578751  0.70127363  0.36992029  1
  O  O103  1  0.29827027  0.90380210  0.31907112  1
  O  O104  1  0.38084568  0.43280281  0.32388226  1
  O  O105  1  0.62168985  0.17259127  0.36431267  1
  O  O106  1  0.88116386  0.79891986  0.30166724  1
  O  O107  1  0.11891637  0.05954172  0.26072689  1
  O  O108  1  0.80101162  0.28247871  0.43243331  1
  O  O109  1  0.20554770  0.06839902  0.38171604  1
  O  O110  1  0.29810092  0.44112043  0.44432992  1
  O  O111  1  0.70564262  0.65928489  0.49507470  1
  O  O112  1  0.70539544  0.80514978  0.42201482  1
  O  O113  1  0.29609812  0.54713044  0.39273598  1
  O  O114  1  0.21137363  0.92318025  0.45614642  1
  O  O115  1  0.80980214  0.17458040  0.48387476  1
  O  O116  1  0.20506911  0.27694115  0.38189222  1
  O  O117  1  0.79481217  0.07387261  0.43170318  1
  O  O118  1  0.68812344  0.45259159  0.49602685  1
  O  O119  1  0.29468994  0.64897188  0.44532159  1
  O  O120  1  0.38480230  0.18006225  0.45055847  1
  O  O121  1  0.61772948  0.91908210  0.49250341  1
  O  O122  1  0.87947420  0.54385954  0.42742395  1
  O  O123  1  0.12220376  0.80639240  0.38752408  1
  O  O124  1  0.19210848  0.81416346  0.50695970  1
  O  O125  1  0.68312685  0.56122323  0.54776380  1
  O  O126  1  0.19432698  0.02243061  0.50895304  1
  O  O127  1  0.11120916  0.55165764  0.51483060  1
