# generated using pymatgen
data_Li3PO4
_symmetry_space_group_name_H-M   'P 1'
_cell_length_a   4.97784600
_cell_length_b   16.20967300
_cell_length_c   48.06382600
_cell_angle_alpha   90.00000000
_cell_angle_beta   90.00000000
_cell_angle_gamma   90.00000000
_symmetry_Int_Tables_number   1
_chemical_formula_structural   Li3PO4
_chemical_formula_sum   'Li96 P32 O128'
_cell_volume   3878.23435586
_cell_formula_units_Z   32
loop_
 _symmetry_equiv_pos_site_id
 _symmetry_equiv_pos_as_xyz
  1  'x, y, z'
loop_
 _atom_site_type_symbol
 _atom_site_label
 _atom_site_symmetry_multiplicity
 _atom_site_fract_x
 _atom_site_fract_y
 _atom_site_fract_z
 _atom_site_occupancy
  Li  Li0  1  0.19738023  0.53060158  0.10851751  1
  Li  Li1  1  0.18622911  0.81824476  0.02869258  1
  Li  Li2  1  0.79868226  0.39196062  0.05307692  1
  Li  Li3  1  0.80084313  0.10445744  0.13722104  1
  Li  Li4  1  0.69919711  0.60448363  0.13722238  1
  Li  Li5  1  0.70193191  0.89200834  0.05312499  1
  Li  Li6  1  0.31383656  0.31828357  0.02868342  1
  Li  Li7  1  0.30268322  0.03061641  0.10851196  1
  Li  Li8  1  0.29956660  0.17523485  0.06653683  1
  Li  Li9  1  0.30143081  0.88815979  0.15040834  1
  Li  Li10  1  0.69847278  0.74677021  0.09553326  1
  Li  Li11  1  0.69090150  0.04090422  0.01483287  1
  Li  Li12  1  0.80916305  0.54092452  0.01482988  1
  Li  Li13  1  0.80172502  0.24673086  0.09551050  1
  Li  Li14  1  0.19867608  0.38816556  0.15040798  1
  Li  Li15  1  0.20019668  0.67507251  0.06667291  1
  Li  Li16  1  0.79355312  0.56456562  0.07315762  1
  Li  Li17  1  0.79907040  0.27660003  0.15635898  1
  Li  Li18  1  0.19781740  0.35821192  0.08990645  1
  Li  Li19  1  0.18910331  0.64154973  0.00940074  1
  Li  Li20  1  0.31096520  0.14153210  0.00937711  1
  Li  Li21  1  0.30255899  0.85824611  0.08991971  1
  Li  Li22  1  0.70253508  0.77689776  0.15656615  1
  Li  Li23  1  0.70644893  0.06457972  0.07315476  1
  Li  Li24  1  0.20030612  0.95532303  0.27645347  1
  Li  Li25  1  0.19764959  0.24280652  0.19229969  1
  Li  Li26  1  0.80220927  0.81654788  0.22165176  1
  Li  Li27  1  0.79966412  0.52870652  0.30570972  1
  Li  Li28  1  0.70033899  0.02870689  0.30571144  1
  Li  Li29  1  0.69762716  0.31661588  0.22165565  1
  Li  Li30  1  0.30239118  0.74278895  0.19230141  1
  Li  Li31  1  0.29968354  0.45533586  0.27644559  1
  Li  Li32  1  0.29941045  0.59999297  0.23445929  1
  Li  Li33  1  0.30228794  0.31295870  0.31857891  1
  Li  Li34  1  0.70062214  0.17181474  0.26367824  1
  Li  Li35  1  0.69881331  0.45889164  0.17959864  1
  Li  Li36  1  0.80109573  0.95898186  0.17962655  1
  Li  Li37  1  0.79937368  0.67181200  0.26367852  1
  Li  Li38  1  0.19763720  0.81284400  0.31863709  1
  Li  Li39  1  0.20060259  0.09999462  0.23445954  1
  Li  Li40  1  0.79992228  0.98997604  0.24027256  1
  Li  Li41  1  0.79816085  0.70114751  0.32469941  1
  Li  Li42  1  0.20399206  0.78176094  0.25763723  1
  Li  Li43  1  0.20112791  0.06993925  0.17341126  1
  Li  Li44  1  0.29891120  0.56992996  0.17340762  1
  Li  Li45  1  0.29597790  0.28175767  0.25763097  1
  Li  Li46  1  0.70182504  0.20115915  0.32469953  1
  Li  Li47  1  0.70006737  0.48997527  0.24027039  1
  Li  Li48  1  0.19806505  0.37949023  0.44508650  1
  Li  Li49  1  0.19965623  0.66700534  0.36074839  1
  Li  Li50  1  0.80080085  0.24142231  0.38980793  1
  Li  Li51  1  0.80129226  0.95303263  0.47409101  1
  Li  Li52  1  0.69873202  0.45304925  0.47411404  1
  Li  Li53  1  0.69918708  0.74142143  0.38981081  1
  Li  Li54  1  0.30030069  0.16707725  0.36073983  1
  Li  Li55  1  0.30194205  0.87947596  0.44508826  1
  Li  Li56  1  0.30194550  0.02446059  0.40282737  1
  Li  Li57  1  0.29822990  0.73590046  0.48694433  1
  Li  Li58  1  0.69909330  0.59655629  0.43242171  1
  Li  Li59  1  0.69851818  0.88389132  0.34809538  1
  Li  Li60  1  0.80154777  0.38395955  0.34808514  1
  Li  Li61  1  0.80090924  0.09655724  0.43241737  1
  Li  Li62  1  0.20150726  0.23589808  0.48690836  1
  Li  Li63  1  0.19807998  0.52445594  0.40283468  1
  Li  Li64  1  0.79625975  0.41379252  0.40909182  1
  Li  Li65  1  0.79684079  0.12594761  0.49334864  1
  Li  Li66  1  0.20144908  0.20672484  0.42594918  1
  Li  Li67  1  0.20436755  0.49458267  0.34174469  1
  Li  Li68  1  0.29565398  0.99458233  0.34174511  1
  Li  Li69  1  0.29855007  0.70672457  0.42595566  1
  Li  Li70  1  0.70312292  0.62594516  0.49335067  1
  Li  Li71  1  0.70374058  0.91379948  0.40909363  1
  Li  Li72  1  0.20372174  0.80396454  0.61377109  1
  Li  Li73  1  0.19716122  0.09077580  0.52922018  1
  Li  Li74  1  0.80197666  0.66525588  0.55810703  1
  Li  Li75  1  0.81160345  0.37797267  0.63830167  1
  Li  Li76  1  0.68873627  0.87796633  0.63834476  1
  Li  Li77  1  0.69799901  0.16522413  0.55810241  1
  Li  Li78  1  0.30287573  0.59078181  0.52923413  1
  Li  Li79  1  0.29627088  0.30394545  0.61376157  1
  Li  Li80  1  0.30015537  0.44851693  0.57116342  1
  Li  Li81  1  0.30746367  0.15442591  0.65218979  1
  Li  Li82  1  0.69872078  0.02057167  0.60031998  1
  Li  Li83  1  0.69745227  0.30855255  0.51602696  1
  Li  Li84  1  0.80135923  0.80856207  0.51599458  1
  Li  Li85  1  0.80127160  0.52056379  0.60031172  1
  Li  Li86  1  0.19249094  0.65440997  0.65219894  1
  Li  Li87  1  0.19972609  0.94851782  0.57116506  1
  Li  Li88  1  0.80156474  0.83684620  0.57683055  1
  Li  Li89  1  0.80785910  0.55543292  0.65771100  1
  Li  Li90  1  0.20676984  0.63169708  0.59364459  1
  Li  Li91  1  0.20310220  0.91861768  0.51022712  1
  Li  Li92  1  0.29666738  0.41862602  0.51021874  1
  Li  Li93  1  0.29322145  0.13167042  0.59363553  1
  Li  Li94  1  0.69218631  0.05545300  0.65771433  1
  Li  Li95  1  0.69678675  0.33662394  0.57670798  1
  P  P96  1  0.69235725  0.42679159  0.11692561  1
  P  P97  1  0.69896737  0.71525016  0.03298554  1
  P  P98  1  0.30283162  0.49602484  0.04527909  1
  P  P99  1  0.30666552  0.20787255  0.12903086  1
  P  P100  1  0.19354360  0.70790206  0.12906298  1
  P  P101  1  0.19733903  0.99602436  0.04528355  1
  P  P102  1  0.80109339  0.21524263  0.03295239  1
  P  P103  1  0.80779376  0.92680894  0.11693779  1
  P  P104  1  0.69412431  0.85175725  0.28503225  1
  P  P105  1  0.69338307  0.13946187  0.20077943  1
  P  P106  1  0.30705100  0.91986153  0.21313467  1
  P  P107  1  0.30568033  0.63213712  0.29733874  1
  P  P108  1  0.19430480  0.13215555  0.29733718  1
  P  P109  1  0.19291064  0.41988090  0.21312860  1
  P  P110  1  0.80672076  0.63940456  0.20078818  1
  P  P111  1  0.80581277  0.35177707  0.28502510  1
  P  P112  1  0.69341331  0.27601824  0.45339012  1
  P  P113  1  0.69419300  0.56394594  0.36929915  1
  P  P114  1  0.30635358  0.34456107  0.38153046  1
  P  P115  1  0.30617410  0.05640664  0.46577735  1
  P  P116  1  0.19378561  0.55643497  0.46580039  1
  P  P117  1  0.19363276  0.84454639  0.38154219  1
  P  P118  1  0.80585117  0.06394344  0.36929605  1
  P  P119  1  0.80654422  0.77599470  0.45339395  1
  P  P120  1  0.69862747  0.70023068  0.62160003  1
  P  P121  1  0.69303712  0.98778551  0.53766565  1
  P  P122  1  0.30779629  0.76872294  0.54963333  1
  P  P123  1  0.30003392  0.48076735  0.63397307  1
  P  P124  1  0.20011470  0.98077962  0.63398800  1
  P  P125  1  0.19190716  0.26869018  0.54961325  1
  P  P126  1  0.80676075  0.48777771  0.53766458  1
  P  P127  1  0.80131752  0.20023647  0.62157665  1
  O  O128  1  0.79590420  0.51616355  0.11135863  1
  O  O129  1  0.81007071  0.80350764  0.02910119  1
  O  O130  1  0.20039443  0.40676142  0.05134216  1
  O  O131  1  0.20335434  0.11854833  0.13465948  1
  O  O132  1  0.29679372  0.61854717  0.13466378  1
  O  O133  1  0.29978604  0.90676800  0.05135515  1
  O  O134  1  0.68998602  0.30349939  0.02908281  1
  O  O135  1  0.70417315  0.01616449  0.11136005  1
  O  O136  1  0.71270666  0.18229821  0.06229254  1
  O  O137  1  0.70479827  0.89712708  0.14592636  1
  O  O138  1  0.29570189  0.73763209  0.10001545  1
  O  O139  1  0.30547356  0.02601532  0.01677965  1
  O  O140  1  0.19464326  0.52601831  0.01677809  1
  O  O141  1  0.20441006  0.23760286  0.09998678  1
  O  O142  1  0.79542770  0.39706264  0.14590674  1
  O  O143  1  0.78741840  0.68232730  0.06233042  1
  O  O144  1  0.20398202  0.55487883  0.06881736  1
  O  O145  1  0.20254517  0.26685642  0.15216745  1
  O  O146  1  0.79528968  0.36799641  0.09370312  1
  O  O147  1  0.80565860  0.65660869  0.01002006  1
  O  O148  1  0.69450945  0.15660661  0.00997998  1
  O  O149  1  0.70486615  0.86799159  0.09372426  1
  O  O150  1  0.29765358  0.76688016  0.15220213  1
  O  O151  1  0.29615908  0.05493302  0.06880759  1
  O  O152  1  0.37870108  0.42751631  0.11710401  1
  O  O153  1  0.38251841  0.71731789  0.03204916  1
  O  O154  1  0.61685757  0.49542732  0.04487441  1
  O  O155  1  0.62016368  0.20752124  0.12889422  1
  O  O156  1  0.88004168  0.70758112  0.12894866  1
  O  O157  1  0.88331547  0.99544012  0.04488037  1
  O  O158  1  0.11755472  0.21735715  0.03200556  1
  O  O159  1  0.12144611  0.92754843  0.11711088  1
  O  O160  1  0.79695115  0.94112305  0.27927494  1
  O  O161  1  0.79582252  0.22889660  0.19510843  1
  O  O162  1  0.20453355  0.83043986  0.21880654  1
  O  O163  1  0.20335814  0.54269980  0.30302309  1
  O  O164  1  0.29662807  0.04271954  0.30302137  1
  O  O165  1  0.29548343  0.33046713  0.21880411  1
  O  O166  1  0.70427440  0.72885950  0.19514352  1
  O  O167  1  0.70292527  0.44113512  0.27927150  1
  O  O168  1  0.70321864  0.61001442  0.22981488  1
  O  O169  1  0.70340969  0.32242968  0.31409018  1
  O  O170  1  0.29758103  0.16142469  0.26828739  1
  O  O171  1  0.29616749  0.44942664  0.18411445  1
  O  O172  1  0.20375463  0.94941711  0.18412424  1
  O  O173  1  0.20238404  0.66141445  0.26829126  1
  O  O174  1  0.79663169  0.82239696  0.31409447  1
  O  O175  1  0.79685608  0.11005396  0.22980823  1
  O  O176  1  0.20323246  0.97895195  0.23627202  1
  O  O177  1  0.20204550  0.69121839  0.32048073  1
  O  O178  1  0.79792220  0.79266227  0.26187790  1
  O  O179  1  0.79697575  0.08046829  0.17759879  1
  O  O180  1  0.70305900  0.58044145  0.17760531  1
  O  O181  1  0.70199539  0.29266746  0.26187736  1
  O  O182  1  0.29792647  0.19125922  0.32047318  1
  O  O183  1  0.29676036  0.47897422  0.23626366  1
  O  O184  1  0.38042118  0.85189003  0.28515633  1
  O  O185  1  0.37970022  0.13959466  0.20096952  1
  O  O186  1  0.62067122  0.91973067  0.21298272  1
  O  O187  1  0.61936736  0.63202534  0.29714874  1
  O  O188  1  0.88061225  0.13203494  0.29714883  1
  O  O189  1  0.87930039  0.41974553  0.21298310  1
  O  O190  1  0.12039293  0.63956743  0.20096362  1
  O  O191  1  0.11950449  0.35193480  0.28513445  1
  O  O192  1  0.79574996  0.36552703  0.44780485  1
  O  O193  1  0.79655064  0.65338965  0.36357142  1
  O  O194  1  0.20390865  0.25509506  0.38715144  1
  O  O195  1  0.20394690  0.96692873  0.47141524  1
  O  O196  1  0.29599009  0.46695114  0.47142863  1
  O  O197  1  0.29607631  0.75507673  0.38715853  1
  O  O198  1  0.70345723  0.15338497  0.36356672  1
  O  O199  1  0.70422374  0.86550505  0.44781615  1
  O  O200  1  0.70350038  0.03463106  0.39837340  1
  O  O201  1  0.70344803  0.74625595  0.48238097  1
  O  O202  1  0.29661734  0.58603415  0.43678719  1
  O  O203  1  0.29587932  0.87413313  0.35249345  1
  O  O204  1  0.20411727  0.37415365  0.35248106  1
  O  O205  1  0.20346257  0.08600965  0.43676082  1
  O  O206  1  0.79635249  0.24630956  0.48238630  1
  O  O207  1  0.79651155  0.53462844  0.39837650  1
  O  O208  1  0.20205498  0.40335915  0.40473545  1
  O  O209  1  0.20192052  0.11515501  0.48899762  1
  O  O210  1  0.79741625  0.21736358  0.43014388  1
  O  O211  1  0.79863697  0.50508082  0.34612437  1
  O  O212  1  0.70148203  0.00504759  0.34612505  1
  O  O213  1  0.70260665  0.71736507  0.43013967  1
  O  O214  1  0.29787080  0.61517347  0.48902794  1
  O  O215  1  0.29795639  0.90335948  0.40474019  1
  O  O216  1  0.37973135  0.27612715  0.45353283  1
  O  O217  1  0.38046268  0.56399852  0.36942284  1
  O  O218  1  0.62000772  0.34452863  0.38142362  1
  O  O219  1  0.61984240  0.05641427  0.46568461  1
  O  O220  1  0.88011696  0.55643486  0.46569443  1
  O  O221  1  0.87997977  0.84450901  0.38143965  1
  O  O222  1  0.11958974  0.06402498  0.36941942  1
  O  O223  1  0.12021796  0.77610393  0.45355005  1
  O  O224  1  0.80050639  0.78952538  0.61548455  1
  O  O225  1  0.79598043  0.07719271  0.53209267  1
  O  O226  1  0.20498246  0.67929287  0.55523805  1
  O  O227  1  0.18903097  0.39244417  0.63778827  1
  O  O228  1  0.31126386  0.89247461  0.63780821  1
  O  O229  1  0.29479866  0.17927060  0.55521937  1
  O  O230  1  0.70388228  0.57719668  0.53209438  1
  O  O231  1  0.69941340  0.28951824  0.61544218  1
  O  O232  1  0.70459217  0.45783371  0.56668922  1
  O  O233  1  0.69292636  0.17065426  0.65012767  1
  O  O234  1  0.28783224  0.01361200  0.60460182  1
  O  O235  1  0.29586716  0.29843526  0.52065723  1
  O  O236  1  0.20380982  0.79846096  0.52067728  1
  O  O237  1  0.21214396  0.51362558  0.60459422  1
  O  O238  1  0.80705753  0.67060875  0.65014383  1
  O  O239  1  0.79503363  0.95788350  0.56670209  1
  O  O240  1  0.20531883  0.82735613  0.57293628  1
  O  O241  1  0.19307429  0.53911906  0.65702197  1
  O  O242  1  0.79761999  0.64132151  0.59807945  1
  O  O243  1  0.79722085  0.92921068  0.51440528  1
  O  O244  1  0.70259360  0.42919027  0.51440524  1
  O  O245  1  0.70229253  0.14129660  0.59806226  1
  O  O246  1  0.30703763  0.03917227  0.65702642  1
  O  O247  1  0.29453170  0.32733095  0.57290589  1
  O  O248  1  0.38458217  0.70056940  0.62205063  1
  O  O249  1  0.37943234  0.98806145  0.53775567  1
  O  O250  1  0.62143724  0.76826038  0.54932242  1
  O  O251  1  0.61652552  0.47902269  0.63496692  1
  O  O252  1  0.88361871  0.97901251  0.63498484  1
  O  O253  1  0.87828491  0.26820550  0.54930349  1
  O  O254  1  0.12035246  0.48805361  0.53775338  1
  O  O255  1  0.11537564  0.20053578  0.62202787  1
