# generated using pymatgen
data_Li3PO4
_symmetry_space_group_name_H-M   'P 1'
_cell_length_a   7.91303400
_cell_length_b   14.50933148
_cell_length_c   43.68798000
_cell_angle_alpha   90.00000000
_cell_angle_beta   90.00000000
_cell_angle_gamma   64.42826301
_symmetry_Int_Tables_number   1
_chemical_formula_structural   Li3PO4
_chemical_formula_sum   'Li96 P32 O128'
_cell_volume   4524.60708312
_cell_formula_units_Z   32
loop_
 _symmetry_equiv_pos_site_id
 _symmetry_equiv_pos_as_xyz
  1  'x, y, z'
loop_
 _atom_site_type_symbol
 _atom_site_label
 _atom_site_symmetry_multiplicity
 _atom_site_fract_x
 _atom_site_fract_y
 _atom_site_fract_z
 _atom_site_occupancy
  Li  Li0  1  0.33179053  0.69967774  0.04711251  1
  Li  Li1  1  0.32544177  0.03591199  0.05609460  1
  Li  Li2  1  0.27683481  0.52161042  0.06483740  1
  Li  Li3  1  0.34937375  0.22529082  0.04394687  1
  Li  Li4  1  0.94609571  0.39154004  0.01605263  1
  Li  Li5  1  0.88026249  0.11846776  0.02270396  1
  Li  Li6  1  0.68103992  0.83689113  0.02949044  1
  Li  Li7  1  0.99822782  0.92103035  0.06658771  1
  Li  Li8  1  0.99011632  0.42445842  0.07368869  1
  Li  Li9  1  0.63466817  0.32976927  0.03431143  1
  Li  Li10  1  0.05844931  0.54419149  0.12147494  1
  Li  Li11  1  0.05373645  0.85662527  0.12280097  1
  Li  Li12  1  0.02818427  0.34032334  0.13289805  1
  Li  Li13  1  0.08979674  0.05810997  0.11220441  1
  Li  Li14  1  0.71591297  0.15380383  0.07612833  1
  Li  Li15  1  0.64117273  0.43207252  0.09493081  1
  Li  Li16  1  0.67697340  0.95218930  0.08411211  1
  Li  Li17  1  0.72241549  0.64731508  0.06565091  1
  Li  Li18  1  0.37283945  0.65927386  0.10654058  1
  Li  Li19  1  0.75349405  0.73710271  0.13505291  1
  Li  Li20  1  0.77993078  0.25989617  0.12870562  1
  Li  Li21  1  0.33640587  0.14271334  0.11492557  1
  Li  Li22  1  0.80806393  0.36519827  0.19197360  1
  Li  Li23  1  0.79577606  0.68411361  0.19484082  1
  Li  Li24  1  0.76908456  0.16572494  0.20243957  1
  Li  Li25  1  0.83456171  0.88395195  0.18311573  1
  Li  Li26  1  0.46772369  0.96820752  0.14692153  1
  Li  Li27  1  0.39650810  0.25479676  0.16610248  1
  Li  Li28  1  0.42127274  0.77102268  0.15829257  1
  Li  Li29  1  0.44157840  0.45362899  0.15597342  1
  Li  Li30  1  0.10134383  0.48482091  0.17972282  1
  Li  Li31  1  0.50158451  0.56564220  0.20762935  1
  Li  Li32  1  0.52635292  0.08178986  0.20001334  1
  Li  Li33  1  0.07779552  0.96791062  0.18561966  1
  Li  Li34  1  0.55061830  0.19180908  0.26322470  1
  Li  Li35  1  0.53967769  0.50958490  0.26702875  1
  Li  Li36  1  0.51234747  0.99161316  0.27392901  1
  Li  Li37  1  0.57732200  0.71020507  0.25575083  1
  Li  Li38  1  0.20878027  0.79698718  0.21974175  1
  Li  Li39  1  0.13840883  0.07938824  0.23793016  1
  Li  Li40  1  0.16564059  0.59798582  0.23071336  1
  Li  Li41  1  0.18149231  0.27806651  0.22738632  1
  Li  Li42  1  0.84513034  0.31056962  0.25129903  1
  Li  Li43  1  0.24344259  0.39116904  0.27936643  1
  Li  Li44  1  0.26767413  0.90736364  0.27178772  1
  Li  Li45  1  0.82108622  0.79299531  0.25766181  1
  Li  Li46  1  0.29247585  0.01755739  0.33460423  1
  Li  Li47  1  0.28157690  0.33507236  0.33901690  1
  Li  Li48  1  0.25466712  0.81663444  0.34616875  1
  Li  Li49  1  0.31994029  0.53575515  0.32796385  1
  Li  Li50  1  0.95150048  0.62110627  0.29216845  1
  Li  Li51  1  0.88009461  0.90520789  0.30974639  1
  Li  Li52  1  0.90786947  0.42349768  0.30272685  1
  Li  Li53  1  0.92367533  0.10376190  0.29897483  1
  Li  Li54  1  0.58739899  0.13671782  0.32271339  1
  Li  Li55  1  0.98659697  0.21669896  0.35073214  1
  Li  Li56  1  0.00974895  0.73414731  0.34416571  1
  Li  Li57  1  0.56323532  0.61934110  0.32980249  1
  Li  Li58  1  0.03544131  0.84282394  0.40680588  1
  Li  Li59  1  0.02362677  0.16142446  0.40991672  1
  Li  Li60  1  0.99608192  0.64320225  0.41863961  1
  Li  Li61  1  0.06404890  0.36146214  0.39966024  1
  Li  Li62  1  0.69535899  0.44754200  0.36390578  1
  Li  Li63  1  0.62247948  0.73110057  0.38196040  1
  Li  Li64  1  0.65048434  0.24915567  0.37449527  1
  Li  Li65  1  0.66580777  0.92945051  0.37105726  1
  Li  Li66  1  0.32910866  0.96111637  0.39399332  1
  Li  Li67  1  0.72883509  0.04166882  0.42235187  1
  Li  Li68  1  0.75417048  0.55947545  0.41620109  1
  Li  Li69  1  0.30710065  0.44605410  0.40189799  1
  Li  Li70  1  0.77659595  0.67004287  0.47932280  1
  Li  Li71  1  0.77394051  0.98209181  0.48066929  1
  Li  Li72  1  0.74158016  0.46897941  0.48966590  1
  Li  Li73  1  0.80174655  0.18690923  0.46910832  1
  Li  Li74  1  0.43295535  0.27285244  0.43589367  1
  Li  Li75  1  0.36352723  0.55905988  0.45469683  1
  Li  Li76  1  0.39097772  0.07267488  0.44601307  1
  Li  Li77  1  0.41051946  0.75562322  0.44330172  1
  Li  Li78  1  0.07835025  0.78932515  0.46643029  1
  Li  Li79  1  0.45881989  0.86753505  0.49507491  1
  Li  Li80  1  0.49469554  0.38420521  0.48685244  1
  Li  Li81  1  0.05026358  0.26730029  0.47327727  1
  Li  Li82  1  0.50546569  0.49071437  0.54577796  1
  Li  Li83  1  0.49971763  0.82745599  0.55441102  1
  Li  Li84  1  0.47778875  0.30184069  0.55848006  1
  Li  Li85  1  0.55641629  0.00449906  0.53741163  1
  Li  Li86  1  0.19001122  0.09394537  0.50667682  1
  Li  Li87  1  0.11452243  0.37370065  0.52584406  1
  Li  Li88  1  0.11007663  0.87864572  0.53683812  1
  Li  Li89  1  0.15421940  0.57559109  0.51743751  1
  Li  Li90  1  0.83142867  0.60650202  0.53552490  1
  Li  Li91  1  0.14976091  0.68895258  0.57297830  1
  Li  Li92  1  0.19946252  0.19674301  0.56628635  1
  Li  Li93  1  0.84080387  0.10321289  0.52836718  1
  Li  Li94  1  0.88565778  0.13827195  0.58577699  1
  Li  Li95  1  0.95101804  0.40691348  0.57971396  1
  P  P96  1  0.65538596  0.04274625  0.02184282  1
  P  P97  1  0.62488103  0.50532007  0.03141874  1
  P  P98  1  0.00202905  0.24303333  0.06890378  1
  P  P99  1  0.96359702  0.72097590  0.07718101  1
  P  P100  1  0.41053892  0.85262327  0.09152825  1
  P  P101  1  0.37510483  0.33659646  0.10209743  1
  P  P102  1  0.74060338  0.06532240  0.13963183  1
  P  P103  1  0.70865009  0.54371738  0.14924528  1
  P  P104  1  0.14885889  0.68019751  0.16592085  1
  P  P105  1  0.12044097  0.15944876  0.17392005  1
  P  P106  1  0.48375156  0.88998448  0.21174238  1
  P  P107  1  0.45471604  0.36989150  0.22064607  1
  P  P108  1  0.89189199  0.50568023  0.23809834  1
  P  P109  1  0.86242327  0.98566242  0.24547388  1
  P  P110  1  0.22629517  0.71536989  0.28419787  1
  P  P111  1  0.19708039  0.19582965  0.29212716  1
  P  P112  1  0.63459402  0.33156137  0.30976525  1
  P  P113  1  0.60501682  0.81151882  0.31759573  1
  P  P114  1  0.96977745  0.54121991  0.35644342  1
  P  P115  1  0.93927036  0.02139197  0.36368588  1
  P  P116  1  0.37670142  0.15714985  0.38133103  1
  P  P117  1  0.34811657  0.63718263  0.38998612  1
  P  P118  1  0.71133343  0.36772227  0.42796776  1
  P  P119  1  0.68238757  0.84661101  0.43594077  1
  P  P120  1  0.12262600  0.98302117  0.45242896  1
  P  P121  1  0.09075915  0.46181889  0.46222428  1
  P  P122  1  0.45517183  0.19004496  0.49999821  1
  P  P123  1  0.42155405  0.67411675  0.51022733  1
  P  P124  1  0.86909954  0.80524363  0.52465695  1
  P  P125  1  0.82784851  0.28439656  0.53289538  1
  P  P126  1  0.20652417  0.02159658  0.57026370  1
  P  P127  1  0.17505225  0.48371713  0.58015882  1
  O  O128  1  0.45080100  0.09046476  0.03444871  1
  O  O129  1  0.49033305  0.61063561  0.02034841  1
  O  O130  1  0.85630577  0.21810090  0.05151988  1
  O  O131  1  0.80126177  0.51000888  0.04727369  1
  O  O132  1  0.78921908  0.03032364  0.05165266  1
  O  O133  1  0.86372874  0.72120669  0.04707156  1
  O  O134  1  0.70898554  0.93698234  0.00865753  1
  O  O135  1  0.70302895  0.41844275  0.00728623  1
  O  O136  1  0.68419058  0.12156639  0.00162627  1
  O  O137  1  0.52765277  0.46274681  0.05586226  1
  O  O138  1  0.08747200  0.29648023  0.04697146  1
  O  O139  1  0.18127514  0.66149390  0.07397390  1
  O  O140  1  0.19253249  0.91915085  0.09341284  1
  O  O141  1  0.20631720  0.43739074  0.09120303  1
  O  O142  1  0.15729915  0.14261211  0.08201810  1
  O  O143  1  0.59798676  0.03749796  0.12167930  1
  O  O144  1  0.51922052  0.36286901  0.11993899  1
  O  O145  1  0.49373599  0.84483921  0.12436567  1
  O  O146  1  0.61319206  0.54924512  0.11806113  1
  O  O147  1  0.45211693  0.74522688  0.07876655  1
  O  O148  1  0.91866175  0.83207020  0.08817710  1
  O  O149  1  0.90422458  0.31994302  0.09553503  1
  O  O150  1  0.47015271  0.26863022  0.07406941  1
  O  O151  1  0.89455703  0.66516002  0.10112395  1
  O  O152  1  0.49357855  0.90671275  0.06945435  1
  O  O153  1  0.29619371  0.28041385  0.12445352  1
  O  O154  1  0.81963728  0.12191418  0.11752910  1
  O  O155  1  0.92625011  0.48076294  0.14648096  1
  O  O156  1  0.93229424  0.74394366  0.16839117  1
  O  O157  1  0.95624001  0.25910140  0.16169930  1
  O  O158  1  0.90588248  0.96558198  0.15146365  1
  O  O159  1  0.33983625  0.86240132  0.19421382  1
  O  O160  1  0.26357571  0.18802885  0.19122669  1
  O  O161  1  0.23987445  0.67337390  0.19807328  1
  O  O162  1  0.36446518  0.37769295  0.18840647  1
  O  O163  1  0.19442425  0.57058964  0.15447219  1
  O  O164  1  0.66436831  0.65283503  0.16135601  1
  O  O165  1  0.64167573  0.13569725  0.16724322  1
  O  O166  1  0.21931814  0.08698233  0.14666880  1
  O  O167  1  0.63434905  0.48812723  0.17265881  1
  O  O168  1  0.22878910  0.73436813  0.14307751  1
  O  O169  1  0.03913133  0.10557754  0.19646494  1
  O  O170  1  0.56500322  0.94366081  0.18896492  1
  O  O171  1  0.67130506  0.30555204  0.21822326  1
  O  O172  1  0.67559624  0.56943785  0.24075549  1
  O  O173  1  0.69838414  0.08548284  0.23342193  1
  O  O174  1  0.64643140  0.79053280  0.22423845  1
  O  O175  1  0.08285490  0.68716859  0.26679875  1
  O  O176  1  0.00614052  0.01347412  0.26296925  1
  O  O177  1  0.98295190  0.49724497  0.27030275  1
  O  O178  1  0.10621616  0.20404121  0.25992052  1
  O  O179  1  0.93716993  0.39689872  0.22577853  1
  O  O180  1  0.41010197  0.47859592  0.23290230  1
  O  O181  1  0.38511364  0.96263336  0.23895036  1
  O  O182  1  0.96067917  0.91411896  0.21803933  1
  O  O183  1  0.37373890  0.31519641  0.24304657  1
  O  O184  1  0.97202120  0.56090524  0.21574753  1
  O  O185  1  0.78228286  0.93101273  0.26801905  1
  O  O186  1  0.30685450  0.76951735  0.26149197  1
  O  O187  1  0.41357036  0.13193053  0.28954011  1
  O  O188  1  0.41814685  0.39530387  0.31237332  1
  O  O189  1  0.44195804  0.91094164  0.30513600  1
  O  O190  1  0.38997293  0.61598548  0.29658046  1
  O  O191  1  0.82633520  0.51332856  0.33889288  1
  O  O192  1  0.74837886  0.83955929  0.33509777  1
  O  O193  1  0.72561176  0.32330905  0.34195310  1
  O  O194  1  0.84769488  0.02980045  0.33153121  1
  O  O195  1  0.67946596  0.22301821  0.29731010  1
  O  O196  1  0.15254199  0.30429563  0.30461196  1
  O  O197  1  0.12737763  0.78791530  0.31139276  1
  O  O198  1  0.70433757  0.73879903  0.29046102  1
  O  O199  1  0.11641493  0.14076584  0.31443059  1
  O  O200  1  0.71504996  0.38671122  0.28744352  1
  O  O201  1  0.52426279  0.75739081  0.34026046  1
  O  O202  1  0.05007086  0.59576891  0.33387797  1
  O  O203  1  0.15557446  0.95766089  0.36090818  1
  O  O204  1  0.16017504  0.22152439  0.38376473  1
  O  O205  1  0.18545114  0.73654357  0.37745789  1
  O  O206  1  0.13372547  0.44161945  0.36861842  1
  O  O207  1  0.56822648  0.33917520  0.41063898  1
  O  O208  1  0.49207085  0.66478002  0.40747556  1
  O  O209  1  0.46679947  0.14907917  0.41359274  1
  O  O210  1  0.59103077  0.85417020  0.40377548  1
  O  O211  1  0.42140851  0.04862714  0.36889610  1
  O  O212  1  0.89438160  0.13011576  0.37601430  1
  O  O213  1  0.87095423  0.61311358  0.38378105  1
  O  O214  1  0.44703021  0.56424080  0.36286213  1
  O  O215  1  0.85957442  0.96613600  0.38610467  1
  O  O216  1  0.45783051  0.21214553  0.35905227  1
  O  O217  1  0.26645102  0.58384564  0.41280817  1
  O  O218  1  0.79333175  0.42140671  0.40546539  1
  O  O219  1  0.89892900  0.78304447  0.43329489  1
  O  O220  1  0.90506204  0.04604724  0.45533953  1
  O  O221  1  0.92540514  0.56142974  0.45035548  1
  O  O222  1  0.87491054  0.26796711  0.44028409  1
  O  O223  1  0.31148877  0.16387040  0.48200528  1
  O  O224  1  0.23327582  0.48979620  0.48012857  1
  O  O225  1  0.21862036  0.97708037  0.48357919  1
  O  O226  1  0.33855835  0.68210827  0.47736385  1
  O  O227  1  0.16683038  0.87400553  0.44024102  1
  O  O228  1  0.63705470  0.95595855  0.44763535  1
  O  O229  1  0.61190847  0.44036384  0.45515228  1
  O  O230  1  0.19020935  0.39150628  0.43464744  1
  O  O231  1  0.60297140  0.79196541  0.45868323  1
  O  O232  1  0.19707055  0.03864711  0.42905689  1
  O  O233  1  0.01199617  0.40515883  0.48435461  1
  O  O234  1  0.53355464  0.24683617  0.47775419  1
  O  O235  1  0.63958177  0.60774082  0.50834534  1
  O  O236  1  0.65145227  0.86514294  0.52784805  1
  O  O237  1  0.67350273  0.38478596  0.51963837  1
  O  O238  1  0.62469506  0.08945278  0.51084629  1
  O  O239  1  0.02901783  0.01739824  0.55470107  1
  O  O240  1  0.97372803  0.30911511  0.55030309  1
  O  O241  1  0.96898892  0.80426276  0.55483942  1
  O  O242  1  0.04011189  0.49681706  0.55052908  1
  O  O243  1  0.91272523  0.69441869  0.51360707  1
  O  O244  1  0.38019947  0.78138684  0.52307528  1
  O  O245  1  0.35928776  0.25735049  0.52815894  1
  O  O246  1  0.92603195  0.20693675  0.50639728  1
  O  O247  1  0.33844609  0.61983085  0.53221707  1
  O  O248  1  0.93873577  0.86090035  0.50077481  1
  O  O249  1  0.74127800  0.23165696  0.55490053  1
  O  O250  1  0.30440408  0.06289699  0.54556196  1
  O  O251  1  0.37917592  0.43693829  0.56734625  1
  O  O252  1  0.34034358  0.91606425  0.58134330  1
  O  O253  1  0.12131409  0.58899295  0.59373191  1
  O  O254  1  0.13049132  0.10911491  0.59420092  1
  O  O255  1  0.14910003  0.40356595  0.60019506  1
