# generated using pymatgen
data_Li3PO4
_symmetry_space_group_name_H-M   'P 1'
_cell_length_a   10.55485100
_cell_length_b   7.91303400
_cell_length_c   42.56477900
_cell_angle_alpha   90.00000000
_cell_angle_beta   90.00000000
_cell_angle_gamma   90.00000000
_symmetry_Int_Tables_number   1
_chemical_formula_structural   Li3PO4
_chemical_formula_sum   'Li72 P24 O96'
_cell_volume   3555.04843023
_cell_formula_units_Z   24
loop_
 _symmetry_equiv_pos_site_id
 _symmetry_equiv_pos_as_xyz
  1  'x, y, z'
loop_
 _atom_site_type_symbol
 _atom_site_label
 _atom_site_symmetry_multiplicity
 _atom_site_fract_x
 _atom_site_fract_y
 _atom_site_fract_z
 _atom_site_occupancy
  Li  Li0  1  0.77298852  0.33835167  0.00398096  1
  Li  Li1  1  0.68689118  0.26907451  0.06407946  1
  Li  Li2  1  0.72702545  0.83833661  0.00398938  1
  Li  Li3  1  0.81314245  0.76913205  0.06413940  1
  Li  Li4  1  0.08725514  0.01464175  0.06405733  1
  Li  Li5  1  0.92710993  0.42345586  0.07244188  1
  Li  Li6  1  0.41275781  0.51464583  0.06405948  1
  Li  Li7  1  0.57283717  0.92326207  0.07246764  1
  Li  Li8  1  0.15828141  0.89495099  0.13749389  1
  Li  Li9  1  0.83872677  0.04502730  0.10280307  1
  Li  Li10  1  0.33615089  0.07212784  0.10112938  1
  Li  Li11  1  0.66569292  0.84714854  0.14890563  1
  Li  Li12  1  0.66124667  0.54498058  0.10279984  1
  Li  Li13  1  0.34170285  0.39494303  0.13749419  1
  Li  Li14  1  0.83429641  0.34714636  0.14891050  1
  Li  Li15  1  0.16382674  0.57210200  0.10113134  1
  Li  Li16  1  0.07308099  0.50387851  0.17098086  1
  Li  Li17  1  0.92518690  0.03947395  0.16217139  1
  Li  Li18  1  0.42679020  0.00376814  0.17098416  1
  Li  Li19  1  0.57480344  0.53945772  0.16217190  1
  Li  Li20  1  0.16344924  0.49697695  0.23017346  1
  Li  Li21  1  0.83469910  0.64873952  0.19387205  1
  Li  Li22  1  0.33445485  0.69267691  0.18395453  1
  Li  Li23  1  0.66417218  0.45606837  0.23977415  1
  Li  Li24  1  0.66528471  0.14873798  0.19387080  1
  Li  Li25  1  0.33654149  0.99698474  0.23017338  1
  Li  Li26  1  0.83581586  0.95607068  0.23977443  1
  Li  Li27  1  0.16553132  0.19268199  0.18395256  1
  Li  Li28  1  0.07507023  0.10732137  0.26222707  1
  Li  Li29  1  0.92519775  0.64589459  0.25330474  1
  Li  Li30  1  0.42491315  0.60731450  0.26222875  1
  Li  Li31  1  0.57481388  0.14588924  0.25330719  1
  Li  Li32  1  0.16333358  0.10189189  0.32164649  1
  Li  Li33  1  0.83672530  0.25610122  0.28517950  1
  Li  Li34  1  0.33613607  0.29713338  0.27538834  1
  Li  Li35  1  0.66329513  0.06121149  0.33125135  1
  Li  Li36  1  0.66326948  0.75609458  0.28517882  1
  Li  Li37  1  0.33669119  0.60187209  0.32166342  1
  Li  Li38  1  0.83670404  0.56121513  0.33125288  1
  Li  Li39  1  0.16385143  0.79712232  0.27538781  1
  Li  Li40  1  0.07496540  0.71303587  0.35360174  1
  Li  Li41  1  0.92490014  0.25076223  0.34486061  1
  Li  Li42  1  0.42503012  0.21302776  0.35359961  1
  Li  Li43  1  0.57510945  0.75076142  0.34485960  1
  Li  Li44  1  0.16475146  0.71071161  0.41287067  1
  Li  Li45  1  0.83643525  0.86129033  0.37657638  1
  Li  Li46  1  0.33705195  0.90280400  0.36694443  1
  Li  Li47  1  0.66575870  0.66656086  0.42277342  1
  Li  Li48  1  0.66357590  0.36129239  0.37657415  1
  Li  Li49  1  0.33542195  0.21067992  0.41287746  1
  Li  Li50  1  0.83425170  0.16655960  0.42277475  1
  Li  Li51  1  0.16294878  0.40278422  0.36694612  1
  Li  Li52  1  0.07476198  0.32070655  0.44465261  1
  Li  Li53  1  0.92780243  0.85670352  0.43601188  1
  Li  Li54  1  0.42524255  0.82071024  0.44465287  1
  Li  Li55  1  0.57221471  0.35670104  0.43601302  1
  Li  Li56  1  0.16006079  0.31292751  0.50410080  1
  Li  Li57  1  0.84199297  0.46627444  0.46922868  1
  Li  Li58  1  0.33370817  0.51352966  0.45777166  1
  Li  Li59  1  0.66485458  0.28718964  0.50585158  1
  Li  Li60  1  0.65801270  0.96629404  0.46922692  1
  Li  Li61  1  0.33993542  0.81291548  0.50409611  1
  Li  Li62  1  0.83516347  0.78720343  0.50584316  1
  Li  Li63  1  0.16629286  0.01353975  0.45777080  1
  Li  Li64  1  0.07227183  0.93381266  0.53438911  1
  Li  Li65  1  0.91324572  0.34328518  0.54286929  1
  Li  Li66  1  0.42773819  0.43379513  0.53438754  1
  Li  Li67  1  0.58701395  0.84299247  0.54280612  1
  Li  Li68  1  0.22860365  0.01796108  0.60285150  1
  Li  Li69  1  0.31180509  0.08719272  0.54253091  1
  Li  Li70  1  0.27143390  0.51798491  0.60285042  1
  Li  Li71  1  0.18820695  0.58719398  0.54253159  1
  P  P72  1  0.90160701  0.09889627  0.03299907  1
  P  P73  1  0.59839499  0.59885722  0.03299861  1
  P  P74  1  0.08844236  0.24768962  0.11555661  1
  P  P75  1  0.91320876  0.69266253  0.12601284  1
  P  P76  1  0.41148582  0.74766494  0.11555882  1
  P  P77  1  0.58677544  0.19268484  0.12600442  1
  P  P78  1  0.08805280  0.84702845  0.20666932  1
  P  P79  1  0.91192559  0.30069695  0.21726890  1
  P  P80  1  0.41189829  0.34701829  0.20666772  1
  P  P81  1  0.58804486  0.80070193  0.21726794  1
  P  P82  1  0.08862360  0.45173721  0.29826384  1
  P  P83  1  0.91136426  0.90672809  0.30853776  1
  P  P84  1  0.41136518  0.95173297  0.29826261  1
  P  P85  1  0.58863130  0.40672160  0.30853630  1
  P  P86  1  0.08842365  0.05789743  0.38950201  1
  P  P87  1  0.91185465  0.51216973  0.40013656  1
  P  P88  1  0.41162074  0.55787661  0.38950311  1
  P  P89  1  0.58815868  0.01216596  0.40013522  1
  P  P90  1  0.08704628  0.66654071  0.48089568  1
  P  P91  1  0.91164738  0.11173208  0.49114827  1
  P  P92  1  0.41294876  0.16654538  0.48089769  1
  P  P93  1  0.58836528  0.61171159  0.49113537  1
  P  P94  1  0.09861523  0.25670598  0.57396062  1
  P  P95  1  0.40143548  0.75673482  0.57393843  1
  O  O96  1  0.84553709  0.27599910  0.04439976  1
  O  O97  1  0.68979050  0.54569732  0.00626031  1
  O  O98  1  0.65451662  0.77589419  0.04442035  1
  O  O99  1  0.81018628  0.04575813  0.00626399  1
  O  O100  1  0.04150257  0.11117005  0.02503312  1
  O  O101  1  0.45849857  0.61123474  0.02503861  1
  O  O102  1  0.08661174  0.37362745  0.08794190  1
  O  O103  1  0.89429382  0.97404624  0.06227302  1
  O  O104  1  0.41323362  0.87360627  0.08794312  1
  O  O105  1  0.60568447  0.47397405  0.06226689  1
  O  O106  1  0.15844169  0.08254721  0.10512796  1
  O  O107  1  0.84214985  0.85947658  0.13458336  1
  O  O108  1  0.33919949  0.82960875  0.14383613  1
  O  O109  1  0.65428150  0.11012543  0.09685391  1
  O  O110  1  0.65782742  0.35950184  0.13458220  1
  O  O111  1  0.34152752  0.58250596  0.10512636  1
  O  O112  1  0.84569532  0.61006578  0.09686877  1
  O  O113  1  0.16074264  0.32969027  0.14382828  1
  O  O114  1  0.05349113  0.72804365  0.11838154  1
  O  O115  1  0.95061321  0.20062930  0.12557595  1
  O  O116  1  0.44647886  0.22804544  0.11838518  1
  O  O117  1  0.54934640  0.70067820  0.12556146  1
  O  O118  1  0.08957557  0.97053474  0.17807740  1
  O  O119  1  0.90460034  0.56878494  0.15451206  1
  O  O120  1  0.41038068  0.47053317  0.17807812  1
  O  O121  1  0.59538566  0.06879668  0.15450320  1
  O  O122  1  0.15762681  0.68029477  0.19743797  1
  O  O123  1  0.84166553  0.46674462  0.22663092  1
  O  O124  1  0.34184485  0.43095444  0.23495346  1
  O  O125  1  0.65840221  0.71544039  0.18917494  1
  O  O126  1  0.65831376  0.96673917  0.22663203  1
  O  O127  1  0.34233765  0.18028401  0.19743575  1
  O  O128  1  0.84156887  0.21544205  0.18917530  1
  O  O129  1  0.15810926  0.93097375  0.23495375  1
  O  O130  1  0.05059745  0.34187326  0.20764147  1
  O  O131  1  0.94879668  0.80621889  0.21603855  1
  O  O132  1  0.44937615  0.84189290  0.20764072  1
  O  O133  1  0.55115540  0.30621669  0.21603809  1
  O  O134  1  0.08935552  0.57492237  0.26961120  1
  O  O135  1  0.91113796  0.17757973  0.24591305  1
  O  O136  1  0.41063505  0.07492553  0.26961133  1
  O  O137  1  0.58882544  0.67758588  0.24591292  1
  O  O138  1  0.15889435  0.28577955  0.28885749  1
  O  O139  1  0.84107358  0.07258328  0.31798798  1
  O  O140  1  0.34141042  0.03644854  0.32647522  1
  O  O141  1  0.65869208  0.32212577  0.28032535  1
  O  O142  1  0.65892159  0.57257269  0.31798966  1
  O  O143  1  0.34107954  0.78578420  0.28886043  1
  O  O144  1  0.84130083  0.82212613  0.28032811  1
  O  O145  1  0.15858539  0.53646143  0.32647560  1
  O  O146  1  0.05026656  0.94768988  0.29901455  1
  O  O147  1  0.94973570  0.41055101  0.30779326  1
  O  O148  1  0.44972414  0.44771571  0.29901767  1
  O  O149  1  0.55025042  0.91054456  0.30779336  1
  O  O150  1  0.08892020  0.18090455  0.36085189  1
  O  O151  1  0.91073992  0.78332663  0.33716916  1
  O  O152  1  0.41108741  0.68091950  0.36085743  1
  O  O153  1  0.58925270  0.28331388  0.33716603  1
  O  O154  1  0.15867360  0.89190337  0.38010768  1
  O  O155  1  0.84246284  0.67896225  0.40936142  1
  O  O156  1  0.34120086  0.64339781  0.41755267  1
  O  O157  1  0.65814804  0.92779304  0.37188578  1
  O  O158  1  0.65754469  0.17895616  0.40936024  1
  O  O159  1  0.34138048  0.39188627  0.38010326  1
  O  O160  1  0.84186460  0.42780320  0.37188548  1
  O  O161  1  0.15883143  0.14345451  0.41755109  1
  O  O162  1  0.05110184  0.55291337  0.39076712  1
  O  O163  1  0.94973668  0.01672552  0.39916955  1
  O  O164  1  0.44891364  0.05289818  0.39076375  1
  O  O165  1  0.55030749  0.51672333  0.39916873  1
  O  O166  1  0.09598267  0.79055398  0.45241556  1
  O  O167  1  0.91042184  0.38873200  0.42874629  1
  O  O168  1  0.40403092  0.29056987  0.45241696  1
  O  O169  1  0.58959491  0.88873647  0.42874497  1
  O  O170  1  0.15746642  0.49922364  0.47229393  1
  O  O171  1  0.84221250  0.27708676  0.50170301  1
  O  O172  1  0.34505017  0.24803408  0.51007463  1
  O  O173  1  0.66105985  0.53027294  0.46288161  1
  O  O174  1  0.65785299  0.77706151  0.50167958  1
  O  O175  1  0.34253047  0.99922329  0.47229160  1
  O  O176  1  0.83894246  0.03034381  0.46289049  1
  O  O177  1  0.15494068  0.74802047  0.51007156  1
  O  O178  1  0.04943395  0.15840912  0.48107776  1
  O  O179  1  0.94661094  0.63210152  0.48852412  1
  O  O180  1  0.45058845  0.65842978  0.48107058  1
  O  O181  1  0.55338705  0.13212035  0.48853018  1
  O  O182  1  0.10650084  0.38227376  0.54478224  1
  O  O183  1  0.91337148  0.98532771  0.51868606  1
  O  O184  1  0.39352147  0.88226991  0.54475852  1
  O  O185  1  0.58663710  0.48536208  0.51868206  1
  O  O186  1  0.15419007  0.07953940  0.56250132  1
  O  O187  1  0.30990491  0.80869630  0.60074083  1
  O  O188  1  0.34584289  0.57954293  0.56248984  1
  O  O189  1  0.19017908  0.30865282  0.60075335  1
  O  O190  1  0.95856127  0.24524515  0.58181431  1
  O  O191  1  0.54149952  0.74525499  0.58178362  1
