# generated using pymatgen
data_Li3PO4
_symmetry_space_group_name_H-M   'P 1'
_cell_length_a   7.91303400
_cell_length_b   14.50933148
_cell_length_c   43.68798000
_cell_angle_alpha   90.00000000
_cell_angle_beta   90.00000000
_cell_angle_gamma   64.42826301
_symmetry_Int_Tables_number   1
_chemical_formula_structural   Li3PO4
_chemical_formula_sum   'Li84 P28 O112'
_cell_volume   4524.60708312
_cell_formula_units_Z   28
loop_
 _symmetry_equiv_pos_site_id
 _symmetry_equiv_pos_as_xyz
  1  'x, y, z'
loop_
 _atom_site_type_symbol
 _atom_site_label
 _atom_site_symmetry_multiplicity
 _atom_site_fract_x
 _atom_site_fract_y
 _atom_site_fract_z
 _atom_site_occupancy
  Li  Li0  1  0.24300426  0.56235952  0.04470810  1
  Li  Li1  1  0.35805393  0.26797336  0.03830723  1
  Li  Li2  1  0.77173855  0.21485108  0.06211695  1
  Li  Li3  1  0.74714052  0.67394808  0.07265200  1
  Li  Li4  1  0.65798349  0.83120000  0.02911416  1
  Li  Li5  1  0.22799299  0.83941574  0.05393982  1
  Li  Li6  1  0.11934085  0.57549661  0.10643224  1
  Li  Li7  1  0.10403767  0.90049327  0.10746636  1
  Li  Li8  1  0.07951979  0.37609850  0.11424306  1
  Li  Li9  1  0.15233168  0.10419846  0.08759023  1
  Li  Li10  1  0.51461793  0.01115425  0.13228482  1
  Li  Li11  1  0.72068615  0.45574090  0.08400041  1
  Li  Li12  1  0.73226851  0.97477315  0.07478922  1
  Li  Li13  1  0.49258842  0.48750663  0.14133430  1
  Li  Li14  1  0.41163460  0.68677213  0.09147424  1
  Li  Li15  1  0.81271452  0.77871889  0.12282236  1
  Li  Li16  1  0.84994974  0.28856142  0.11389605  1
  Li  Li17  1  0.39312214  0.18651299  0.09901471  1
  Li  Li18  1  0.86333876  0.40409061  0.17599252  1
  Li  Li19  1  0.85069961  0.72122036  0.18032773  1
  Li  Li20  1  0.82726214  0.20358890  0.18657594  1
  Li  Li21  1  0.88965388  0.92284766  0.16851018  1
  Li  Li22  1  0.26294766  0.83491326  0.20475688  1
  Li  Li23  1  0.45240143  0.29186616  0.15155830  1
  Li  Li24  1  0.47161746  0.80922070  0.14364958  1
  Li  Li25  1  0.23834174  0.31547431  0.21198069  1
  Li  Li26  1  0.15725102  0.51987838  0.16451392  1
  Li  Li27  1  0.55740146  0.60324452  0.19214824  1
  Li  Li28  1  0.58174171  0.11940783  0.18440556  1
  Li  Li29  1  0.13294256  0.00631185  0.17000192  1
  Li  Li30  1  0.60703104  0.22928364  0.24775331  1
  Li  Li31  1  0.59396303  0.54742678  0.25196612  1
  Li  Li32  1  0.56657860  0.02966496  0.25857608  1
  Li  Li33  1  0.63148072  0.74826275  0.24035245  1
  Li  Li34  1  0.00588268  0.65943134  0.27672504  1
  Li  Li35  1  0.19305478  0.11791095  0.22247498  1
  Li  Li36  1  0.22157727  0.63587330  0.21540906  1
  Li  Li37  1  0.97660308  0.14225077  0.28392510  1
  Li  Li38  1  0.90097587  0.34798037  0.23576565  1
  Li  Li39  1  0.29958822  0.42850191  0.26417618  1
  Li  Li40  1  0.32159915  0.94628488  0.25683577  1
  Li  Li41  1  0.87504608  0.83186691  0.24249069  1
  Li  Li42  1  0.34639729  0.05422999  0.31958107  1
  Li  Li43  1  0.33636697  0.37282641  0.32379249  1
  Li  Li44  1  0.30969633  0.85363059  0.33084663  1
  Li  Li45  1  0.37415234  0.57261364  0.31283169  1
  Li  Li46  1  0.74815991  0.48365518  0.34911879  1
  Li  Li47  1  0.93397036  0.94254626  0.29470006  1
  Li  Li48  1  0.96338711  0.45958686  0.28746069  1
  Li  Li49  1  0.71997781  0.96497904  0.35600654  1
  Li  Li50  1  0.64195321  0.17345851  0.30730858  1
  Li  Li51  1  0.04145637  0.25379904  0.33579479  1
  Li  Li52  1  0.06536692  0.77018280  0.32904389  1
  Li  Li53  1  0.61929220  0.65546879  0.31463095  1
  Li  Li54  1  0.09039578  0.88057125  0.39078853  1
  Li  Li55  1  0.07809439  0.19836253  0.39575201  1
  Li  Li56  1  0.05198581  0.67867097  0.40286900  1
  Li  Li57  1  0.11402613  0.39770761  0.38520955  1
  Li  Li58  1  0.48922615  0.30949306  0.41995380  1
  Li  Li59  1  0.67844443  0.76627263  0.36638759  1
  Li  Li60  1  0.70301481  0.28615410  0.35962548  1
  Li  Li61  1  0.46990574  0.79146040  0.42792194  1
  Li  Li62  1  0.38427778  0.99858089  0.37936412  1
  Li  Li63  1  0.78322519  0.08231587  0.40680321  1
  Li  Li64  1  0.80781127  0.59563281  0.40141264  1
  Li  Li65  1  0.35876212  0.48166363  0.38719827  1
  Li  Li66  1  0.83838226  0.70127429  0.46393035  1
  Li  Li67  1  0.82109812  0.02532793  0.46466232  1
  Li  Li68  1  0.78799086  0.49770331  0.48388152  1
  Li  Li69  1  0.86069258  0.22415051  0.45741493  1
  Li  Li70  1  0.22069367  0.14349770  0.48775560  1
  Li  Li71  1  0.42393391  0.59070809  0.43893472  1
  Li  Li72  1  0.44708597  0.11496608  0.42999028  1
  Li  Li73  1  0.20969057  0.62642484  0.49715801  1
  Li  Li74  1  0.12995095  0.82233000  0.44808097  1
  Li  Li75  1  0.52953340  0.91533659  0.47997960  1
  Li  Li76  1  0.54844192  0.41496638  0.47236019  1
  Li  Li77  1  0.08962275  0.31235502  0.45798285  1
  Li  Li78  1  0.58268218  0.33301351  0.53322073  1
  Li  Li79  1  0.69899674  0.03935320  0.52686818  1
  Li  Li80  1  0.16886257  0.38631758  0.50953114  1
  Li  Li81  1  0.19345010  0.92657219  0.49832301  1
  Li  Li82  1  0.71348637  0.76131029  0.51735814  1
  Li  Li83  1  0.28151795  0.77028289  0.54189570  1
  P  P84  1  0.01055736  0.75277679  0.06167514  1
  P  P85  1  0.05562020  0.28125938  0.05192126  1
  P  P86  1  0.76491450  0.58210094  0.13342285  1
  P  P87  1  0.46582162  0.89289583  0.07822749  1
  P  P88  1  0.43324885  0.37610049  0.08890432  1
  P  P89  1  0.80005346  0.10094740  0.12436057  1
  P  P90  1  0.50990699  0.40810704  0.20569523  1
  P  P91  1  0.20450866  0.71737306  0.15065197  1
  P  P92  1  0.17744854  0.19734624  0.15832899  1
  P  P93  1  0.53823600  0.92759958  0.19663588  1
  P  P94  1  0.25209071  0.23321652  0.27692880  1
  P  P95  1  0.94760345  0.54329012  0.22271264  1
  P  P96  1  0.91743859  0.02400936  0.23034333  1
  P  P97  1  0.28094805  0.75317375  0.26898797  1
  P  P98  1  0.99395972  0.05835253  0.34875424  1
  P  P99  1  0.68932938  0.36849962  0.29458940  1
  P  P100  1  0.65984423  0.84878113  0.30235342  1
  P  P101  1  0.02378314  0.57736979  0.34109976  1
  P  P102  1  0.73635602  0.88416240  0.42059441  1
  P  P103  1  0.43149988  0.19373853  0.36576385  1
  P  P104  1  0.40296375  0.67386912  0.37468355  1
  P  P105  1  0.76308435  0.40418863  0.41319131  1
  P  P106  1  0.47588142  0.70828352  0.49310110  1
  P  P107  1  0.17658405  0.01886634  0.43789531  1
  P  P108  1  0.14073876  0.50037152  0.44730911  1
  P  P109  1  0.50712430  0.22501945  0.48256509  1
  P  P110  1  0.92991474  0.84902246  0.50945450  1
  P  P111  1  0.88572400  0.31920747  0.51960878  1
  O  O112  1  0.22815582  0.69347115  0.05694432  1
  O  O113  1  0.24584311  0.19395497  0.06470106  1
  O  O114  1  0.93824059  0.23126929  0.03809960  1
  O  O115  1  0.90639427  0.74579767  0.03268508  1
  O  O116  1  0.50606456  0.78470609  0.06375686  1
  O  O117  1  0.51908259  0.30250058  0.06177833  1
  O  O118  1  0.55226521  0.94298323  0.05585922  1
  O  O119  1  0.10910422  0.34706293  0.03006335  1
  O  O120  1  0.98019908  0.51810902  0.13122355  1
  O  O121  1  0.24951407  0.95046132  0.08022151  1
  O  O122  1  0.28442943  0.48098902  0.07756640  1
  O  O123  1  0.96020535  0.00061381  0.13712997  1
  O  O124  1  0.65581358  0.07270691  0.10697269  1
  O  O125  1  0.58786435  0.39509468  0.10652109  1
  O  O126  1  0.55596819  0.88124678  0.11055461  1
  O  O127  1  0.67685681  0.59030886  0.10050164  1
  O  O128  1  0.24933335  0.60788990  0.13927519  1
  O  O129  1  0.97701203  0.86386992  0.07056563  1
  O  O130  1  0.94897989  0.34664868  0.08119649  1
  O  O131  1  0.27347659  0.12758989  0.13056990  1
  O  O132  1  0.94660103  0.70215855  0.08810544  1
  O  O133  1  0.28079144  0.77118987  0.12688933  1
  O  O134  1  0.34422376  0.32752913  0.11192095  1
  O  O135  1  0.88217898  0.15321306  0.10157729  1
  O  O136  1  0.72620522  0.34422603  0.20289747  1
  O  O137  1  0.98858489  0.78127324  0.15402524  1
  O  O138  1  0.01243035  0.29802407  0.14714653  1
  O  O139  1  0.70134510  0.82798047  0.20903941  1
  O  O140  1  0.39466858  0.89957810  0.17915918  1
  O  O141  1  0.32185792  0.22402030  0.17623786  1
  O  O142  1  0.29931948  0.71123501  0.18236088  1
  O  O143  1  0.41758857  0.41599605  0.17370713  1
  O  O144  1  0.99251448  0.43494334  0.21012070  1
  O  O145  1  0.71811857  0.69104425  0.14567551  1
  O  O146  1  0.70070278  0.17353000  0.15157591  1
  O  O147  1  0.01650262  0.95151476  0.20315775  1
  O  O148  1  0.68223641  0.52774158  0.15540110  1
  O  O149  1  0.02825955  0.59855917  0.20041838  1
  O  O150  1  0.09723070  0.14217561  0.18083591  1
  O  O151  1  0.61930539  0.98125951  0.17387689  1
  O  O152  1  0.46841707  0.16916735  0.27424557  1
  O  O153  1  0.73105140  0.60730188  0.22509705  1
  O  O154  1  0.75423410  0.12347065  0.21795592  1
  O  O155  1  0.44416743  0.65355538  0.28131126  1
  O  O156  1  0.13771010  0.72534027  0.25133725  1
  O  O157  1  0.06061257  0.05206213  0.24789486  1
  O  O158  1  0.03755960  0.53477995  0.25496713  1
  O  O159  1  0.16104498  0.24193748  0.24471740  1
  O  O160  1  0.73326716  0.26012119  0.28211395  1
  O  O161  1  0.46548151  0.51708206  0.21777466  1
  O  O162  1  0.43990546  0.99976467  0.22391274  1
  O  O163  1  0.75926418  0.77692804  0.27505752  1
  O  O164  1  0.42976514  0.35330933  0.22817729  1
  O  O165  1  0.76993436  0.42339438  0.27217279  1
  O  O166  1  0.83635079  0.96981133  0.25294596  1
  O  O167  1  0.36171519  0.80766754  0.24645876  1
  O  O168  1  0.21051717  0.99415990  0.34638798  1
  O  O169  1  0.47304555  0.43271927  0.29723532  1
  O  O170  1  0.49647363  0.94846522  0.29012408  1
  O  O171  1  0.18694905  0.47793696  0.35352337  1
  O  O172  1  0.88037187  0.54948243  0.32355669  1
  O  O173  1  0.80335206  0.87634832  0.32002130  1
  O  O174  1  0.78049845  0.35962631  0.32677587  1
  O  O175  1  0.90394842  0.06709482  0.31648898  1
  O  O176  1  0.47595675  0.08477208  0.35365879  1
  O  O177  1  0.20785349  0.34163800  0.28941128  1
  O  O178  1  0.18139102  0.82520179  0.29625149  1
  O  O179  1  0.50162428  0.60162166  0.34745904  1
  O  O180  1  0.17137040  0.17817862  0.29928577  1
  O  O181  1  0.51166202  0.24855649  0.34332036  1
  O  O182  1  0.57936405  0.79401908  0.32484416  1
  O  O183  1  0.10451485  0.63179067  0.31850969  1
  O  O184  1  0.95241492  0.82040798  0.41714469  1
  O  O185  1  0.21522402  0.25751190  0.36868270  1
  O  O186  1  0.24017266  0.77345590  0.36220235  1
  O  O187  1  0.92769405  0.30355626  0.42451058  1
  O  O188  1  0.61907526  0.37736447  0.39521519  1
  O  O189  1  0.54643263  0.70174770  0.39223089  1
  O  O190  1  0.52385886  0.18584057  0.39774763  1
  O  O191  1  0.64163573  0.89003747  0.38888944  1
  O  O192  1  0.22391407  0.90998825  0.42555248  1
  O  O193  1  0.94942399  0.16651783  0.36148699  1
  O  O194  1  0.92460286  0.64988467  0.36828644  1
  O  O195  1  0.24068048  0.42768035  0.42012706  1
  O  O196  1  0.91292540  0.00301378  0.37095815  1
  O  O197  1  0.25895459  0.07375975  0.41606694  1
  O  O198  1  0.32144290  0.62028639  0.39741434  1
  O  O199  1  0.84395507  0.45914928  0.39073129  1
  O  O200  1  0.69217765  0.65088588  0.49111011  1
  O  O201  1  0.96124453  0.08267004  0.44012585  1
  O  O202  1  0.98131878  0.60069213  0.43438265  1
  O  O203  1  0.65652167  0.12002734  0.49376082  1
  O  O204  1  0.35229007  0.20599604  0.46503032  1
  O  O205  1  0.28470223  0.52866530  0.46476859  1
  O  O206  1  0.26447393  0.01027059  0.47084210  1
  O  O207  1  0.38563973  0.71979160  0.46079070  1
  O  O208  1  0.96409197  0.73740642  0.50106609  1
  O  O209  1  0.69078204  0.99382046  0.43188844  1
  O  O210  1  0.66622936  0.47425907  0.44084604  1
  O  O211  1  0.99262216  0.25308742  0.49045856  1
  O  O212  1  0.66067657  0.83028496  0.44445689  1
  O  O213  1  0.99419366  0.89838619  0.48275863  1
  O  O214  1  0.05791554  0.44823524  0.47002165  1
  O  O215  1  0.59602763  0.27381083  0.45957987  1
  O  O216  1  0.71253581  0.90841658  0.51418003  1
  O  O217  1  0.69622994  0.40669176  0.50667363  1
  O  O218  1  0.00360589  0.36880550  0.53346506  1
  O  O219  1  0.03412119  0.85712094  0.53831466  1
  O  O220  1  0.43503490  0.81648927  0.50756074  1
  O  O221  1  0.42171463  0.29836065  0.50976528  1
  O  O222  1  0.39008019  0.65802347  0.51553418  1
  O  O223  1  0.83120861  0.25393140  0.54151434  1
