# generated using pymatgen
data_Li3PO4
_symmetry_space_group_name_H-M   'P 1'
_cell_length_a   4.97784600
_cell_length_b   6.15119200
_cell_length_c   52.77425300
_cell_angle_alpha   90.00000000
_cell_angle_beta   90.00000000
_cell_angle_gamma   90.00000000
_symmetry_Int_Tables_number   1
_chemical_formula_structural   Li3PO4
_chemical_formula_sum   'Li36 P12 O48'
_cell_volume   1615.93108173
_cell_formula_units_Z   12
loop_
 _symmetry_equiv_pos_site_id
 _symmetry_equiv_pos_as_xyz
  1  'x, y, z'
loop_
 _atom_site_type_symbol
 _atom_site_label
 _atom_site_symmetry_multiplicity
 _atom_site_fract_x
 _atom_site_fract_y
 _atom_site_fract_z
 _atom_site_occupancy
  Li  Li0  1  0.80470967  0.49864614  0.11643665  1
  Li  Li1  1  0.20116066  0.50110116  0.18239561  1
  Li  Li2  1  0.30315473  0.50056444  0.08154980  1
  Li  Li3  1  0.67581701  0.48881878  0.01989226  1
  Li  Li4  1  0.67579136  0.01113988  0.01989953  1
  Li  Li5  1  0.30315272  0.99942475  0.08154959  1
  Li  Li6  1  0.20116408  0.99889670  0.18239580  1
  Li  Li7  1  0.80470956  0.00135672  0.11643624  1
  Li  Li8  1  0.20610573  0.75000181  0.13451858  1
  Li  Li9  1  0.79877260  0.25000019  0.16433166  1
  Li  Li10  1  0.70779946  0.24999862  0.06477553  1
  Li  Li11  1  0.27516099  0.74985540  0.03270510  1
  Li  Li12  1  0.80260884  0.49947526  0.31739226  1
  Li  Li13  1  0.19995213  0.50103845  0.38318475  1
  Li  Li14  1  0.30363380  0.50163529  0.28274463  1
  Li  Li15  1  0.69870589  0.49829421  0.21716025  1
  Li  Li16  1  0.69876141  0.00173347  0.21715681  1
  Li  Li17  1  0.30363767  0.99837926  0.28274436  1
  Li  Li18  1  0.19995668  0.99895196  0.38318476  1
  Li  Li19  1  0.80260926  0.00052568  0.31739185  1
  Li  Li20  1  0.20343755  0.74999960  0.33546768  1
  Li  Li21  1  0.79784382  0.24999883  0.36515599  1
  Li  Li22  1  0.70500737  0.25019643  0.26486273  1
  Li  Li23  1  0.30080338  0.75000514  0.23499377  1
  Li  Li24  1  0.80163492  0.49953590  0.51809593  1
  Li  Li25  1  0.17433587  0.51062635  0.57978978  1
  Li  Li26  1  0.30385672  0.50146576  0.48338950  1
  Li  Li27  1  0.69822688  0.49829608  0.41789729  1
  Li  Li28  1  0.69822658  0.00170206  0.41789719  1
  Li  Li29  1  0.30385435  0.99853821  0.48338949  1
  Li  Li30  1  0.17433538  0.98937819  0.57978954  1
  Li  Li31  1  0.80162997  0.00046664  0.51809516  1
  Li  Li32  1  0.20383171  0.75000124  0.53513598  1
  Li  Li33  1  0.77317177  0.25000195  0.56704882  1
  Li  Li34  1  0.70565549  0.25000253  0.46566858  1
  Li  Li35  1  0.30077019  0.74999312  0.43567446  1
  P  P36  1  0.30902925  0.25000281  0.13149205  1
  P  P37  1  0.69612477  0.75000485  0.16733009  1
  P  P38  1  0.81015097  0.74998386  0.06680918  1
  P  P39  1  0.19464931  0.24995755  0.03105420  1
  P  P40  1  0.30732899  0.25000125  0.33240425  1
  P  P41  1  0.69477380  0.74998792  0.36821589  1
  P  P42  1  0.80830056  0.75001753  0.26769872  1
  P  P43  1  0.19511337  0.25002058  0.23213508  1
  P  P44  1  0.30930088  0.25000677  0.53289779  1
  P  P45  1  0.69308101  0.75000578  0.56866178  1
  P  P46  1  0.80825109  0.75000629  0.46837635  1
  P  P47  1  0.19489888  0.24999268  0.43286369  1
  O  O48  1  0.20601557  0.45713357  0.11745623  1
  O  O49  1  0.79875661  0.54283427  0.18140478  1
  O  O50  1  0.70520010  0.54309747  0.08068632  1
  O  O51  1  0.29766488  0.45852291  0.01779665  1
  O  O52  1  0.29759942  0.04136783  0.01779942  1
  O  O53  1  0.70520019  0.95687585  0.08068753  1
  O  O54  1  0.79876237  0.95717981  0.18140485  1
  O  O55  1  0.20603463  0.04287222  0.11745487  1
  O  O56  1  0.79989005  0.75000851  0.13951775  1
  O  O57  1  0.20599696  0.24999515  0.15933009  1
  O  O58  1  0.29236223  0.24998265  0.05933299  1
  O  O59  1  0.71028271  0.74995861  0.03875506  1
  O  O60  1  0.62284413  0.25000519  0.13128319  1
  O  O61  1  0.38256574  0.75000597  0.16746608  1
  O  O62  1  0.12271405  0.74998883  0.06709781  1
  O  O63  1  0.87834721  0.24998461  0.03095638  1
  O  O64  1  0.20476780  0.45722177  0.31835809  1
  O  O65  1  0.79728876  0.54284073  0.38227454  1
  O  O66  1  0.70544635  0.54301187  0.28176907  1
  O  O67  1  0.29775840  0.45700244  0.21805218  1
  O  O68  1  0.29779165  0.04303287  0.21805095  1
  O  O69  1  0.70544420  0.95701071  0.28176882  1
  O  O70  1  0.79728808  0.95714847  0.38227456  1
  O  O71  1  0.20477597  0.04278373  0.31835783  1
  O  O72  1  0.79890678  0.75000167  0.34041757  1
  O  O73  1  0.20315160  0.24999711  0.36019518  1
  O  O74  1  0.29973264  0.25001137  0.25990020  1
  O  O75  1  0.70391688  0.75000392  0.23993454  1
  O  O76  1  0.62091599  0.25000429  0.33230479  1
  O  O77  1  0.38118720  0.74999078  0.36829992  1
  O  O78  1  0.12177482  0.75000336  0.26781697  1
  O  O79  1  0.88162391  0.25001379  0.23205981  1
  O  O80  1  0.20381148  0.45700571  0.51908095  1
  O  O81  1  0.79625565  0.54137841  0.58189735  1
  O  O82  1  0.70543810  0.54292213  0.48240928  1
  O  O83  1  0.29754628  0.45697870  0.41878320  1
  O  O84  1  0.29752797  0.04300313  0.41878465  1
  O  O85  1  0.70540818  0.95709605  0.48240866  1
  O  O86  1  0.79625280  0.95863287  0.58189805  1
  O  O87  1  0.20380292  0.04301142  0.51908084  1
  O  O88  1  0.79060943  0.75000556  0.54037829  1
  O  O89  1  0.21052441  0.25000723  0.56098839  1
  O  O90  1  0.29973047  0.25000744  0.46062294  1
  O  O91  1  0.70408330  0.74999496  0.44060404  1
  O  O92  1  0.62188635  0.25000423  0.53254250  1
  O  O93  1  0.37677823  0.75000524  0.56879341  1
  O  O94  1  0.12186278  0.75001960  0.46853289  1
  O  O95  1  0.88148469  0.25000087  0.43279253  1
