# generated using pymatgen
data_Li3PO4
_symmetry_space_group_name_H-M   'P 1'
_cell_length_a   6.15119200
_cell_length_b   11.66978300
_cell_length_c   45.02262600
_cell_angle_alpha   90.00000000
_cell_angle_beta   90.00000000
_cell_angle_gamma   90.00000000
_symmetry_Int_Tables_number   1
_chemical_formula_structural   Li3PO4
_chemical_formula_sum   'Li60 P20 O80'
_cell_volume   3231.86257628
_cell_formula_units_Z   20
loop_
 _symmetry_equiv_pos_site_id
 _symmetry_equiv_pos_as_xyz
  1  'x, y, z'
loop_
 _atom_site_type_symbol
 _atom_site_label
 _atom_site_symmetry_multiplicity
 _atom_site_fract_x
 _atom_site_fract_y
 _atom_site_fract_z
 _atom_site_occupancy
  Li  Li0  1  0.50838845  0.17997669  0.01875744  1
  Li  Li1  1  0.46575135  0.52701919  0.07431834  1
  Li  Li2  1  0.49189074  0.18340091  0.08832035  1
  Li  Li3  1  0.01343750  0.17989645  0.08903651  1
  Li  Li4  1  0.03706879  0.52792569  0.07469658  1
  Li  Li5  1  0.00393916  0.17795082  0.01911463  1
  Li  Li6  1  0.75189945  0.76523797  0.08017673  1
  Li  Li7  1  0.25246896  0.95517493  0.06957360  1
  Li  Li8  1  0.75941942  0.28809231  0.06001854  1
  Li  Li9  1  0.50196092  0.58102688  0.14226641  1
  Li  Li10  1  0.50880774  0.95026771  0.11580050  1
  Li  Li11  1  0.50353580  0.34333986  0.18013465  1
  Li  Li12  1  0.50188814  0.99994658  0.18469798  1
  Li  Li13  1  0.00016099  0.99993117  0.18460130  1
  Li  Li14  1  0.99706019  0.34340436  0.18016793  1
  Li  Li15  1  0.99748692  0.94862879  0.11593471  1
  Li  Li16  1  0.99880946  0.58128839  0.14228996  1
  Li  Li17  1  0.75044334  0.57438735  0.19243385  1
  Li  Li18  1  0.25165304  0.76964417  0.16716425  1
  Li  Li19  1  0.25023205  0.37397388  0.11920476  1
  Li  Li20  1  0.75162900  0.15222107  0.15340930  1
  Li  Li21  1  0.49641705  0.39146302  0.24576364  1
  Li  Li22  1  0.50307808  0.76964434  0.21629360  1
  Li  Li23  1  0.50330790  0.15660765  0.27831428  1
  Li  Li24  1  0.49723610  0.81767307  0.28453591  1
  Li  Li25  1  0.00256988  0.81770247  0.28452156  1
  Li  Li26  1  0.99815829  0.15612454  0.27828641  1
  Li  Li27  1  0.99734844  0.76947558  0.21627835  1
  Li  Li28  1  0.00366686  0.39181889  0.24590712  1
  Li  Li29  1  0.74987579  0.38760530  0.29508430  1
  Li  Li30  1  0.25040617  0.58634179  0.26793315  1
  Li  Li31  1  0.25039568  0.19537873  0.21022390  1
  Li  Li32  1  0.75036430  0.96204868  0.25348992  1
  Li  Li33  1  0.49455501  0.20655382  0.34643249  1
  Li  Li34  1  0.50266463  0.58316209  0.31708329  1
  Li  Li35  1  0.49853812  0.97586906  0.37775841  1
  Li  Li36  1  0.49447794  0.63207937  0.38292094  1
  Li  Li37  1  0.00089961  0.63159888  0.38291435  1
  Li  Li38  1  0.00039696  0.97581024  0.37784511  1
  Li  Li39  1  0.99699111  0.58319261  0.31706292  1
  Li  Li40  1  0.00152030  0.20626819  0.34646167  1
  Li  Li41  1  0.74880995  0.20496688  0.39596607  1
  Li  Li42  1  0.24837733  0.40011993  0.37059574  1
  Li  Li43  1  0.25030332  0.01145762  0.30906996  1
  Li  Li44  1  0.74966451  0.78072143  0.35248716  1
  Li  Li45  1  0.49300478  0.02587475  0.44691992  1
  Li  Li46  1  0.49702452  0.39653605  0.42046469  1
  Li  Li47  1  0.50979934  0.79247246  0.47475565  1
  Li  Li48  1  0.53692071  0.45063037  0.48883742  1
  Li  Li49  1  0.96576330  0.44791373  0.48870903  1
  Li  Li50  1  0.98617065  0.79673861  0.47362185  1
  Li  Li51  1  0.00114623  0.39644674  0.42037662  1
  Li  Li52  1  0.00260547  0.02811973  0.44666239  1
  Li  Li53  1  0.74883821  0.02284601  0.49318236  1
  Li  Li54  1  0.25004214  0.21087933  0.48340649  1
  Li  Li55  1  0.24847158  0.82449854  0.40940771  1
  Li  Li56  1  0.74936946  0.60318568  0.44398451  1
  Li  Li57  1  0.49062080  0.79327214  0.54444413  1
  Li  Li58  1  0.99310286  0.79941226  0.54380563  1
  Li  Li59  1  0.23904809  0.69212643  0.50321353  1
  P  P60  1  0.75149873  0.00216789  0.05626812  1
  P  P61  1  0.25512489  0.33102668  0.03994950  1
  P  P62  1  0.25223333  0.72395438  0.10079914  1
  P  P63  1  0.75100103  0.80080480  0.15780466  1
  P  P64  1  0.75102903  0.37043573  0.12096359  1
  P  P65  1  0.25205910  0.15393479  0.14344101  1
  P  P66  1  0.25031150  0.54435088  0.20193556  1
  P  P67  1  0.75000092  0.61622428  0.25919076  1
  P  P68  1  0.75052787  0.18740766  0.22146222  1
  P  P69  1  0.25048356  0.97122555  0.24155178  1
  P  P70  1  0.24950691  0.35840242  0.30364186  1
  P  P71  1  0.74864565  0.43098916  0.36076441  1
  P  P72  1  0.74988109  0.00384485  0.32111448  1
  P  P73  1  0.24922177  0.78762669  0.34135185  1
  P  P74  1  0.24909360  0.17514159  0.40506885  1
  P  P75  1  0.74851979  0.25339371  0.46203759  1
  P  P76  1  0.74714150  0.82270073  0.41929696  1
  P  P77  1  0.24836645  0.60669424  0.44208149  1
  P  P78  1  0.25005600  0.97325219  0.50655306  1
  P  P79  1  0.74539607  0.64497763  0.52300418  1
  O  O80  1  0.46065980  0.68149847  0.08477910  1
  O  O81  1  0.54109055  0.03086404  0.07531308  1
  O  O82  1  0.46930866  0.28026163  0.05332339  1
  O  O83  1  0.04907654  0.27438173  0.05409224  1
  O  O84  1  0.96168349  0.02850809  0.07556468  1
  O  O85  1  0.04333294  0.68264832  0.08468524  1
  O  O86  1  0.74914723  0.87678764  0.04765114  1
  O  O87  1  0.24932075  0.46039390  0.04743638  1
  O  O88  1  0.75313555  0.26113892  0.10142078  1
  O  O89  1  0.75417658  0.09054102  0.02948100  1
  O  O90  1  0.25356633  0.28411824  0.00758263  1
  O  O91  1  0.45657279  0.50594120  0.18441100  1
  O  O92  1  0.54461618  0.83897697  0.17561305  1
  O  O93  1  0.54302521  0.44370318  0.11421679  1
  O  O94  1  0.45947249  0.07860953  0.14593582  1
  O  O95  1  0.04420104  0.07867402  0.14571712  1
  O  O96  1  0.95824350  0.44455522  0.11425682  1
  O  O97  1  0.95767330  0.83873993  0.17558218  1
  O  O98  1  0.04413522  0.50605114  0.18438040  1
  O  O99  1  0.75051596  0.66794336  0.15507726  1
  O  O100  1  0.25332887  0.85753410  0.10367218  1
  O  O101  1  0.25070879  0.25032713  0.16747977  1
  O  O102  1  0.75107888  0.09521316  0.19658628  1
  O  O103  1  0.25106521  0.67074294  0.13301881  1
  O  O104  1  0.75149557  0.85826754  0.12670762  1
  O  O105  1  0.75073176  0.32904934  0.15382763  1
  O  O106  1  0.25329343  0.21464994  0.11270291  1
  O  O107  1  0.45678930  0.31959245  0.28635546  1
  O  O108  1  0.54297612  0.65495670  0.27656322  1
  O  O109  1  0.54346023  0.26389502  0.21854460  1
  O  O110  1  0.45758063  0.89496491  0.24468882  1
  O  O111  1  0.04320791  0.89507125  0.24466902  1
  O  O112  1  0.95721175  0.26418164  0.21858894  1
  O  O113  1  0.95708378  0.65491866  0.27655215  1
  O  O114  1  0.04266890  0.31957766  0.28626790  1
  O  O115  1  0.74984244  0.48336877  0.25633697  1
  O  O116  1  0.25043951  0.67658438  0.20580168  1
  O  O117  1  0.25056801  0.06508955  0.26610383  1
  O  O118  1  0.74984597  0.90960717  0.29665023  1
  O  O119  1  0.25012700  0.48521943  0.23317284  1
  O  O120  1  0.75006314  0.67308669  0.22781856  1
  O  O121  1  0.75039827  0.12872707  0.25257055  1
  O  O122  1  0.25074248  0.02876285  0.21027127  1
  O  O123  1  0.45523331  0.13696285  0.38720992  1
  O  O124  1  0.54219293  0.46970091  0.37821964  1
  O  O125  1  0.54254784  0.07996117  0.31804241  1
  O  O126  1  0.45601544  0.71107447  0.34432432  1
  O  O127  1  0.04228630  0.71113444  0.34432943  1
  O  O128  1  0.95734994  0.07985069  0.31801402  1
  O  O129  1  0.95475571  0.46928071  0.37838043  1
  O  O130  1  0.04233894  0.13704032  0.38730005  1
  O  O131  1  0.74842166  0.29874552  0.35696489  1
  O  O132  1  0.24963042  0.49129119  0.30642651  1
  O  O133  1  0.24914160  0.88037547  0.36608254  1
  O  O134  1  0.74787732  0.72584928  0.39538472  1
  O  O135  1  0.24871974  0.30212569  0.33506044  1
  O  O136  1  0.74973456  0.48979370  0.32950561  1
  O  O137  1  0.74979851  0.94662700  0.35243816  1
  O  O138  1  0.24958924  0.84570136  0.31016155  1
  O  O139  1  0.46066310  0.94527475  0.48751023  1
  O  O140  1  0.54063721  0.29580344  0.47823831  1
  O  O141  1  0.53990689  0.89809810  0.41675750  1
  O  O142  1  0.45667262  0.53344962  0.44868004  1
  O  O143  1  0.04128338  0.53254425  0.44880274  1
  O  O144  1  0.95513340  0.89780008  0.41696500  1
  O  O145  1  0.95781151  0.29388023  0.47821858  1
  O  O146  1  0.03981283  0.94833883  0.48717512  1
  O  O147  1  0.74692813  0.11973006  0.45904375  1
  O  O148  1  0.24927887  0.30805856  0.40777650  1
  O  O149  1  0.24699482  0.71608857  0.46159088  1
  O  O150  1  0.75456579  0.51552306  0.51580097  1
  O  O151  1  0.24915071  0.11783340  0.43617301  1
  O  O152  1  0.74927668  0.30657689  0.42983195  1
  O  O153  1  0.74622901  0.76242790  0.45010044  1
  O  O154  1  0.24774368  0.64766752  0.40916817  1
  O  O155  1  0.52949242  0.69365532  0.50965816  1
  O  O156  1  0.94866192  0.70323353  0.50866677  1
  O  O157  1  0.25304437  0.09813065  0.51568442  1
  O  O158  1  0.24659722  0.88331368  0.53303614  1
  O  O159  1  0.74683826  0.69216688  0.55536379  1
