# generated using pymatgen
data_Li3PO4
_symmetry_space_group_name_H-M   'P 1'
_cell_length_a   6.15119200
_cell_length_b   14.50933100
_cell_length_c   43.45376800
_cell_angle_alpha   90.00000000
_cell_angle_beta   90.00000000
_cell_angle_gamma   90.00000000
_symmetry_Int_Tables_number   1
_chemical_formula_structural   Li3PO4
_chemical_formula_sum   'Li72 P24 O96'
_cell_volume   3878.23492236
_cell_formula_units_Z   24
loop_
 _symmetry_equiv_pos_site_id
 _symmetry_equiv_pos_as_xyz
  1  'x, y, z'
loop_
 _atom_site_type_symbol
 _atom_site_label
 _atom_site_symmetry_multiplicity
 _atom_site_fract_x
 _atom_site_fract_y
 _atom_site_fract_z
 _atom_site_occupancy
  Li  Li0  1  0.97796018  0.30943343  0.01586786  1
  Li  Li1  1  0.69439482  0.60523251  0.04504339  1
  Li  Li2  1  0.01492905  0.09982624  0.02674591  1
  Li  Li3  1  0.98751104  0.79158884  0.01365016  1
  Li  Li4  1  0.73761404  0.77676550  0.05926385  1
  Li  Li5  1  0.28366466  0.93731019  0.05552980  1
  Li  Li6  1  0.24250988  0.45906924  0.04490114  1
  Li  Li7  1  0.73472824  0.24097381  0.06604010  1
  Li  Li8  1  0.48656693  0.56698390  0.09562781  1
  Li  Li9  1  0.51766603  0.88557836  0.09927671  1
  Li  Li10  1  0.49847302  0.36064642  0.10837968  1
  Li  Li11  1  0.50724501  0.09673355  0.08407775  1
  Li  Li12  1  0.00661428  0.10087710  0.08656160  1
  Li  Li13  1  0.99380002  0.36131440  0.10861262  1
  Li  Li14  1  0.01372767  0.88347088  0.09802461  1
  Li  Li15  1  0.00364098  0.56986071  0.09439707  1
  Li  Li16  1  0.75044603  0.52264939  0.14265127  1
  Li  Li17  1  0.25082484  0.69546859  0.13428445  1
  Li  Li18  1  0.25442778  0.21965639  0.12587973  1
  Li  Li19  1  0.75270286  0.99911167  0.15048567  1
  Li  Li20  1  0.49778388  0.33357353  0.17833525  1
  Li  Li21  1  0.50519107  0.64972473  0.18235481  1
  Li  Li22  1  0.50213521  0.12462352  0.19099713  1
  Li  Li23  1  0.49884830  0.85802347  0.16946536  1
  Li  Li24  1  0.00294740  0.85772889  0.16928302  1
  Li  Li25  1  0.99903202  0.12471320  0.19089153  1
  Li  Li26  1  0.99902437  0.64859603  0.18283189  1
  Li  Li27  1  0.00188942  0.33342554  0.17847020  1
  Li  Li28  1  0.74957474  0.28571965  0.22643801  1
  Li  Li29  1  0.25046894  0.46108916  0.21793308  1
  Li  Li30  1  0.25038990  0.98276884  0.20928142  1
  Li  Li31  1  0.75065084  0.76258455  0.23445220  1
  Li  Li32  1  0.49773415  0.09697043  0.26159848  1
  Li  Li33  1  0.50203512  0.41362593  0.26603976  1
  Li  Li34  1  0.50398165  0.88755984  0.27448024  1
  Li  Li35  1  0.49739771  0.62192140  0.25321673  1
  Li  Li36  1  0.00207754  0.62187478  0.25325637  1
  Li  Li37  1  0.99633080  0.88764105  0.27442707  1
  Li  Li38  1  0.99831179  0.41301064  0.26601471  1
  Li  Li39  1  0.00220438  0.09704416  0.26164103  1
  Li  Li40  1  0.74894554  0.04897239  0.30947541  1
  Li  Li41  1  0.25018514  0.22422358  0.30119159  1
  Li  Li42  1  0.24950814  0.74682808  0.29317431  1
  Li  Li43  1  0.74965217  0.52676141  0.31825952  1
  Li  Li44  1  0.49593729  0.85982015  0.34536638  1
  Li  Li45  1  0.50216147  0.17667363  0.34940014  1
  Li  Li46  1  0.49980934  0.65183391  0.35823815  1
  Li  Li47  1  0.49754410  0.38584194  0.33677586  1
  Li  Li48  1  0.00075065  0.38522337  0.33686706  1
  Li  Li49  1  0.99608582  0.65218534  0.35847560  1
  Li  Li50  1  0.99765457  0.17603728  0.34895861  1
  Li  Li51  1  0.00155933  0.86122253  0.34483836  1
  Li  Li52  1  0.74910057  0.81301989  0.39319329  1
  Li  Li53  1  0.25088894  0.98813640  0.38420808  1
  Li  Li54  1  0.24630065  0.51075369  0.37728751  1
  Li  Li55  1  0.74945056  0.29000257  0.40172416  1
  Li  Li56  1  0.47845801  0.62395119  0.42842868  1
  Li  Li57  1  0.51227862  0.94220327  0.43147759  1
  Li  Li58  1  0.49361329  0.41208126  0.44353195  1
  Li  Li59  1  0.50274451  0.14926535  0.41912879  1
  Li  Li60  1  0.00816759  0.14883091  0.41865420  1
  Li  Li61  1  0.99283276  0.40882227  0.44128972  1
  Li  Li62  1  0.99506014  0.94030631  0.43239103  1
  Li  Li63  1  0.98590165  0.62641344  0.42973005  1
  Li  Li64  1  0.71529539  0.57165967  0.47190888  1
  Li  Li65  1  0.26194911  0.73294293  0.46861919  1
  Li  Li66  1  0.26680160  0.26819217  0.46178203  1
  Li  Li67  1  0.75740509  0.04924026  0.48226147  1
  Li  Li68  1  0.30377157  0.90434167  0.48217799  1
  Li  Li69  1  0.02386496  0.19854008  0.51193277  1
  Li  Li70  1  0.01297036  0.71889081  0.51412505  1
  Li  Li71  1  0.98531359  0.40980846  0.50115626  1
  P  P72  1  0.26961999  0.72268737  0.06480093  1
  P  P73  1  0.77540455  0.96899620  0.04058646  1
  P  P74  1  0.74283066  0.43535791  0.05401919  1
  P  P75  1  0.25212946  0.25984244  0.05680877  1
  P  P76  1  0.24978603  0.49078415  0.14998223  1
  P  P77  1  0.75361401  0.72860106  0.12730571  1
  P  P78  1  0.75165145  0.20151054  0.13741036  1
  P  P79  1  0.25351857  0.01652537  0.13925889  1
  P  P80  1  0.24993193  0.25391276  0.23302445  1
  P  P81  1  0.75005453  0.49251994  0.21136297  1
  P  P82  1  0.75095010  0.96541916  0.22040134  1
  P  P83  1  0.25038641  0.78054765  0.22346166  1
  P  P84  1  0.25006389  0.01717067  0.31604479  1
  P  P85  1  0.74963213  0.25628058  0.29466367  1
  P  P86  1  0.74921492  0.72919754  0.30433395  1
  P  P87  1  0.24888507  0.54433789  0.30726853  1
  P  P88  1  0.24589484  0.78123232  0.40026355  1
  P  P89  1  0.75049111  0.01908350  0.37732935  1
  P  P90  1  0.74614817  0.49345719  0.38845493  1
  P  P91  1  0.24933251  0.30842112  0.39021411  1
  P  P92  1  0.22369416  0.54070145  0.48713588  1
  P  P93  1  0.72943596  0.78684308  0.46265872  1
  P  P94  1  0.75003659  0.24924060  0.47075775  1
  P  P95  1  0.25780702  0.07394560  0.47319630  1
  O  O96  1  0.48954006  0.70441382  0.04832872  1
  O  O97  1  0.57708867  0.97620101  0.06337094  1
  O  O98  1  0.53388727  0.49801677  0.05676345  1
  O  O99  1  0.44707742  0.19404405  0.05498101  1
  O  O100  1  0.03376104  0.20269245  0.05111073  1
  O  O101  1  0.93777528  0.50546547  0.05651568  1
  O  O102  1  0.99351006  0.98955406  0.05980371  1
  O  O103  1  0.07003867  0.71253937  0.04307057  1
  O  O104  1  0.78916032  0.86842003  0.02879397  1
  O  O105  1  0.26961647  0.82403378  0.07809418  1
  O  O106  1  0.75067814  0.38166701  0.02396359  1
  O  O107  1  0.76829179  0.03959726  0.01467000  1
  O  O108  1  0.74645178  0.36771012  0.08214271  1
  O  O109  1  0.24862575  0.33562382  0.03191998  1
  O  O110  1  0.45691271  0.47796614  0.12975513  1
  O  O111  1  0.54518795  0.74220319  0.14727326  1
  O  O112  1  0.54423610  0.26255164  0.14069596  1
  O  O113  1  0.46016361  0.95467027  0.13637333  1
  O  O114  1  0.04674984  0.95477377  0.13568574  1
  O  O115  1  0.95869807  0.26239546  0.14116390  1
  O  O116  1  0.95853353  0.73935916  0.14810297  1
  O  O117  1  0.04346150  0.47919389  0.12952668  1
  O  O118  1  0.74849280  0.63146163  0.11217993  1
  O  O119  1  0.25185374  0.58868372  0.16455737  1
  O  O120  1  0.24177866  0.30395487  0.08960420  1
  O  O121  1  0.75404898  0.15392977  0.10535730  1
  O  O122  1  0.24643927  0.65339243  0.09216867  1
  O  O123  1  0.76232899  0.80486826  0.10188309  1
  O  O124  1  0.75016334  0.12694293  0.16336760  1
  O  O125  1  0.25679529  0.08965637  0.11294588  1
  O  O126  1  0.45655589  0.24102479  0.21264504  1
  O  O127  1  0.54316659  0.50552033  0.23169115  1
  O  O128  1  0.54362675  0.02664571  0.22350822  1
  O  O129  1  0.45767839  0.71931400  0.22030279  1
  O  O130  1  0.04332749  0.71913216  0.22048289  1
  O  O131  1  0.95796579  0.02676741  0.22362742  1
  O  O132  1  0.95712520  0.50538934  0.23166323  1
  O  O133  1  0.04277176  0.24105143  0.21276662  1
  O  O134  1  0.74966936  0.39447010  0.19695778  1
  O  O135  1  0.25028393  0.35195611  0.24748279  1
  O  O136  1  0.25059873  0.06480569  0.17117202  1
  O  O137  1  0.75189226  0.91675496  0.18848810  1
  O  O138  1  0.24887405  0.41615792  0.17580573  1
  O  O139  1  0.75044027  0.56663543  0.18530936  1
  O  O140  1  0.75035921  0.89166059  0.24657559  1
  O  O141  1  0.25008206  0.85371654  0.19709826  1
  O  O142  1  0.45666568  0.00442533  0.29566227  1
  O  O143  1  0.54300210  0.26906497  0.31505260  1
  O  O144  1  0.54203083  0.79046047  0.30743388  1
  O  O145  1  0.45653186  0.48328416  0.30418178  1
  O  O146  1  0.04209838  0.48286245  0.30404699  1
  O  O147  1  0.95621034  0.79062599  0.30724626  1
  O  O148  1  0.95678866  0.26898216  0.31494141  1
  O  O149  1  0.04271174  0.00445371  0.29579887  1
  O  O150  1  0.74957215  0.15831234  0.28011229  1
  O  O151  1  0.25045411  0.11507063  0.33056193  1
  O  O152  1  0.25047893  0.82932142  0.25530845  1
  O  O153  1  0.74919275  0.68020267  0.27251299  1
  O  O154  1  0.25015287  0.17958417  0.25899505  1
  O  O155  1  0.74948790  0.33072368  0.26871334  1
  O  O156  1  0.74915958  0.65602156  0.33069373  1
  O  O157  1  0.24944650  0.61787345  0.28101970  1
  O  O158  1  0.45454586  0.76732604  0.38037379  1
  O  O159  1  0.54361003  0.03210058  0.39758584  1
  O  O160  1  0.53915991  0.55506779  0.39134435  1
  O  O161  1  0.45726867  0.24768929  0.38691750  1
  O  O162  1  0.04284001  0.24725075  0.38627917  1
  O  O163  1  0.95282637  0.55522683  0.39207210  1
  O  O164  1  0.95739013  0.03100389  0.39763396  1
  O  O165  1  0.04126516  0.77020051  0.37942912  1
  O  O166  1  0.74844976  0.92099747  0.36292373  1
  O  O167  1  0.25084027  0.87867485  0.41512829  1
  O  O168  1  0.24753983  0.59309548  0.33916946  1
  O  O169  1  0.74941773  0.44533727  0.35651207  1
  O  O170  1  0.25018442  0.94283931  0.34203607  1
  O  O171  1  0.75057278  0.09356750  0.35147394  1
  O  O172  1  0.74332763  0.42015869  0.41472643  1
  O  O173  1  0.25001043  0.38320958  0.36433168  1
  O  O174  1  0.42135807  0.53338238  0.46424792  1
  O  O175  1  0.50961485  0.80533281  0.47913742  1
  O  O176  1  0.55467931  0.31492164  0.47263593  1
  O  O177  1  0.46611518  0.01106840  0.47030988  1
  O  O178  1  0.06222573  0.00419963  0.47053856  1
  O  O179  1  0.96768997  0.30667966  0.47666590  1
  O  O180  1  0.92883919  0.79694966  0.48443999  1
  O  O181  1  0.00531602  0.51986014  0.46801953  1
  O  O182  1  0.72878309  0.68542857  0.44942771  1
  O  O183  1  0.20981446  0.64132418  0.49887345  1
  O  O184  1  0.24573114  0.35570974  0.42230562  1
  O  O185  1  0.76062346  0.20568329  0.43787023  1
  O  O186  1  0.23640739  0.70532442  0.42581031  1
  O  O187  1  0.75306187  0.85602460  0.43524997  1
  O  O188  1  0.75342695  0.17292213  0.49546437  1
  O  O189  1  0.25469669  0.14222521  0.44525488  1
  O  O190  1  0.25096878  0.12695174  0.50340002  1
  O  O191  1  0.23171647  0.47030804  0.51311140  1
