# generated using pymatgen
data_Li3PO4
_symmetry_space_group_name_H-M   'P 1'
_cell_length_a   4.97784600
_cell_length_b   12.21646600
_cell_length_c   42.51632900
_cell_angle_alpha   90.00000000
_cell_angle_beta   90.00000000
_cell_angle_gamma   90.00000000
_symmetry_Int_Tables_number   1
_chemical_formula_structural   Li3PO4
_chemical_formula_sum   'Li54 P18 O72'
_cell_volume   2585.48966655
_cell_formula_units_Z   18
loop_
 _symmetry_equiv_pos_site_id
 _symmetry_equiv_pos_as_xyz
  1  'x, y, z'
loop_
 _atom_site_type_symbol
 _atom_site_label
 _atom_site_symmetry_multiplicity
 _atom_site_fract_x
 _atom_site_fract_y
 _atom_site_fract_z
 _atom_site_occupancy
  Li  Li0  1  0.18622066  0.03512067  0.06966655  1
  Li  Li1  1  0.69978396  0.15910371  0.08608920  1
  Li  Li2  1  0.31733376  0.64209173  0.99817616  1
  Li  Li3  1  0.29423883  0.53167302  0.06183126  1
  Li  Li4  1  0.68820345  0.29125700  0.02583350  1
  Li  Li5  1  0.78963815  0.65761148  0.08359205  1
  Li  Li6  1  0.18523711  0.78978684  0.07294349  1
  Li  Li7  1  0.30488482  0.40743656  0.00684402  1
  Li  Li8  1  0.70351399  0.40406235  0.08387657  1
  Li  Li9  1  0.20144916  0.77646445  0.18956451  1
  Li  Li10  1  0.80308283  0.53214037  0.14825013  1
  Li  Li11  1  0.70067054  0.90582668  0.21158907  1
  Li  Li12  1  0.30082422  0.40232499  0.12664369  1
  Li  Li13  1  0.29935308  0.27836227  0.18979815  1
  Li  Li14  1  0.69828098  0.03228597  0.14965190  1
  Li  Li15  1  0.79982692  0.40561913  0.21192312  1
  Li  Li16  1  0.20313330  0.90555068  0.12800298  1
  Li  Li17  1  0.80106466  0.77140659  0.14645464  1
  Li  Li18  1  0.20297978  0.53502950  0.19138806  1
  Li  Li19  1  0.29905871  0.16417034  0.12934428  1
  Li  Li20  1  0.70161201  0.14802029  0.21048530  1
  Li  Li21  1  0.19843013  0.52297871  0.31596110  1
  Li  Li22  1  0.79933130  0.27983749  0.27468971  1
  Li  Li23  1  0.69953892  0.65261901  0.33727798  1
  Li  Li24  1  0.30059205  0.15045058  0.25338916  1
  Li  Li25  1  0.30092685  0.02377956  0.31576155  1
  Li  Li26  1  0.70106542  0.77863612  0.27488654  1
  Li  Li27  1  0.79942669  0.15143129  0.33810377  1
  Li  Li28  1  0.20136542  0.65144805  0.25229822  1
  Li  Li29  1  0.79840747  0.52101588  0.27297562  1
  Li  Li30  1  0.20083783  0.28224821  0.31752953  1
  Li  Li31  1  0.29831986  0.90911168  0.25440809  1
  Li  Li32  1  0.70440077  0.89339698  0.33632416  1
  Li  Li33  1  0.19660317  0.27054015  0.44209108  1
  Li  Li34  1  0.80082576  0.02618573  0.40090819  1
  Li  Li35  1  0.69818436  0.39902295  0.46370523  1
  Li  Li36  1  0.30308283  0.89681313  0.37912520  1
  Li  Li37  1  0.30300363  0.77060250  0.44103949  1
  Li  Li38  1  0.69880805  0.52401265  0.40063693  1
  Li  Li39  1  0.80006731  0.89601552  0.46277856  1
  Li  Li40  1  0.19711351  0.39745638  0.37878353  1
  Li  Li41  1  0.79580363  0.26730724  0.39903693  1
  Li  Li42  1  0.20324642  0.03006224  0.44357042  1
  Li  Li43  1  0.30002619  0.65469605  0.38013273  1
  Li  Li44  1  0.69967816  0.63822553  0.46133621  1
  Li  Li45  1  0.81329617  0.76699965  0.52144729  1
  Li  Li46  1  0.68137020  0.16216700  0.59155813  1
  Li  Li47  1  0.30197554  0.64275907  0.50455780  1
  Li  Li48  1  0.31213776  0.51186988  0.56457051  1
  Li  Li49  1  0.70306492  0.27122635  0.52795593  1
  Li  Li50  1  0.20965881  0.14303710  0.50636573  1
  Li  Li51  1  0.81339458  0.01184966  0.51779611  1
  Li  Li52  1  0.29461413  0.39865453  0.50628633  1
  Li  Li53  1  0.69352245  0.39476221  0.58351392  1
  P  P54  1  0.70094756  0.91178339  0.08721039  1
  P  P55  1  0.19488536  0.27842311  0.06409270  1
  P  P56  1  0.79163319  0.53537369  0.01971115  1
  P  P57  1  0.69529450  0.65782344  0.21156087  1
  P  P58  1  0.30830957  0.64878465  0.12637357  1
  P  P59  1  0.19295736  0.02614479  0.19010510  1
  P  P60  1  0.80550559  0.28494522  0.14905682  1
  P  P61  1  0.69270121  0.40387091  0.33783414  1
  P  P62  1  0.30575105  0.39891392  0.25272939  1
  P  P63  1  0.19522546  0.77153127  0.31555162  1
  P  P64  1  0.80644549  0.03095841  0.27504259  1
  P  P65  1  0.69215382  0.15259348  0.46397041  1
  P  P66  1  0.30523111  0.14505866  0.37882000  1
  P  P67  1  0.19368854  0.51762759  0.44141390  1
  P  P68  1  0.80837160  0.77642578  0.40053791  1
  P  P69  1  0.29896629  0.88991727  0.50343625  1
  P  P70  1  0.20656396  0.26742100  0.57007420  1
  P  P71  1  0.80504686  0.52403398  0.52644682  1
  O  O72  1  0.80998720  0.01746644  0.07177315  1
  O  O73  1  0.29746337  0.17611259  0.08247534  1
  O  O74  1  0.67892081  0.63471662  0.00192912  1
  O  O75  1  0.70402891  0.53719444  0.05528727  1
  O  O76  1  0.30252645  0.27522297  0.02988094  1
  O  O77  1  0.20316518  0.64741622  0.09168270  1
  O  O78  1  0.78964095  0.90956592  0.12267663  1
  O  O79  1  0.80859866  0.80877269  0.07037371  1
  O  O80  1  0.69221125  0.42641462  0.00468990  1
  O  O81  1  0.29466357  0.38469116  0.08077580  1
  O  O82  1  0.38412851  0.91339485  0.08606672  1
  O  O83  1  0.88091120  0.27775171  0.06381610  1
  O  O84  1  0.11055857  0.53780378  0.01884824  1
  O  O85  1  0.79873826  0.76216020  0.19418925  1
  O  O86  1  0.20445546  0.54551966  0.14403082  1
  O  O87  1  0.29665578  0.92075203  0.20694243  1
  O  O88  1  0.70260798  0.38887437  0.13143845  1
  O  O89  1  0.70155537  0.28576831  0.18369578  1
  O  O90  1  0.29492204  0.02689675  0.15538316  1
  O  O91  1  0.20226290  0.39860752  0.21808486  1
  O  O92  1  0.79795358  0.65831377  0.24625824  1
  O  O93  1  0.20621840  0.75399271  0.14322628  1
  O  O94  1  0.79813430  0.55375688  0.19426384  1
  O  O95  1  0.70340255  0.18049754  0.13200537  1
  O  O96  1  0.29723949  0.12970116  0.20752661  1
  O  O97  1  0.38153719  0.65851684  0.21170078  1
  O  O98  1  0.62139981  0.64795635  0.12570912  1
  O  O99  1  0.87959419  0.02568924  0.19014483  1
  O  O100  1  0.11915325  0.28622347  0.14936340  1
  O  O101  1  0.79600093  0.50830296  0.32051264  1
  O  O102  1  0.20285648  0.29445321  0.27008029  1
  O  O103  1  0.29791131  0.66659422  0.33266742  1
  O  O104  1  0.70350591  0.13582772  0.25790602  1
  O  O105  1  0.70340804  0.03068612  0.30971963  1
  O  O106  1  0.29796568  0.77175876  0.28086245  1
  O  O107  1  0.20243263  0.14470446  0.34414492  1
  O  O108  1  0.79663657  0.40389916  0.37246335  1
  O  O109  1  0.20277519  0.50297935  0.27002853  1
  O  O110  1  0.79518472  0.29974938  0.32051991  1
  O  O111  1  0.70333030  0.92728952  0.25754580  1
  O  O112  1  0.29865024  0.87511438  0.33306536  1
  O  O113  1  0.37906197  0.40475512  0.33813276  1
  O  O114  1  0.61942645  0.39820727  0.25251806  1
  O  O115  1  0.88152282  0.77096812  0.31542748  1
  O  O116  1  0.12014021  0.03153977  0.27521124  1
  O  O117  1  0.79584938  0.25616350  0.44641890  1
  O  O118  1  0.20231894  0.04051626  0.39614096  1
  O  O119  1  0.29678394  0.41343897  0.45891814  1
  O  O120  1  0.70455710  0.88186635  0.38372592  1
  O  O121  1  0.70613459  0.77547949  0.43523972  1
  O  O122  1  0.29775772  0.51709924  0.40677634  1
  O  O123  1  0.21146446  0.89259895  0.46792369  1
  O  O124  1  0.79618471  0.15383824  0.49869489  1
  O  O125  1  0.20201314  0.24893842  0.39616988  1
  O  O126  1  0.79500845  0.04755307  0.44712966  1
  O  O127  1  0.70397812  0.67299991  0.38307796  1
  O  O128  1  0.29603420  0.62183750  0.45855306  1
  O  O129  1  0.37896629  0.15347608  0.46447447  1
  O  O130  1  0.61897786  0.14413503  0.37871379  1
  O  O131  1  0.88006093  0.51614348  0.44112006  1
  O  O132  1  0.12168038  0.77705325  0.40048311  1
  O  O133  1  0.18950461  0.78414506  0.51877545  1
  O  O134  1  0.31928144  0.16797658  0.58780865  1
  O  O135  1  0.70246704  0.62656434  0.50816391  1
  O  O136  1  0.69808668  0.52730160  0.56068191  1
  O  O137  1  0.29369288  0.26537392  0.53449120  1
  O  O138  1  0.19026306  0.99274497  0.52026726  1
  O  O139  1  0.70422427  0.41819014  0.50962784  1
  O  O140  1  0.30668285  0.37605024  0.58523425  1
  O  O141  1  0.61569925  0.88830411  0.50469906  1
  O  O142  1  0.88775680  0.26542261  0.57097826  1
  O  O143  1  0.11893655  0.52452814  0.52660985  1
