# generated using pymatgen
data_Li3PO4
_symmetry_space_group_name_H-M   'P 1'
_cell_length_a   4.97784600
_cell_length_b   6.15119200
_cell_length_c   52.77425300
_cell_angle_alpha   90.00000000
_cell_angle_beta   90.00000000
_cell_angle_gamma   90.00000000
_symmetry_Int_Tables_number   1
_chemical_formula_structural   Li3PO4
_chemical_formula_sum   'Li24 P8 O32'
_cell_volume   1615.93108173
_cell_formula_units_Z   8
loop_
 _symmetry_equiv_pos_site_id
 _symmetry_equiv_pos_as_xyz
  1  'x, y, z'
loop_
 _atom_site_type_symbol
 _atom_site_label
 _atom_site_symmetry_multiplicity
 _atom_site_fract_x
 _atom_site_fract_y
 _atom_site_fract_z
 _atom_site_occupancy
  Li  Li0  1  0.80381440  0.49865061  0.16708067  1
  Li  Li1  1  0.30337551  0.50092745  0.13216643  1
  Li  Li2  1  0.67737891  0.48888956  0.07048833  1
  Li  Li3  1  0.67730310  0.01116362  0.07050168  1
  Li  Li4  1  0.30337474  0.99907243  0.13216650  1
  Li  Li5  1  0.80381508  0.00134757  0.16708059  1
  Li  Li6  1  0.20374292  0.74999966  0.18486003  1
  Li  Li7  1  0.70955882  0.25000225  0.11528323  1
  Li  Li8  1  0.27659697  0.74999683  0.08321153  1
  Li  Li9  1  0.80337569  0.49907260  0.36783361  1
  Li  Li10  1  0.20116284  0.50169936  0.23259219  1
  Li  Li11  1  0.30381494  0.50134976  0.33291929  1
  Li  Li12  1  0.70116325  0.49830065  0.26740779  1
  Li  Li13  1  0.70116325  0.00170059  0.26740772  1
  Li  Li14  1  0.30381601  0.99865238  0.33291937  1
  Li  Li15  1  0.20116284  0.99829998  0.23259222  1
  Li  Li16  1  0.80337517  0.00092761  0.36783353  1
  Li  Li17  1  0.20955880  0.74999764  0.38471685  1
  Li  Li18  1  0.80140737  0.24999977  0.21475076  1
  Li  Li19  1  0.70374372  0.25000054  0.31513998  1
  Li  Li20  1  0.30140814  0.75000039  0.28524918  1
  Li  Li21  1  0.17737899  0.51111009  0.42951173  1
  Li  Li22  1  0.17730318  0.98883648  0.42949840  1
  Li  Li23  1  0.77659712  0.25000312  0.41678844  1
  P  P24  1  0.30873669  0.24999873  0.18199756  1
  P  P25  1  0.81041561  0.74999710  0.11738896  1
  P  P26  1  0.19558916  0.25000073  0.08163533  1
  P  P27  1  0.31041549  0.25000227  0.38261099  1
  P  P28  1  0.69491652  0.74999881  0.21761504  1
  P  P29  1  0.80874082  0.75000294  0.31800238  1
  P  P30  1  0.19491796  0.25000104  0.28238496  1
  P  P31  1  0.69558888  0.74999893  0.41836474  1
  O  O32  1  0.20564133  0.45710450  0.16797930  1
  O  O33  1  0.70547856  0.54315149  0.13127264  1
  O  O34  1  0.29825922  0.45855050  0.06835151  1
  O  O35  1  0.29824708  0.04144646  0.06835195  1
  O  O36  1  0.70547706  0.95684734  0.13127211  1
  O  O37  1  0.20564168  0.04289114  0.16797937  1
  O  O38  1  0.79886893  0.74999811  0.18982083  1
  O  O39  1  0.29347764  0.24999900  0.10991045  1
  O  O40  1  0.71003192  0.74999345  0.08934848  1
  O  O41  1  0.62244111  0.24999791  0.18184724  1
  O  O42  1  0.12304720  0.74999943  0.11762931  1
  O  O43  1  0.87919675  0.24999805  0.08156460  1
  O  O44  1  0.20547860  0.45684806  0.36872732  1
  O  O45  1  0.79762982  0.54288909  0.23166329  1
  O  O46  1  0.70564366  0.54289654  0.33202074  1
  O  O47  1  0.29763037  0.45711062  0.26833665  1
  O  O48  1  0.29762970  0.04289057  0.26833675  1
  O  O49  1  0.70564663  0.95710989  0.33202057  1
  O  O50  1  0.79763014  0.95710960  0.23166314  1
  O  O51  1  0.20547810  0.04315193  0.36872793  1
  O  O52  1  0.79348052  0.74999915  0.39008970  1
  O  O53  1  0.20516530  0.24999920  0.20981766  1
  O  O54  1  0.29887287  0.25000176  0.31017905  1
  O  O55  1  0.70516678  0.75000152  0.29018233  1
  O  O56  1  0.62304756  0.25000061  0.38237065  1
  O  O57  1  0.38139924  0.74999915  0.21772028  1
  O  O58  1  0.12244251  0.75000207  0.31815257  1
  O  O59  1  0.88140061  0.25000114  0.28227994  1
  O  O60  1  0.79826000  0.54144901  0.43164842  1
  O  O61  1  0.79824776  0.95855337  0.43164800  1
  O  O62  1  0.21003191  0.25000623  0.41065145  1
  O  O63  1  0.37919658  0.75000158  0.41843572  1
