# generated using pymatgen
data_Li3PO4
_symmetry_space_group_name_H-M   'P 1'
_cell_length_a   4.97784600
_cell_length_b   16.20967300
_cell_length_c   48.06382600
_cell_angle_alpha   90.00000000
_cell_angle_beta   90.00000000
_cell_angle_gamma   90.00000000
_symmetry_Int_Tables_number   1
_chemical_formula_structural   Li3PO4
_chemical_formula_sum   'Li84 P28 O112'
_cell_volume   3878.23435586
_cell_formula_units_Z   28
loop_
 _symmetry_equiv_pos_site_id
 _symmetry_equiv_pos_as_xyz
  1  'x, y, z'
loop_
 _atom_site_type_symbol
 _atom_site_label
 _atom_site_symmetry_multiplicity
 _atom_site_fract_x
 _atom_site_fract_y
 _atom_site_fract_z
 _atom_site_occupancy
  Li  Li0  1  0.19665055  0.60332281  0.13799966  1
  Li  Li1  1  0.18584988  0.89023352  0.05791154  1
  Li  Li2  1  0.79981178  0.46428582  0.08246367  1
  Li  Li3  1  0.70009583  0.96437205  0.08245686  1
  Li  Li4  1  0.31410667  0.39023617  0.05790570  1
  Li  Li5  1  0.30349637  0.10298845  0.13802300  1
  Li  Li6  1  0.29930035  0.24794231  0.09620737  1
  Li  Li7  1  0.69837192  0.82024573  0.12487013  1
  Li  Li8  1  0.69215147  0.11281634  0.04398372  1
  Li  Li9  1  0.80818478  0.61273879  0.04395360  1
  Li  Li10  1  0.80166698  0.32027908  0.12487060  1
  Li  Li11  1  0.20072484  0.74790918  0.09618830  1
  Li  Li12  1  0.79302781  0.63667278  0.10237401  1
  Li  Li13  1  0.19855629  0.43154995  0.11946873  1
  Li  Li14  1  0.18937501  0.71286715  0.03880521  1
  Li  Li15  1  0.31066794  0.21288959  0.03880470  1
  Li  Li16  1  0.30182147  0.93146998  0.11943984  1
  Li  Li17  1  0.70775050  0.13706244  0.10243540  1
  Li  Li18  1  0.19947053  0.02829253  0.30592292  1
  Li  Li19  1  0.20029973  0.31647461  0.22168649  1
  Li  Li20  1  0.80012437  0.88940839  0.25065509  1
  Li  Li21  1  0.80334982  0.17822560  0.16667830  1
  Li  Li22  1  0.69666256  0.67822343  0.16668115  1
  Li  Li23  1  0.69988356  0.38940033  0.25065821  1
  Li  Li24  1  0.29968990  0.81647837  0.22168564  1
  Li  Li25  1  0.30052607  0.52828895  0.30591679  1
  Li  Li26  1  0.30022940  0.67310895  0.26329771  1
  Li  Li27  1  0.30084351  0.96128528  0.18000484  1
  Li  Li28  1  0.69779711  0.24415027  0.29292896  1
  Li  Li29  1  0.69987021  0.53325195  0.20890830  1
  Li  Li30  1  0.80017088  0.03327654  0.20891613  1
  Li  Li31  1  0.80219558  0.74415238  0.29292987  1
  Li  Li32  1  0.19940720  0.46117449  0.17996985  1
  Li  Li33  1  0.19974241  0.17310204  0.26329580  1
  Li  Li34  1  0.79760141  0.06262563  0.26978080  1
  Li  Li35  1  0.79946476  0.35080147  0.18550287  1
  Li  Li36  1  0.20094229  0.85537340  0.28669611  1
  Li  Li37  1  0.20225425  0.14406438  0.20252869  1
  Li  Li38  1  0.29751184  0.64379641  0.20259783  1
  Li  Li39  1  0.29904744  0.35537556  0.28668680  1
  Li  Li40  1  0.70055960  0.85079684  0.18550360  1
  Li  Li41  1  0.70221547  0.56272095  0.26974178  1
  Li  Li42  1  0.19783256  0.45244060  0.47403742  1
  Li  Li43  1  0.19891851  0.74097761  0.38972436  1
  Li  Li44  1  0.80099225  0.31393979  0.41908426  1
  Li  Li45  1  0.80017618  0.60102563  0.33495358  1
  Li  Li46  1  0.69980160  0.10102565  0.33495770  1
  Li  Li47  1  0.69911225  0.81401278  0.41907807  1
  Li  Li48  1  0.30109391  0.24097567  0.38972783  1
  Li  Li49  1  0.30234405  0.95238792  0.47404581  1
  Li  Li50  1  0.30169596  0.09829158  0.43186208  1
  Li  Li51  1  0.30153803  0.38546219  0.34757047  1
  Li  Li52  1  0.69868533  0.66889581  0.46109476  1
  Li  Li53  1  0.69801068  0.95686435  0.37722647  1
  Li  Li54  1  0.80199621  0.45686456  0.37722608  1
  Li  Li55  1  0.80132647  0.16888310  0.46109466  1
  Li  Li56  1  0.19844551  0.88545819  0.34757220  1
  Li  Li57  1  0.19870458  0.59842942  0.43188319  1
  Li  Li58  1  0.79759382  0.48725340  0.43804093  1
  Li  Li59  1  0.79579778  0.77494285  0.35364579  1
  Li  Li60  1  0.20066432  0.27993438  0.45512277  1
  Li  Li61  1  0.20134445  0.56746817  0.37125516  1
  Li  Li62  1  0.29864136  0.06746743  0.37125596  1
  Li  Li63  1  0.29933686  0.77993982  0.45512537  1
  Li  Li64  1  0.70417947  0.27494588  0.35364584  1
  Li  Li65  1  0.70245821  0.98724383  0.43804681  1
  Li  Li66  1  0.20041904  0.16546147  0.55845275  1
  Li  Li67  1  0.81475892  0.74035579  0.58281704  1
  Li  Li68  1  0.80285380  0.02601414  0.50289615  1
  Li  Li69  1  0.69742754  0.52599340  0.50288351  1
  Li  Li70  1  0.68508620  0.24034902  0.58281322  1
  Li  Li71  1  0.29939226  0.66548906  0.55845213  1
  Li  Li72  1  0.30843431  0.51733561  0.59656735  1
  Li  Li73  1  0.30011805  0.81045046  0.51616440  1
  Li  Li74  1  0.70119195  0.38243687  0.54498574  1
  Li  Li75  1  0.79872549  0.88244523  0.54498862  1
  Li  Li76  1  0.19949487  0.31044960  0.51613696  1
  Li  Li77  1  0.19133597  0.01755527  0.59680586  1
  Li  Li78  1  0.81081411  0.91761053  0.60252472  1
  Li  Li79  1  0.80302104  0.19829354  0.52151408  1
  Li  Li80  1  0.20761660  0.99255298  0.53852969  1
  Li  Li81  1  0.29237894  0.49250718  0.53849875  1
  Li  Li82  1  0.69683521  0.69832740  0.52152230  1
  Li  Li83  1  0.68914576  0.41758182  0.60253837  1
  P  P84  1  0.69240330  0.50026557  0.14639379  1
  P  P85  1  0.69850658  0.78723060  0.06234632  1
  P  P86  1  0.30207101  0.56795289  0.07459737  1
  P  P87  1  0.30806516  0.28136922  0.15835475  1
  P  P88  1  0.19204678  0.78139322  0.15836735  1
  P  P89  1  0.19805201  0.06801147  0.07463307  1
  P  P90  1  0.80145981  0.28729606  0.06234162  1
  P  P91  1  0.80781067  0.00023887  0.14640758  1
  P  P92  1  0.69318664  0.92461670  0.31414326  1
  P  P93  1  0.69440539  0.21290339  0.22998598  1
  P  P94  1  0.30617055  0.99342410  0.24247675  1
  P  P95  1  0.30574174  0.70505890  0.32637341  1
  P  P96  1  0.19423403  0.20505185  0.32637893  1
  P  P97  1  0.19387132  0.49336802  0.24246527  1
  P  P98  1  0.80556627  0.71289263  0.22998915  1
  P  P99  1  0.80680105  0.42463103  0.31414046  1
  P  P100  1  0.69288097  0.34898500  0.48248466  1
  P  P101  1  0.69317527  0.63717739  0.39828274  1
  P  P102  1  0.30624903  0.41753883  0.41067844  1
  P  P103  1  0.30761313  0.12978043  0.49452641  1
  P  P104  1  0.19231417  0.62979025  0.49453258  1
  P  P105  1  0.19377717  0.91751282  0.41068342  1
  P  P106  1  0.80683118  0.13715553  0.39828524  1
  P  P107  1  0.80709438  0.84897480  0.48248810  1
  P  P108  1  0.69763894  0.06208908  0.56634971  1
  P  P109  1  0.30155133  0.84277687  0.57876929  1
  P  P110  1  0.19828728  0.34268811  0.57877381  1
  P  P111  1  0.80200634  0.56205759  0.56631011  1
  O  O112  1  0.79479265  0.58970812  0.14076566  1
  O  O113  1  0.80941588  0.87552602  0.05842898  1
  O  O114  1  0.20054233  0.47864605  0.08076078  1
  O  O115  1  0.20500957  0.19194498  0.16387481  1
  O  O116  1  0.29514968  0.69198399  0.16390501  1
  O  O117  1  0.29950483  0.97867182  0.08077319  1
  O  O118  1  0.69052199  0.37556984  0.05839157  1
  O  O119  1  0.70560574  0.08968862  0.14077646  1
  O  O120  1  0.71342770  0.25485829  0.09177444  1
  O  O121  1  0.29439678  0.81123776  0.12934950  1
  O  O122  1  0.30663649  0.09746782  0.04607740  1
  O  O123  1  0.19346582  0.59739121  0.04603823  1
  O  O124  1  0.20563912  0.31127454  0.12934914  1
  O  O125  1  0.78637728  0.75470787  0.09177078  1
  O  O126  1  0.20263363  0.62702058  0.09805592  1
  O  O127  1  0.79516916  0.44144889  0.12316886  1
  O  O128  1  0.80535247  0.72843605  0.03941746  1
  O  O129  1  0.69471514  0.22846531  0.03942116  1
  O  O130  1  0.70493629  0.94144701  0.12318487  1
  O  O131  1  0.29761602  0.12703678  0.09810235  1
  O  O132  1  0.37882335  0.50063931  0.14670051  1
  O  O133  1  0.38209271  0.78916985  0.06137011  1
  O  O134  1  0.61607009  0.56752330  0.07415921  1
  O  O135  1  0.62152308  0.28105994  0.15825378  1
  O  O136  1  0.87858063  0.78106727  0.15826842  1
  O  O137  1  0.88401442  0.06762796  0.07419651  1
  O  O138  1  0.11791292  0.28921062  0.06138104  1
  O  O139  1  0.12138596  0.00054227  0.14671325  1
  O  O140  1  0.79619933  0.01397025  0.30846410  1
  O  O141  1  0.79747063  0.30226165  0.22433871  1
  O  O142  1  0.20323808  0.90396485  0.24803842  1
  O  O143  1  0.20236219  0.61580394  0.33220841  1
  O  O144  1  0.29755118  0.11579650  0.33222889  1
  O  O145  1  0.29676674  0.40390689  0.24804313  1
  O  O146  1  0.70252375  0.80224467  0.22433711  1
  O  O147  1  0.70375950  0.51398003  0.30845783  1
  O  O148  1  0.70326818  0.68320059  0.25900471  1
  O  O149  1  0.70349612  0.97077925  0.17537564  1
  O  O150  1  0.29687361  0.23432375  0.29731355  1
  O  O151  1  0.29685142  0.52314893  0.21347810  1
  O  O152  1  0.20326601  0.02327174  0.21349830  1
  O  O153  1  0.20314205  0.73435855  0.29730870  1
  O  O154  1  0.79661526  0.47075332  0.17536258  1
  O  O155  1  0.79670328  0.18317750  0.25899884  1
  O  O156  1  0.20271256  0.05225480  0.26569081  1
  O  O157  1  0.20384982  0.34021173  0.18151950  1
  O  O158  1  0.79712940  0.86552241  0.29101361  1
  O  O159  1  0.79829002  0.15402007  0.20679254  1
  O  O160  1  0.70163255  0.65396153  0.20681197  1
  O  O161  1  0.70283619  0.36552006  0.29101291  1
  O  O162  1  0.29622843  0.84026846  0.18152207  1
  O  O163  1  0.29734678  0.55225045  0.26566369  1
  O  O164  1  0.37957480  0.92482921  0.31424228  1
  O  O165  1  0.38071869  0.21316952  0.23009132  1
  O  O166  1  0.61985484  0.99311336  0.24229996  1
  O  O167  1  0.61941402  0.70457138  0.32624455  1
  O  O168  1  0.88055867  0.20456634  0.32624435  1
  O  O169  1  0.88017266  0.49306793  0.24228339  1
  O  O170  1  0.11925164  0.71315158  0.23009410  1
  O  O171  1  0.12040502  0.42484238  0.31423680  1
  O  O172  1  0.79671263  0.43825937  0.47682554  1
  O  O173  1  0.79616970  0.72648993  0.39255717  1
  O  O174  1  0.20307787  0.32817065  0.41636869  1
  O  O175  1  0.20428178  0.04042560  0.50012793  1
  O  O176  1  0.29562911  0.54044098  0.50012300  1
  O  O177  1  0.29682224  0.82813337  0.41637596  1
  O  O178  1  0.70381986  0.22646466  0.39255860  1
  O  O179  1  0.70333842  0.93825627  0.47683089  1
  O  O180  1  0.70402578  0.10769390  0.42733137  1
  O  O181  1  0.70447850  0.39528345  0.34321746  1
  O  O182  1  0.29597266  0.65949228  0.46556769  1
  O  O183  1  0.29604375  0.94689713  0.38160787  1
  O  O184  1  0.20403406  0.44692059  0.38160340  1
  O  O185  1  0.20404282  0.15946381  0.46555217  1
  O  O186  1  0.79551249  0.89528286  0.34321786  1
  O  O187  1  0.79594630  0.60771930  0.42732709  1
  O  O188  1  0.20227002  0.47674241  0.43378011  1
  O  O189  1  0.20230731  0.76443021  0.34946178  1
  O  O190  1  0.79665824  0.28997988  0.45933497  1
  O  O191  1  0.79668855  0.57785531  0.37520131  1
  O  O192  1  0.70334505  0.07782690  0.37520376  1
  O  O193  1  0.70327537  0.78999516  0.45933568  1
  O  O194  1  0.29762874  0.26443259  0.34946385  1
  O  O195  1  0.29786013  0.97669001  0.43379200  1
  O  O196  1  0.37934128  0.34947833  0.48259582  1
  O  O197  1  0.37948288  0.63758151  0.39844027  1
  O  O198  1  0.61993546  0.41727204  0.41057294  1
  O  O199  1  0.62125270  0.12906842  0.49429236  1
  O  O200  1  0.87868381  0.62907991  0.49429472  1
  O  O201  1  0.88008331  0.91730433  0.41057591  1
  O  O202  1  0.12053942  0.13757609  0.39845136  1
  O  O203  1  0.12063200  0.84943738  0.48260165  1
  O  O204  1  0.79914971  0.15140894  0.56019579  1
  O  O205  1  0.19125499  0.75440562  0.58263732  1
  O  O206  1  0.30840467  0.25431532  0.58264303  1
  O  O207  1  0.70043531  0.65139395  0.56019348  1
  O  O208  1  0.69398351  0.53263364  0.59488383  1
  O  O209  1  0.70485828  0.81927209  0.51154845  1
  O  O210  1  0.28660535  0.37508685  0.54933682  1
  O  O211  1  0.21325817  0.87514451  0.54933066  1
  O  O212  1  0.79506437  0.31926837  0.51154324  1
  O  O213  1  0.80598325  0.03272214  0.59492254  1
  O  O214  1  0.19416170  0.90162752  0.60164117  1
  O  O215  1  0.20495258  0.18872437  0.51773185  1
  O  O216  1  0.79734248  0.00301859  0.54290417  1
  O  O217  1  0.70218572  0.50299120  0.54287879  1
  O  O218  1  0.29485900  0.68873581  0.51774544  1
  O  O219  1  0.30576435  0.40152677  0.60164762  1
  O  O220  1  0.38362351  0.06241425  0.56670142  1
  O  O221  1  0.61800672  0.84118370  0.57977316  1
  O  O222  1  0.88181110  0.34113976  0.57977951  1
  O  O223  1  0.11600558  0.56240819  0.56661087  1
