# generated using pymatgen
data_Li3PO4
_symmetry_space_group_name_H-M   'P 1'
_cell_length_a   7.91303400
_cell_length_b   11.66978227
_cell_length_c   43.59685200
_cell_angle_alpha   90.00000000
_cell_angle_beta   90.00000000
_cell_angle_gamma   74.43479159
_symmetry_Int_Tables_number   1
_chemical_formula_structural   Li3PO4
_chemical_formula_sum   'Li72 P24 O96'
_cell_volume   3878.23441823
_cell_formula_units_Z   24
loop_
 _symmetry_equiv_pos_site_id
 _symmetry_equiv_pos_as_xyz
  1  'x, y, z'
loop_
 _atom_site_type_symbol
 _atom_site_label
 _atom_site_symmetry_multiplicity
 _atom_site_fract_x
 _atom_site_fract_y
 _atom_site_fract_z
 _atom_site_occupancy
  Li  Li0  1  0.16667251  0.70380391  0.08527848  1
  Li  Li1  1  0.27799306  0.09034811  0.05881042  1
  Li  Li2  1  0.36765625  0.28408309  0.03088275  1
  Li  Li3  1  0.69262853  0.23830219  0.06924422  1
  Li  Li4  1  0.71300183  0.56380015  0.06883387  1
  Li  Li5  1  0.85143029  0.20085842  0.00791901  1
  Li  Li6  1  0.56106914  0.84755217  0.05803674  1
  Li  Li7  1  0.89168950  0.97442185  0.08100350  1
  Li  Li8  1  0.10323146  0.51911777  0.04212370  1
  Li  Li9  1  0.80960344  0.60085188  0.16445371  1
  Li  Li10  1  0.90641108  0.95916814  0.14114127  1
  Li  Li11  1  0.04513633  0.50570731  0.10959913  1
  Li  Li12  1  0.01851352  0.17345524  0.11231318  1
  Li  Li13  1  0.34695985  0.11283185  0.15535495  1
  Li  Li14  1  0.36951507  0.44856178  0.15020315  1
  Li  Li15  1  0.57630520  0.02609127  0.09763728  1
  Li  Li16  1  0.48771203  0.65934321  0.12257421  1
  Li  Li17  1  0.14960036  0.71899121  0.14427362  1
  Li  Li18  1  0.56302927  0.84244410  0.16351379  1
  Li  Li19  1  0.77106260  0.40959248  0.11327483  1
  Li  Li20  1  0.29441394  0.27086296  0.10828761  1
  Li  Li21  1  0.45998603  0.48376425  0.24800386  1
  Li  Li22  1  0.55717757  0.84311192  0.22525817  1
  Li  Li23  1  0.69597059  0.38854284  0.19197502  1
  Li  Li24  1  0.67025218  0.05445084  0.19704448  1
  Li  Li25  1  0.99841817  0.99611350  0.23976681  1
  Li  Li26  1  0.01875912  0.33131224  0.23329199  1
  Li  Li27  1  0.22930912  0.90374640  0.18259812  1
  Li  Li28  1  0.13709639  0.54124033  0.20643400  1
  Li  Li29  1  0.80258156  0.60309295  0.22636533  1
  Li  Li30  1  0.21550011  0.72403809  0.24669238  1
  Li  Li31  1  0.42356382  0.29231538  0.19681108  1
  Li  Li32  1  0.94109784  0.15030220  0.19209975  1
  Li  Li33  1  0.11018172  0.36498802  0.33176957  1
  Li  Li34  1  0.20885750  0.72466903  0.30902637  1
  Li  Li35  1  0.34795045  0.27145454  0.27561091  1
  Li  Li36  1  0.32053838  0.93678101  0.28157858  1
  Li  Li37  1  0.64858413  0.87684972  0.32377155  1
  Li  Li38  1  0.67096891  0.21219853  0.31720434  1
  Li  Li39  1  0.88157695  0.78447074  0.26684891  1
  Li  Li40  1  0.78812999  0.42325152  0.29012114  1
  Li  Li41  1  0.45363725  0.48414078  0.31001043  1
  Li  Li42  1  0.86653404  0.60518162  0.33028379  1
  Li  Li43  1  0.07510667  0.17606700  0.28056507  1
  Li  Li44  1  0.59444775  0.03150384  0.27624439  1
  Li  Li45  1  0.76106758  0.24849805  0.41567133  1
  Li  Li46  1  0.85879804  0.60769932  0.39219089  1
  Li  Li47  1  0.99918272  0.15334238  0.35982555  1
  Li  Li48  1  0.97303439  0.81903618  0.36539422  1
  Li  Li49  1  0.29955736  0.75940295  0.40655524  1
  Li  Li50  1  0.32157594  0.09471888  0.40165440  1
  Li  Li51  1  0.53133857  0.66709054  0.35023259  1
  Li  Li52  1  0.43859198  0.30424985  0.37448122  1
  Li  Li53  1  0.10521997  0.36590474  0.39393462  1
  Li  Li54  1  0.51684009  0.48842943  0.41291292  1
  Li  Li55  1  0.72639996  0.05844911  0.36471933  1
  Li  Li56  1  0.24621337  0.91558311  0.36020452  1
  Li  Li57  1  0.38848288  0.11728630  0.49811887  1
  Li  Li58  1  0.50018039  0.50322520  0.47197503  1
  Li  Li59  1  0.64945545  0.03394124  0.44463462  1
  Li  Li60  1  0.62289431  0.70195960  0.44771582  1
  Li  Li61  1  0.95596105  0.64396425  0.48801121  1
  Li  Li62  1  0.97611503  0.97213328  0.48798253  1
  Li  Li63  1  0.17939237  0.54934603  0.43417265  1
  Li  Li64  1  0.08978142  0.18285114  0.45929506  1
  Li  Li65  1  0.77534832  0.23258122  0.47563892  1
  Li  Li66  1  0.10616201  0.36105219  0.49897488  1
  Li  Li67  1  0.37351407  0.93689907  0.44870953  1
  Li  Li68  1  0.89729337  0.79896617  0.44395844  1
  Li  Li69  1  0.30166460  0.92351565  0.52597095  1
  Li  Li70  1  0.82033406  0.00713562  0.54959984  1
  Li  Li71  1  0.56784019  0.68892285  0.51453620  1
  P  P72  1  0.62537372  0.04988669  0.02958669  1
  P  P73  1  0.40181808  0.46928229  0.08162129  1
  P  P74  1  0.01428431  0.33002872  0.05569146  1
  P  P75  1  0.79326649  0.75203981  0.10890532  1
  P  P76  1  0.27141940  0.92303387  0.11216024  1
  P  P77  1  0.05570003  0.35115534  0.16487080  1
  P  P78  1  0.65854434  0.20904253  0.14036592  1
  P  P79  1  0.44497917  0.63773394  0.19216834  1
  P  P80  1  0.92157254  0.80750654  0.19757864  1
  P  P81  1  0.70737503  0.23423220  0.24861756  1
  P  P82  1  0.30922121  0.09107097  0.22435827  1
  P  P83  1  0.09621624  0.51894746  0.27572061  1
  P  P84  1  0.57310449  0.68896357  0.28111580  1
  P  P85  1  0.35921835  0.11683362  0.33261716  1
  P  P86  1  0.96085545  0.97347051  0.30843177  1
  P  P87  1  0.74672042  0.40075127  0.35939303  1
  P  P88  1  0.22326047  0.57019836  0.36477198  1
  P  P89  1  0.00958270  0.99906959  0.41671416  1
  P  P90  1  0.61266367  0.85650792  0.39217974  1
  P  P91  1  0.39599447  0.28453546  0.44473802  1
  P  P92  1  0.87337063  0.45610024  0.44810374  1
  P  P93  1  0.65481853  0.87865423  0.50148266  1
  P  P94  1  0.26687507  0.73893878  0.47529786  1
  P  P95  1  0.04330306  0.15920420  0.52777071  1
  O  O96  1  0.42638005  0.12019210  0.03002818  1
  O  O97  1  0.27482828  0.57038864  0.06276588  1
  O  O98  1  0.13300470  0.23495963  0.07754620  1
  O  O99  1  0.86667345  0.28146618  0.04305084  1
  O  O100  1  0.69854635  0.07438489  0.06285909  1
  O  O101  1  0.72131410  0.71850607  0.07820812  1
  O  O102  1  0.64785367  0.91579754  0.02711107  1
  O  O103  1  0.93298361  0.44815501  0.07458354  1
  O  O104  1  0.47629329  0.35902177  0.06175925  1
  O  O105  1  0.72247829  0.10144598  0.00503354  1
  O  O106  1  0.12462998  0.36483715  0.02977874  1
  O  O107  1  0.98963674  0.67972135  0.11270598  1
  O  O108  1  0.07570014  0.99676540  0.10846531  1
  O  O109  1  0.93112155  0.44930754  0.14473628  1
  O  O110  1  0.78282089  0.10972519  0.16022353  1
  O  O111  1  0.51099278  0.15950824  0.12637630  1
  O  O112  1  0.55227179  0.51779904  0.09548403  1
  O  O113  1  0.34215069  0.95033568  0.14397856  1
  O  O114  1  0.37152810  0.61202615  0.16043384  1
  O  O115  1  0.28127138  0.78821906  0.11031754  1
  O  O116  1  0.78091669  0.88748724  0.11002494  1
  O  O117  1  0.57470267  0.31838716  0.16106726  1
  O  O118  1  0.14000767  0.24100663  0.14469679  1
  O  O119  1  0.68461830  0.71898140  0.13579973  1
  O  O120  1  0.38145303  0.95753252  0.08576809  1
  O  O121  1  0.29482783  0.43718551  0.10911842  1
  O  O122  1  0.76677129  0.24609130  0.11413292  1
  O  O123  1  0.64010271  0.56364196  0.19518214  1
  O  O124  1  0.72614204  0.88109189  0.19474357  1
  O  O125  1  0.58332609  0.33276909  0.22867844  1
  O  O126  1  0.43182259  0.99297154  0.24461355  1
  O  O127  1  0.16283019  0.04145448  0.20986918  1
  O  O128  1  0.20116905  0.40176450  0.17936165  1
  O  O129  1  0.99555226  0.83276325  0.22927151  1
  O  O130  1  0.02206272  0.49373810  0.24399812  1
  O  O131  1  0.93571636  0.67244503  0.19451645  1
  O  O132  1  0.43130169  0.77289046  0.19491258  1
  O  O133  1  0.22486888  0.20174166  0.24448199  1
  O  O134  1  0.79180908  0.12433145  0.22824222  1
  O  O135  1  0.33539180  0.60009066  0.21819631  1
  O  O136  1  0.03003993  0.84588099  0.17144415  1
  O  O137  1  0.94636394  0.31568196  0.19126806  1
  O  O138  1  0.41892448  0.12625320  0.19795962  1
  O  O139  1  0.29154731  0.44500571  0.27854650  1
  O  O140  1  0.37777936  0.76290158  0.27828953  1
  O  O141  1  0.23624983  0.21484138  0.31238856  1
  O  O142  1  0.08525908  0.87524575  0.32841105  1
  O  O143  1  0.81478777  0.92342092  0.29399721  1
  O  O144  1  0.85373006  0.28405879  0.26304072  1
  O  O145  1  0.64697423  0.71434892  0.31284940  1
  O  O146  1  0.67339938  0.37522315  0.32764893  1
  O  O147  1  0.58582486  0.55406557  0.27826208  1
  O  O148  1  0.08355529  0.65382263  0.27862684  1
  O  O149  1  0.87610634  0.08343337  0.32875742  1
  O  O150  1  0.44370466  0.00620139  0.31248787  1
  O  O151  1  0.98723192  0.48106803  0.30182006  1
  O  O152  1  0.68227991  0.72666462  0.25502780  1
  O  O153  1  0.59898730  0.19740945  0.27496894  1
  O  O154  1  0.06926457  0.01035121  0.28207949  1
  O  O155  1  0.94198808  0.32691884  0.36236439  1
  O  O156  1  0.02824860  0.64458152  0.36171761  1
  O  O157  1  0.88542809  0.09806816  0.39674881  1
  O  O158  1  0.73716779  0.75842853  0.41232034  1
  O  O159  1  0.46755411  0.80585897  0.37752642  1
  O  O160  1  0.50544228  0.16664606  0.34708263  1
  O  O161  1  0.29636827  0.59596193  0.39653157  1
  O  O162  1  0.32531988  0.25733930  0.41290585  1
  O  O163  1  0.23639043  0.43513281  0.36213494  1
  O  O164  1  0.73300268  0.53578686  0.36224368  1
  O  O165  1  0.52755840  0.96636631  0.41239894  1
  O  O166  1  0.09387817  0.88959225  0.39608625  1
  O  O167  1  0.63760869  0.36273413  0.38549982  1
  O  O168  1  0.33321136  0.60752448  0.33875213  1
  O  O169  1  0.24996127  0.08130789  0.35903410  1
  O  O170  1  0.72203844  0.89245376  0.36586171  1
  O  O171  1  0.59167656  0.21067421  0.44833708  1
  O  O172  1  0.67687615  0.52802613  0.44441117  1
  O  O173  1  0.53566820  0.97315410  0.47954209  1
  O  O174  1  0.39428884  0.63821123  0.49419570  1
  O  O175  1  0.11645865  0.69005473  0.46154877  1
  O  O176  1  0.15686060  0.04880765  0.43074031  1
  O  O177  1  0.94522669  0.48938346  0.47885134  1
  O  O178  1  0.96856389  0.13584977  0.49449582  1
  O  O179  1  0.88624945  0.32054006  0.44682716  1
  O  O180  1  0.38605253  0.41939727  0.44660145  1
  O  O181  1  0.19231115  0.84952782  0.49506114  1
  O  O182  1  0.73644137  0.76043066  0.48256407  1
  O  O183  1  0.28574657  0.25029866  0.47112511  1
  O  O184  1  0.98185249  0.48977159  0.42126407  1
  O  O185  1  0.90136032  0.96234243  0.44301210  1
  O  O186  1  0.37344863  0.77079042  0.44771798  1
  O  O187  1  0.24145409  0.08708835  0.52710755  1
  O  O188  1  0.80181676  0.92770690  0.51420012  1
  O  O189  1  0.02415071  0.29280470  0.53037117  1
  O  O190  1  0.94530285  0.10865292  0.55236683  1
  O  O191  1  0.54456906  0.84328429  0.52730528  1
