# generated using pymatgen
data_Li3PO4
_symmetry_space_group_name_H-M   'P 1'
_cell_length_a   4.97784600
_cell_length_b   16.20967300
_cell_length_c   48.06382600
_cell_angle_alpha   90.00000000
_cell_angle_beta   90.00000000
_cell_angle_gamma   90.00000000
_symmetry_Int_Tables_number   1
_chemical_formula_structural   Li3PO4
_chemical_formula_sum   'Li84 P28 O112'
_cell_volume   3878.23435586
_cell_formula_units_Z   28
loop_
 _symmetry_equiv_pos_site_id
 _symmetry_equiv_pos_as_xyz
  1  'x, y, z'
loop_
 _atom_site_type_symbol
 _atom_site_label
 _atom_site_symmetry_multiplicity
 _atom_site_fract_x
 _atom_site_fract_y
 _atom_site_fract_z
 _atom_site_occupancy
  Li  Li0  1  0.19659663  0.59033096  0.13276220  1
  Li  Li1  1  0.18606948  0.87599585  0.05267745  1
  Li  Li2  1  0.79783963  0.45079485  0.07716063  1
  Li  Li3  1  0.80287261  0.16417364  0.16169244  1
  Li  Li4  1  0.69719348  0.66417322  0.16169228  1
  Li  Li5  1  0.70259402  0.95079945  0.07713147  1
  Li  Li6  1  0.31399932  0.37599635  0.05267743  1
  Li  Li7  1  0.30355102  0.09034572  0.13275206  1
  Li  Li8  1  0.29898995  0.23341489  0.09041305  1
  Li  Li9  1  0.70208470  0.80626174  0.11935443  1
  Li  Li10  1  0.69075400  0.09974587  0.03874566  1
  Li  Li11  1  0.80951216  0.59970999  0.03877719  1
  Li  Li12  1  0.79803530  0.30618878  0.11934689  1
  Li  Li13  1  0.20105849  0.73342363  0.09041800  1
  Li  Li14  1  0.79310094  0.62374168  0.09714246  1
  Li  Li15  1  0.19686448  0.41802098  0.11408986  1
  Li  Li16  1  0.19293226  0.69864752  0.03300688  1
  Li  Li17  1  0.30716113  0.19865749  0.03300436  1
  Li  Li18  1  0.30324163  0.91802265  0.11408699  1
  Li  Li19  1  0.70714471  0.12374633  0.09713389  1
  Li  Li20  1  0.19899218  0.01338945  0.30023071  1
  Li  Li21  1  0.19963017  0.30083448  0.21628256  1
  Li  Li22  1  0.80194992  0.87527091  0.24529221  1
  Li  Li23  1  0.80229824  0.58729124  0.32923491  1
  Li  Li24  1  0.69766465  0.08729844  0.32923084  1
  Li  Li25  1  0.69806724  0.37526611  0.24529104  1
  Li  Li26  1  0.30039265  0.80084200  0.21628741  1
  Li  Li27  1  0.30068111  0.51345604  0.30023460  1
  Li  Li28  1  0.30087046  0.65799194  0.25825511  1
  Li  Li29  1  0.30409637  0.94717126  0.17423205  1
  Li  Li30  1  0.70097332  0.23038826  0.28755282  1
  Li  Li31  1  0.69654691  0.51782580  0.20367734  1
  Li  Li32  1  0.80352966  0.01782623  0.20367597  1
  Li  Li33  1  0.79902755  0.73038498  0.28755342  1
  Li  Li34  1  0.19633008  0.44708995  0.17422669  1
  Li  Li35  1  0.19923132  0.15799409  0.25825751  1
  Li  Li36  1  0.79784698  0.04768879  0.26422654  1
  Li  Li37  1  0.79783451  0.33621570  0.18042966  1
  Li  Li38  1  0.20157431  0.84033719  0.28143186  1
  Li  Li39  1  0.20406447  0.12866665  0.19730752  1
  Li  Li40  1  0.29595335  0.62866798  0.19730975  1
  Li  Li41  1  0.29842028  0.34034562  0.28143194  1
  Li  Li42  1  0.70222527  0.83623195  0.18043067  1
  Li  Li43  1  0.70214253  0.54768044  0.26422676  1
  Li  Li44  1  0.19927302  0.43845532  0.46812092  1
  Li  Li45  1  0.19915727  0.72557777  0.38441400  1
  Li  Li46  1  0.80000693  0.29993116  0.41334763  1
  Li  Li47  1  0.80298550  0.01280041  0.49688347  1
  Li  Li48  1  0.69695541  0.51279255  0.49687066  1
  Li  Li49  1  0.69997265  0.79994337  0.41333509  1
  Li  Li50  1  0.30083325  0.22558231  0.38441614  1
  Li  Li51  1  0.30072116  0.93846819  0.46812047  1
  Li  Li52  1  0.30186293  0.08305384  0.42596730  1
  Li  Li53  1  0.29876731  0.37007950  0.34205090  1
  Li  Li54  1  0.69685098  0.65527065  0.45517720  1
  Li  Li55  1  0.69898165  0.94264208  0.37143773  1
  Li  Li56  1  0.80099733  0.44263951  0.37143921  1
  Li  Li57  1  0.80324413  0.15457016  0.45514183  1
  Li  Li58  1  0.20121318  0.87007569  0.34205074  1
  Li  Li59  1  0.19817038  0.58308177  0.42597636  1
  Li  Li60  1  0.79552592  0.47271384  0.43234028  1
  Li  Li61  1  0.79866021  0.76000648  0.34819756  1
  Li  Li62  1  0.20111630  0.26625990  0.44941090  1
  Li  Li63  1  0.20310224  0.55287965  0.36533158  1
  Li  Li64  1  0.29693546  0.05286225  0.36532924  1
  Li  Li65  1  0.29875562  0.76630305  0.44941096  1
  Li  Li66  1  0.70133628  0.26000439  0.34819838  1
  Li  Li67  1  0.70460540  0.97264332  0.43234267  1
  Li  Li68  1  0.20132436  0.15164405  0.55242034  1
  Li  Li69  1  0.81312783  0.72578234  0.57689270  1
  Li  Li70  1  0.68644438  0.22567498  0.57686830  1
  Li  Li71  1  0.29833478  0.65171548  0.55245830  1
  Li  Li72  1  0.31137350  0.50261319  0.59076409  1
  Li  Li73  1  0.30052483  0.79672088  0.51022776  1
  Li  Li74  1  0.70064565  0.36776424  0.53902598  1
  Li  Li75  1  0.79921226  0.86775442  0.53901987  1
  Li  Li76  1  0.19930983  0.29664001  0.51022207  1
  Li  Li77  1  0.18849787  0.00260057  0.59075544  1
  Li  Li78  1  0.80791383  0.90270298  0.59635120  1
  Li  Li79  1  0.80189104  0.18503634  0.51547446  1
  Li  Li80  1  0.20589591  0.97943455  0.53245472  1
  Li  Li81  1  0.29343953  0.47949649  0.53248476  1
  Li  Li82  1  0.69756893  0.68501760  0.51548881  1
  Li  Li83  1  0.69204414  0.40270134  0.59633936  1
  P  P84  1  0.69135273  0.48641301  0.14107952  1
  P  P85  1  0.69966090  0.77358574  0.05681062  1
  P  P86  1  0.30258719  0.55421634  0.06924914  1
  P  P87  1  0.30640729  0.26724775  0.15299590  1
  P  P88  1  0.19375760  0.76727488  0.15300257  1
  P  P89  1  0.19763790  0.05422389  0.06922219  1
  P  P90  1  0.80045779  0.27358911  0.05680387  1
  P  P91  1  0.80914431  0.98645056  0.14106436  1
  P  P92  1  0.69409339  0.91013628  0.30867190  1
  P  P93  1  0.69465989  0.19782209  0.22478735  1
  P  P94  1  0.30715369  0.97826428  0.23695392  1
  P  P95  1  0.30619617  0.69044408  0.32094578  1
  P  P96  1  0.19377354  0.19043070  0.32094287  1
  P  P97  1  0.19286239  0.47826657  0.23695191  1
  P  P98  1  0.80541603  0.69782554  0.22478981  1
  P  P99  1  0.80582243  0.41014266  0.30867077  1
  P  P100  1  0.69335958  0.33516131  0.47660199  1
  P  P101  1  0.69341698  0.62248217  0.39265072  1
  P  P102  1  0.30555169  0.40310044  0.40485698  1
  P  P103  1  0.30763610  0.11627263  0.48852499  1
  P  P104  1  0.19211093  0.61636007  0.48853579  1
  P  P105  1  0.19444101  0.90308743  0.40485416  1
  P  P106  1  0.80656288  0.12243380  0.39264720  1
  P  P107  1  0.80660924  0.83527582  0.47661548  1
  P  P108  1  0.69671760  0.04776090  0.56030780  1
  P  P109  1  0.30007989  0.82844876  0.57269152  1
  P  P110  1  0.19969331  0.32845105  0.57265482  1
  P  P111  1  0.80305407  0.54781180  0.56032507  1
  O  O112  1  0.79499390  0.57580195  0.13559366  1
  O  O113  1  0.80902164  0.86205632  0.05296400  1
  O  O114  1  0.20125323  0.46486634  0.07535022  1
  O  O115  1  0.20357356  0.17789632  0.15869083  1
  O  O116  1  0.29657433  0.67792248  0.15870048  1
  O  O117  1  0.29889594  0.96487158  0.07533997  1
  O  O118  1  0.69108473  0.36206376  0.05296184  1
  O  O119  1  0.70542365  0.07583830  0.13557942  1
  O  O120  1  0.71190743  0.24106664  0.08620046  1
  O  O121  1  0.29584758  0.79683390  0.12393239  1
  O  O122  1  0.30557044  0.08373683  0.04065232  1
  O  O123  1  0.19479453  0.58371966  0.04067488  1
  O  O124  1  0.20433892  0.29680677  0.12392467  1
  O  O125  1  0.78809607  0.74108465  0.08621061  1
  O  O126  1  0.20228636  0.61312273  0.09271836  1
  O  O127  1  0.79422161  0.42764955  0.11782895  1
  O  O128  1  0.80812106  0.71509322  0.03387324  1
  O  O129  1  0.69207018  0.21510782  0.03386169  1
  O  O130  1  0.70625395  0.92767837  0.11781295  1
  O  O131  1  0.29772840  0.11311738  0.09270524  1
  O  O132  1  0.37778049  0.48713938  0.14125420  1
  O  O133  1  0.38321654  0.77497027  0.05579334  1
  O  O134  1  0.61666238  0.55422251  0.06892040  1
  O  O135  1  0.61993056  0.26689858  0.15293566  1
  O  O136  1  0.88022785  0.76691322  0.15293239  1
  O  O137  1  0.88356767  0.05424820  0.06887104  1
  O  O138  1  0.11689109  0.27495742  0.05579164  1
  O  O139  1  0.12271124  0.98717750  0.14124494  1
  O  O140  1  0.79638079  0.99956541  0.30298882  1
  O  O141  1  0.79670398  0.28726736  0.21910151  1
  O  O142  1  0.20433513  0.88887546  0.24257343  1
  O  O143  1  0.20385690  0.60101637  0.32659204  1
  O  O144  1  0.29605880  0.10099576  0.32658153  1
  O  O145  1  0.29569465  0.38887487  0.24256742  1
  O  O146  1  0.70337699  0.78727530  0.21910595  1
  O  O147  1  0.70349611  0.49956382  0.30298891  1
  O  O148  1  0.70268520  0.66834413  0.25382048  1
  O  O149  1  0.70613363  0.95640200  0.17000935  1
  O  O150  1  0.29696035  0.22000661  0.29194560  1
  O  O151  1  0.29538215  0.50810224  0.20796734  1
  O  O152  1  0.20468198  0.00810052  0.20796792  1
  O  O153  1  0.20303574  0.72000754  0.29194657  1
  O  O154  1  0.79436578  0.45636888  0.17002348  1
  O  O155  1  0.79734874  0.16834655  0.25381833  1
  O  O156  1  0.20306117  0.03715944  0.26013227  1
  O  O157  1  0.20172765  0.32613505  0.17613174  1
  O  O158  1  0.79815792  0.85118519  0.28550914  1
  O  O159  1  0.79952738  0.13890883  0.20165829  1
  O  O160  1  0.70060399  0.63891082  0.20165738  1
  O  O161  1  0.70182624  0.35118296  0.28550591  1
  O  O162  1  0.29839447  0.82618239  0.17613567  1
  O  O163  1  0.29688396  0.53716684  0.26013229  1
  O  O164  1  0.38045179  0.91019657  0.30876657  1
  O  O165  1  0.38102252  0.19785469  0.22488775  1
  O  O166  1  0.62075817  0.97813487  0.23682854  1
  O  O167  1  0.61980569  0.69038731  0.32081383  1
  O  O168  1  0.88016926  0.19038640  0.32081486  1
  O  O169  1  0.87924783  0.47812915  0.23682786  1
  O  O170  1  0.11906871  0.69787345  0.22489580  1
  O  O171  1  0.11945951  0.41021553  0.30876736  1
  O  O172  1  0.79653878  0.42449377  0.47095687  1
  O  O173  1  0.79597743  0.71190644  0.38704576  1
  O  O174  1  0.20324065  0.31369023  0.41057129  1
  O  O175  1  0.20404107  0.02692099  0.49412225  1
  O  O176  1  0.29559645  0.52698921  0.49412280  1
  O  O177  1  0.29671257  0.81367262  0.41056286  1
  O  O178  1  0.70388942  0.21185528  0.38706819  1
  O  O179  1  0.70351973  0.92459886  0.47098854  1
  O  O180  1  0.70424467  0.09272684  0.42166849  1
  O  O181  1  0.70300522  0.38057905  0.33768568  1
  O  O182  1  0.29546797  0.64595710  0.45954773  1
  O  O183  1  0.29699857  0.93245207  0.37580356  1
  O  O184  1  0.20296226  0.43244561  0.37580520  1
  O  O185  1  0.20445517  0.14578720  0.45952310  1
  O  O186  1  0.79690674  0.88058890  0.33768852  1
  O  O187  1  0.79580145  0.59289593  0.42168278  1
  O  O188  1  0.20098972  0.46208445  0.42797761  1
  O  O189  1  0.20235655  0.74932977  0.34413022  1
  O  O190  1  0.79718243  0.27611588  0.45348418  1
  O  O191  1  0.79763288  0.56357542  0.36949231  1
  O  O192  1  0.70236200  0.06357385  0.36947626  1
  O  O193  1  0.70267511  0.77634114  0.45347057  1
  O  O194  1  0.29763267  0.24931007  0.34412886  1
  O  O195  1  0.29900348  0.96204564  0.42797941  1
  O  O196  1  0.37988169  0.33557029  0.47675181  1
  O  O197  1  0.37983168  0.62253432  0.39275375  1
  O  O198  1  0.61918222  0.40305379  0.40475939  1
  O  O199  1  0.62117346  0.11563977  0.48832997  1
  O  O200  1  0.87853687  0.61575611  0.48831689  1
  O  O201  1  0.88080905  0.90305302  0.40475775  1
  O  O202  1  0.12014207  0.12252262  0.39275406  1
  O  O203  1  0.12005088  0.83564117  0.47676842  1
  O  O204  1  0.79946884  0.13697228  0.55417978  1
  O  O205  1  0.18958565  0.74010020  0.57653299  1
  O  O206  1  0.31024567  0.24009876  0.57647369  1
  O  O207  1  0.70037375  0.63703947  0.55420026  1
  O  O208  1  0.69521047  0.51804879  0.58887354  1
  O  O209  1  0.70397111  0.80548538  0.50564037  1
  O  O210  1  0.28771133  0.36131962  0.54329493  1
  O  O211  1  0.21204136  0.86126391  0.54332578  1
  O  O212  1  0.79583984  0.30547125  0.50564783  1
  O  O213  1  0.80448245  0.01803766  0.58886522  1
  O  O214  1  0.19251901  0.88701621  0.59563941  1
  O  O215  1  0.20475927  0.17512250  0.51173480  1
  O  O216  1  0.79571346  0.98869230  0.53683159  1
  O  O217  1  0.70415603  0.48878461  0.53683084  1
  O  O218  1  0.29482545  0.67518892  0.51176501  1
  O  O219  1  0.30728272  0.38700826  0.59560693  1
  O  O220  1  0.38263662  0.04834437  0.56072355  1
  O  O221  1  0.61654248  0.82651562  0.57369120  1
  O  O222  1  0.88326273  0.32647361  0.57366478  1
  O  O223  1  0.11712718  0.54840757  0.56074876  1
