# generated using pymatgen
data_Li3PO4
_symmetry_space_group_name_H-M   'P 1'
_cell_length_a   6.15119200
_cell_length_b   10.55485100
_cell_length_c   49.77846400
_cell_angle_alpha   90.00000000
_cell_angle_beta   90.00000000
_cell_angle_gamma   90.00000000
_symmetry_Int_Tables_number   1
_chemical_formula_structural   Li3PO4
_chemical_formula_sum   'Li60 P20 O80'
_cell_volume   3231.86254564
_cell_formula_units_Z   20
loop_
 _symmetry_equiv_pos_site_id
 _symmetry_equiv_pos_as_xyz
  1  'x, y, z'
loop_
 _atom_site_type_symbol
 _atom_site_label
 _atom_site_symmetry_multiplicity
 _atom_site_fract_x
 _atom_site_fract_y
 _atom_site_fract_z
 _atom_site_occupancy
  Li  Li0  1  0.49450549  0.83675047  0.07812127  1
  Li  Li1  1  0.51443591  0.33799594  0.07335163  1
  Li  Li2  1  0.98324151  0.33780410  0.07793693  1
  Li  Li3  1  0.95192263  0.71130035  0.03297798  1
  Li  Li4  1  0.98363127  0.12603715  0.01675361  1
  Li  Li5  1  0.00183690  0.84467802  0.08060114  1
  Li  Li6  1  0.70915669  0.92765033  0.02065346  1
  Li  Li7  1  0.25299102  0.08426163  0.06731131  1
  Li  Li8  1  0.25609448  0.59367198  0.07676114  1
  Li  Li9  1  0.50058417  0.83368954  0.18024143  1
  Li  Li10  1  0.49854504  0.15829738  0.11828316  1
  Li  Li11  1  0.51319520  0.66576927  0.12971725  1
  Li  Li12  1  0.50247994  0.33375747  0.16951879  1
  Li  Li13  1  0.00555185  0.33334080  0.16928700  1
  Li  Li14  1  0.00245652  0.66652446  0.13055754  1
  Li  Li15  1  0.00273571  0.15679749  0.11848404  1
  Li  Li16  1  0.00305665  0.83405612  0.18026382  1
  Li  Li17  1  0.74715608  0.92574993  0.11881995  1
  Li  Li18  1  0.25289844  0.07191070  0.17845513  1
  Li  Li19  1  0.25616323  0.57401073  0.16993727  1
  Li  Li20  1  0.75437832  0.42746804  0.12980389  1
  Li  Li21  1  0.50019181  0.83372188  0.28031085  1
  Li  Li22  1  0.50404787  0.16104998  0.21925574  1
  Li  Li23  1  0.50626450  0.66071698  0.23026049  1
  Li  Li24  1  0.50019458  0.33372721  0.26968014  1
  Li  Li25  1  0.00442671  0.33367116  0.26967030  1
  Li  Li26  1  0.00099967  0.66160159  0.23012772  1
  Li  Li27  1  0.00079180  0.16119558  0.21923260  1
  Li  Li28  1  0.00458957  0.83366928  0.28030149  1
  Li  Li29  1  0.75322057  0.92330675  0.22006415  1
  Li  Li30  1  0.25327377  0.07200294  0.27980804  1
  Li  Li31  1  0.25327086  0.57200604  0.27019155  1
  Li  Li32  1  0.75361403  0.42223717  0.22966969  1
  Li  Li33  1  0.50242855  0.83373237  0.38047950  1
  Li  Li34  1  0.50626316  0.16065854  0.31973680  1
  Li  Li35  1  0.50398611  0.66102475  0.33074421  1
  Li  Li36  1  0.50051983  0.33367182  0.36976067  1
  Li  Li37  1  0.00303191  0.33401865  0.36973547  1
  Li  Li38  1  0.00041377  0.66097367  0.33083037  1
  Li  Li39  1  0.00096207  0.16157152  0.31987073  1
  Li  Li40  1  0.00548161  0.83330827  0.38071176  1
  Li  Li41  1  0.75343243  0.92187702  0.32027431  1
  Li  Li42  1  0.25605279  0.07389046  0.38002141  1
  Li  Li43  1  0.25287441  0.57178657  0.37156192  1
  Li  Li44  1  0.75319526  0.42327545  0.32993255  1
  Li  Li45  1  0.51408215  0.83789091  0.47661415  1
  Li  Li46  1  0.51282246  0.16570445  0.42025481  1
  Li  Li47  1  0.49849355  0.65828853  0.43171460  1
  Li  Li48  1  0.49398578  0.33653383  0.47202436  1
  Li  Li49  1  0.00098204  0.34414112  0.46949525  1
  Li  Li50  1  0.00260998  0.65678250  0.43151482  1
  Li  Li51  1  0.00221032  0.16656582  0.41944560  1
  Li  Li52  1  0.98299442  0.83775512  0.47203969  1
  Li  Li53  1  0.75386810  0.92747089  0.42018835  1
  Li  Li54  1  0.25571298  0.09343313  0.47317514  1
  Li  Li55  1  0.25172819  0.58366105  0.48247810  1
  Li  Li56  1  0.74684913  0.42575661  0.43122328  1
  Li  Li57  1  0.98340077  0.62966520  0.53287634  1
  Li  Li58  1  0.95636406  0.21014931  0.51710406  1
  Li  Li59  1  0.70955170  0.42768264  0.52945557  1
  P  P60  1  0.23929253  0.91899825  0.02925134  1
  P  P61  1  0.74789526  0.09148371  0.06752685  1
  P  P62  1  0.75094809  0.58676631  0.08041488  1
  P  P63  1  0.25150467  0.91037419  0.13067477  1
  P  P64  1  0.75199588  0.08681782  0.16867810  1
  P  P65  1  0.75477620  0.58562861  0.18041639  1
  P  P66  1  0.25563367  0.41231056  0.11833186  1
  P  P67  1  0.25277134  0.90887464  0.23051969  1
  P  P68  1  0.75299752  0.08612428  0.26928134  1
  P  P69  1  0.75296474  0.58612736  0.28071242  1
  P  P70  1  0.25317616  0.40900913  0.21896589  1
  P  P71  1  0.25306400  0.90888101  0.33102014  1
  P  P72  1  0.75464670  0.08550237  0.36956855  1
  P  P73  1  0.75189876  0.58676258  0.38132764  1
  P  P74  1  0.25274581  0.40883423  0.31947770  1
  P  P75  1  0.25518418  0.91227381  0.43165587  1
  P  P76  1  0.75048485  0.08664253  0.46962005  1
  P  P77  1  0.74695644  0.59144370  0.48247884  1
  P  P78  1  0.25135416  0.41029767  0.41936307  1
  P  P79  1  0.23817784  0.41949219  0.52080687  1
  O  O80  1  0.43685557  0.85505021  0.01652513  1
  O  O81  1  0.54250975  0.16205391  0.07851558  1
  O  O82  1  0.54286831  0.65598598  0.07136044  1
  O  O83  1  0.95753144  0.65605367  0.06867573  1
  O  O84  1  0.95669854  0.16075578  0.07827280  1
  O  O85  1  0.01626598  0.86384165  0.01865980  1
  O  O86  1  0.74629170  0.95276102  0.07842963  1
  O  O87  1  0.23989344  0.06572508  0.02591607  1
  O  O88  1  0.75272905  0.44670707  0.07103380  1
  O  O89  1  0.24303700  0.89783325  0.06086547  1
  O  O90  1  0.74660515  0.09304419  0.03658053  1
  O  O91  1  0.25537887  0.41449364  0.08678473  1
  O  O92  1  0.45706695  0.84069603  0.11970930  1
  O  O93  1  0.54558258  0.15713022  0.17921138  1
  O  O94  1  0.54884272  0.65613828  0.16993162  1
  O  O95  1  0.46151269  0.34142017  0.12843381  1
  O  O96  1  0.04600373  0.34151744  0.12764999  1
  O  O97  1  0.96251288  0.65550472  0.17029192  1
  O  O98  1  0.95958445  0.15693225  0.17895104  1
  O  O99  1  0.04293556  0.84182793  0.11999688  1
  O  O100  1  0.75205561  0.94825622  0.17931988  1
  O  O101  1  0.25132266  0.05090650  0.12213065  1
  O  O102  1  0.25593519  0.55155067  0.12853851  1
  O  O103  1  0.75472066  0.44685604  0.16980306  1
  O  O104  1  0.25203016  0.90260160  0.16209512  1
  O  O105  1  0.75064254  0.08831646  0.13735822  1
  O  O106  1  0.76475904  0.59037593  0.11184599  1
  O  O107  1  0.25376870  0.40866487  0.18754645  1
  O  O108  1  0.45998989  0.83823041  0.22035940  1
  O  O109  1  0.54596679  0.15622085  0.27963455  1
  O  O110  1  0.54594685  0.65624906  0.27036409  1
  O  O111  1  0.45995814  0.33861742  0.22928136  1
  O  O112  1  0.04606914  0.33875708  0.22922785  1
  O  O113  1  0.95999092  0.65616568  0.27034766  1
  O  O114  1  0.96002042  0.15617642  0.27964400  1
  O  O115  1  0.04537262  0.83852358  0.22031394  1
  O  O116  1  0.75272111  0.94722079  0.27973283  1
  O  O117  1  0.25266678  0.04735725  0.21990562  1
  O  O118  1  0.25316958  0.54775854  0.22945539  1
  O  O119  1  0.75263855  0.44724523  0.27024970  1
  O  O120  1  0.25258852  0.90845366  0.26189852  1
  O  O121  1  0.75293814  0.08720415  0.23792484  1
  O  O122  1  0.75310725  0.58580303  0.21173909  1
  O  O123  1  0.25252318  0.40845235  0.28809954  1
  O  O124  1  0.45987119  0.83853376  0.32069702  1
  O  O125  1  0.54861518  0.15598430  0.38004478  1
  O  O126  1  0.54548374  0.65708372  0.37079799  1
  O  O127  1  0.45995106  0.33815651  0.32963528  1
  O  O128  1  0.04534031  0.33848170  0.32968426  1
  O  O129  1  0.95949820  0.65686763  0.37105597  1
  O  O130  1  0.96230119  0.15545695  0.37969598  1
  O  O131  1  0.04598242  0.83858326  0.32075914  1
  O  O132  1  0.75462360  0.94676550  0.38020406  1
  O  O133  1  0.25306366  0.04765214  0.32054032  1
  O  O134  1  0.25264729  0.54728736  0.33011091  1
  O  O135  1  0.75198895  0.44822319  0.37067180  1
  O  O136  1  0.25366905  0.90849050  0.36244093  1
  O  O137  1  0.75306039  0.08557536  0.33824694  1
  O  O138  1  0.75285414  0.58715773  0.31207056  1
  O  O139  1  0.25191266  0.40254103  0.38793887  1
  O  O140  1  0.46115082  0.84144682  0.42156337  1
  O  O141  1  0.54231812  0.15575470  0.47867341  1
  O  O142  1  0.54164830  0.66194181  0.47144926  1
  O  O143  1  0.45691233  0.34062476  0.43031835  1
  O  O144  1  0.04280488  0.34176844  0.43004780  1
  O  O145  1  0.95573518  0.66078915  0.47171166  1
  O  O146  1  0.95721656  0.15576163  0.48136661  1
  O  O147  1  0.04562006  0.84145249  0.42233406  1
  O  O148  1  0.75230908  0.94654193  0.47898408  1
  O  O149  1  0.25547153  0.05155281  0.42147032  1
  O  O150  1  0.25118806  0.55084301  0.42790520  1
  O  O151  1  0.74578383  0.45270097  0.47159898  1
  O  O152  1  0.25491364  0.91440067  0.46320604  1
  O  O153  1  0.76443629  0.09039983  0.43818878  1
  O  O154  1  0.75052688  0.58823662  0.41264577  1
  O  O155  1  0.24253395  0.39795473  0.48918306  1
  O  O156  1  0.43611933  0.35618071  0.53358046  1
  O  O157  1  0.01573830  0.36345697  0.53134693  1
  O  O158  1  0.23774738  0.56624247  0.52403322  1
  O  O159  1  0.74560453  0.59332889  0.51341935  1
