# generated using pymatgen
data_Li3PO4
_symmetry_space_group_name_H-M   'P 1'
_cell_length_a   4.97784600
_cell_length_b   10.55485100
_cell_length_c   49.20953300
_cell_angle_alpha   90.00000000
_cell_angle_beta   90.00000000
_cell_angle_gamma   90.00000000
_symmetry_Int_Tables_number   1
_chemical_formula_structural   Li3PO4
_chemical_formula_sum   'Li48 P16 O64'
_cell_volume   2585.48967113
_cell_formula_units_Z   16
loop_
 _symmetry_equiv_pos_site_id
 _symmetry_equiv_pos_as_xyz
  1  'x, y, z'
loop_
 _atom_site_type_symbol
 _atom_site_label
 _atom_site_symmetry_multiplicity
 _atom_site_fract_x
 _atom_site_fract_y
 _atom_site_fract_z
 _atom_site_occupancy
  Li  Li0  1  0.72857014  0.83058669  0.05966240  1
  Li  Li1  1  0.77170216  0.33059205  0.05967584  1
  Li  Li2  1  0.29433406  0.66540754  0.11967765  1
  Li  Li3  1  0.71122057  0.33255833  0.11988803  1
  Li  Li4  1  0.78871329  0.83254353  0.11988974  1
  Li  Li5  1  0.20573161  0.16541094  0.11969600  1
  Li  Li6  1  0.17652190  0.94412310  0.09496750  1
  Li  Li7  1  0.32266806  0.44385457  0.09493950  1
  Li  Li8  1  0.19644471  0.16295817  0.18388975  1
  Li  Li9  1  0.80148673  0.83603598  0.18316664  1
  Li  Li10  1  0.69847334  0.33604330  0.18316782  1
  Li  Li11  1  0.30353802  0.66299681  0.18387335  1
  Li  Li12  1  0.30235430  0.66399973  0.24644424  1
  Li  Li13  1  0.69839299  0.33721315  0.24678393  1
  Li  Li14  1  0.80164196  0.83721466  0.24678413  1
  Li  Li15  1  0.19763935  0.16400448  0.24644372  1
  Li  Li16  1  0.79633799  0.07455363  0.15108479  1
  Li  Li17  1  0.20374250  0.92531593  0.21529608  1
  Li  Li18  1  0.29628122  0.42530109  0.21529042  1
  Li  Li19  1  0.70364533  0.57455077  0.15108550  1
  Li  Li20  1  0.19865748  0.16273108  0.31026198  1
  Li  Li21  1  0.80147359  0.83680593  0.30978421  1
  Li  Li22  1  0.69858491  0.33679590  0.30978364  1
  Li  Li23  1  0.30164891  0.66276256  0.31027203  1
  Li  Li24  1  0.29719430  0.66291230  0.37311906  1
  Li  Li25  1  0.69996882  0.33572431  0.37351168  1
  Li  Li26  1  0.80006156  0.83571894  0.37351161  1
  Li  Li27  1  0.20284090  0.16291230  0.37311684  1
  Li  Li28  1  0.79698393  0.07505065  0.27820453  1
  Li  Li29  1  0.20399821  0.92434246  0.34177142  1
  Li  Li30  1  0.29602376  0.42434327  0.34177121  1
  Li  Li31  1  0.70304001  0.57504814  0.27820395  1
  Li  Li32  1  0.20004314  0.16391028  0.43669040  1
  Li  Li33  1  0.80366620  0.83691103  0.43595684  1
  Li  Li34  1  0.69636774  0.33689939  0.43595528  1
  Li  Li35  1  0.29999194  0.66391395  0.43669039  1
  Li  Li36  1  0.28775388  0.66760507  0.49981814  1
  Li  Li37  1  0.69966862  0.33416317  0.50014098  1
  Li  Li38  1  0.80035056  0.83415943  0.50014345  1
  Li  Li39  1  0.21228265  0.16760770  0.49981649  1
  Li  Li40  1  0.79884267  0.07493225  0.40459778  1
  Li  Li41  1  0.20464945  0.92542644  0.46857971  1
  Li  Li42  1  0.29538560  0.42542730  0.46857972  1
  Li  Li43  1  0.70119211  0.57492695  0.40459812  1
  Li  Li44  1  0.27086578  0.16904013  0.56028721  1
  Li  Li45  1  0.22911807  0.66904713  0.56028716  1
  Li  Li46  1  0.82657041  0.05707262  0.52494566  1
  Li  Li47  1  0.67343230  0.55706593  0.52494584  1
  P  P48  1  0.69372685  0.09008407  0.08761209  1
  P  P49  1  0.80593162  0.59011326  0.08761378  1
  P  P50  1  0.69312124  0.08870324  0.21492086  1
  P  P51  1  0.30386076  0.91131866  0.15247361  1
  P  P52  1  0.19606764  0.41130854  0.15247498  1
  P  P53  1  0.80691835  0.58869138  0.21492746  1
  P  P54  1  0.69473093  0.08824147  0.34158142  1
  P  P55  1  0.30601272  0.91160419  0.27836128  1
  P  P56  1  0.19405396  0.41160755  0.27836266  1
  P  P57  1  0.80540351  0.58825498  0.34157766  1
  P  P58  1  0.69746678  0.08867593  0.46738220  1
  P  P59  1  0.30763569  0.91141995  0.40493989  1
  P  P60  1  0.19243246  0.41140812  0.40494278  1
  P  P61  1  0.80267489  0.58865804  0.46738321  1
  P  P62  1  0.31014507  0.91004663  0.53211469  1
  P  P63  1  0.18984541  0.41003886  0.53211551  1
  O  O64  1  0.77516300  0.16343617  0.06209606  1
  O  O65  1  0.72438892  0.66358452  0.06211862  1
  O  O66  1  0.68746034  0.65429156  0.11393198  1
  O  O67  1  0.81244670  0.15431499  0.11391396  1
  O  O68  1  0.80517167  0.94889038  0.08616044  1
  O  O69  1  0.69430953  0.44893678  0.08613526  1
  O  O70  1  0.38560732  0.08234227  0.09073307  1
  O  O71  1  0.11405354  0.58232095  0.09072123  1
  O  O72  1  0.79449518  0.15794468  0.18883357  1
  O  O73  1  0.20583074  0.84197649  0.17859284  1
  O  O74  1  0.29418916  0.34194762  0.17858849  1
  O  O75  1  0.70549081  0.65792838  0.18884074  1
  O  O76  1  0.70221669  0.65879268  0.24078804  1
  O  O77  1  0.30917545  0.34098640  0.12691298  1
  O  O78  1  0.19067047  0.84101684  0.12691373  1
  O  O79  1  0.79783310  0.15880861  0.24078099  1
  O  O80  1  0.20340847  0.05064896  0.15227619  1
  O  O81  1  0.79592676  0.94944053  0.21494917  1
  O  O82  1  0.70417900  0.44941637  0.21495756  1
  O  O83  1  0.29644812  0.55063768  0.15227504  1
  O  O84  1  0.37938858  0.09001124  0.21515513  1
  O  O85  1  0.61735730  0.90840386  0.15143548  1
  O  O86  1  0.88257546  0.40839084  0.15143167  1
  O  O87  1  0.12066185  0.59002894  0.21515856  1
  O  O88  1  0.79713416  0.15804361  0.31560887  1
  O  O89  1  0.20362569  0.84167890  0.30432558  1
  O  O90  1  0.29643065  0.34167942  0.30432736  1
  O  O91  1  0.70300578  0.65807589  0.31560647  1
  O  O92  1  0.70180363  0.65810766  0.36750373  1
  O  O93  1  0.29772392  0.34182916  0.25243099  1
  O  O94  1  0.20230000  0.84183734  0.25243149  1
  O  O95  1  0.79826146  0.15812584  0.36750648  1
  O  O96  1  0.20288659  0.05082464  0.27834135  1
  O  O97  1  0.79758152  0.94897980  0.34163502  1
  O  O98  1  0.70252395  0.44899476  0.34162943  1
  O  O99  1  0.29721480  0.55081692  0.27834564  1
  O  O100  1  0.38086491  0.08937037  0.34164294  1
  O  O101  1  0.61985460  0.91044731  0.27827995  1
  O  O102  1  0.88021568  0.41045450  0.27828163  1
  O  O103  1  0.11926495  0.58939207  0.34164092  1
  O  O104  1  0.79559775  0.15821703  0.44128764  1
  O  O105  1  0.20567163  0.84209826  0.43098511  1
  O  O106  1  0.29437553  0.34207120  0.43098673  1
  O  O107  1  0.70451550  0.65821760  0.44129235  1
  O  O108  1  0.69007318  0.65907645  0.49295103  1
  O  O109  1  0.29711183  0.34135258  0.37908431  1
  O  O110  1  0.20290440  0.84135934  0.37908404  1
  O  O111  1  0.81004403  0.15914516  0.49294445  1
  O  O112  1  0.20517030  0.05071269  0.40491791  1
  O  O113  1  0.79827733  0.94944221  0.46755390  1
  O  O114  1  0.70187041  0.44941877  0.46754374  1
  O  O115  1  0.29492414  0.55069816  0.40492165  1
  O  O116  1  0.38394166  0.09155681  0.46836307  1
  O  O117  1  0.62135010  0.91018785  0.40475013  1
  O  O118  1  0.87872195  0.41018940  0.40475352  1
  O  O119  1  0.11619367  0.59157208  0.46836514  1
  O  O120  1  0.22918679  0.83630761  0.55761241  1
  O  O121  1  0.27083403  0.33629903  0.55761193  1
  O  O122  1  0.30902828  0.34590553  0.50581587  1
  O  O123  1  0.19099966  0.84589397  0.50581550  1
  O  O124  1  0.19782183  0.05108265  0.53363956  1
  O  O125  1  0.30212927  0.55107703  0.53364647  1
  O  O126  1  0.61808151  0.91814668  0.52897205  1
  O  O127  1  0.88190918  0.41812002  0.52897037  1
