# generated using pymatgen
data_Li3PO4
_symmetry_space_group_name_H-M   'P 1'
_cell_length_a   4.97784600
_cell_length_b   12.21646600
_cell_length_c   42.51632900
_cell_angle_alpha   90.00000000
_cell_angle_beta   90.00000000
_cell_angle_gamma   90.00000000
_symmetry_Int_Tables_number   1
_chemical_formula_structural   Li3PO4
_chemical_formula_sum   'Li54 P18 O72'
_cell_volume   2585.48966655
_cell_formula_units_Z   18
loop_
 _symmetry_equiv_pos_site_id
 _symmetry_equiv_pos_as_xyz
  1  'x, y, z'
loop_
 _atom_site_type_symbol
 _atom_site_label
 _atom_site_symmetry_multiplicity
 _atom_site_fract_x
 _atom_site_fract_y
 _atom_site_fract_z
 _atom_site_occupancy
  Li  Li0  1  0.19500864  0.04842852  0.06173740  1
  Li  Li1  1  0.84972032  0.76666886  0.01756893  1
  Li  Li2  1  0.70040423  0.17374906  0.07744141  1
  Li  Li3  1  0.29859526  0.41636168  0.12292970  1
  Li  Li4  1  0.28591594  0.55049269  0.05971924  1
  Li  Li5  1  0.18380787  0.45704006  0.00213889  1
  Li  Li6  1  0.79925762  0.66384114  0.08126837  1
  Li  Li7  1  0.21230657  0.91376236  0.12090123  1
  Li  Li8  1  0.67645521  0.32996019  0.01908364  1
  Li  Li9  1  0.21453755  0.78734736  0.06483182  1
  Li  Li10  1  0.30276130  0.17783944  0.12160443  1
  Li  Li11  1  0.69375446  0.41447624  0.07955191  1
  Li  Li12  1  0.19946273  0.78700985  0.18610832  1
  Li  Li13  1  0.80369864  0.54298240  0.14465643  1
  Li  Li14  1  0.69983147  0.91643964  0.20566734  1
  Li  Li15  1  0.30141146  0.15905407  0.24695188  1
  Li  Li16  1  0.30201652  0.28710746  0.18391399  1
  Li  Li17  1  0.70080563  0.04208438  0.14188022  1
  Li  Li18  1  0.79956872  0.41286915  0.20688321  1
  Li  Li19  1  0.19877096  0.66067548  0.24843259  1
  Li  Li20  1  0.80398139  0.78480998  0.14258887  1
  Li  Li21  1  0.20045599  0.54578671  0.18815242  1
  Li  Li22  1  0.29750420  0.91799391  0.24869352  1
  Li  Li23  1  0.70052749  0.15607987  0.20376104  1
  Li  Li24  1  0.19779993  0.53449245  0.31102653  1
  Li  Li25  1  0.80071727  0.28804549  0.26921387  1
  Li  Li26  1  0.70033886  0.66437809  0.33307216  1
  Li  Li27  1  0.29950514  0.90784331  0.37428076  1
  Li  Li28  1  0.29860865  0.03445459  0.30967861  1
  Li  Li29  1  0.69902216  0.78883870  0.27010091  1
  Li  Li30  1  0.79998408  0.16273063  0.33158144  1
  Li  Li31  1  0.20030225  0.41114418  0.37333196  1
  Li  Li32  1  0.79803204  0.52994524  0.26810061  1
  Li  Li33  1  0.20239355  0.29365334  0.31213264  1
  Li  Li34  1  0.29867669  0.66888794  0.37606904  1
  Li  Li35  1  0.70135737  0.90506831  0.33124015  1
  Li  Li36  1  0.19690478  0.28144313  0.43538177  1
  Li  Li37  1  0.79931948  0.03690637  0.39396850  1
  Li  Li38  1  0.70450850  0.40716113  0.45706682  1
  Li  Li39  1  0.30043454  0.64948351  0.50250575  1
  Li  Li40  1  0.29480327  0.78171947  0.43825388  1
  Li  Li41  1  0.70077166  0.53601016  0.39581264  1
  Li  Li42  1  0.78899355  0.91025756  0.45920271  1
  Li  Li43  1  0.19849097  0.16006919  0.49884799  1
  Li  Li44  1  0.79795055  0.27786767  0.39185215  1
  Li  Li45  1  0.19593825  0.03985148  0.43743862  1
  Li  Li46  1  0.31052378  0.40890747  0.50026566  1
  Li  Li47  1  0.69668306  0.64559888  0.45809798  1
  Li  Li48  1  0.15846805  0.05571460  0.56236138  1
  Li  Li49  1  0.80412152  0.77507069  0.51813834  1
  Li  Li50  1  0.81557007  0.36683433  0.57780273  1
  Li  Li51  1  0.71179430  0.27201053  0.52050094  1
  Li  Li52  1  0.78526986  0.03586601  0.51518525  1
  Li  Li53  1  0.32223421  0.49301182  0.56088716  1
  P  P54  1  0.71350509  0.92185369  0.07841118  1
  P  P55  1  0.31039928  0.66294925  0.12422735  1
  P  P56  1  0.18715206  0.30082626  0.05753818  1
  P  P57  1  0.78177152  0.56759409  0.01985426  1
  P  P58  1  0.69408836  0.66758880  0.20771783  1
  P  P59  1  0.30623681  0.40713113  0.24768163  1
  P  P60  1  0.19486100  0.03538501  0.18319885  1
  P  P61  1  0.80639347  0.29468135  0.14323327  1
  P  P62  1  0.69324151  0.41613326  0.33240856  1
  P  P63  1  0.30547944  0.15627481  0.37233192  1
  P  P64  1  0.19343736  0.78312044  0.31097480  1
  P  P65  1  0.80594450  0.04041248  0.26890318  1
  P  P66  1  0.68956586  0.16078371  0.45585963  1
  P  P67  1  0.28671058  0.90180101  0.50150969  1
  P  P68  1  0.19481660  0.52941141  0.43661184  1
  P  P69  1  0.80460480  0.78872773  0.39674686  1
  P  P70  1  0.21814051  0.25616985  0.56017631  1
  P  P71  1  0.81289253  0.52253336  0.52235464  1
  O  O72  1  0.81761318  0.02896685  0.06357390  1
  O  O73  1  0.30015788  0.19230635  0.07252087  1
  O  O74  1  0.62783273  0.66119366  0.00414597  1
  O  O75  1  0.66906998  0.54633225  0.05416638  1
  O  O76  1  0.29652436  0.31912677  0.02382408  1
  O  O77  1  0.19489731  0.66228126  0.09026512  1
  O  O78  1  0.80342828  0.91560105  0.11362334  1
  O  O79  1  0.82840058  0.82078797  0.05996678  1
  O  O80  1  0.78375033  0.45939242  0.00061150  1
  O  O81  1  0.27303519  0.39932363  0.07846702  1
  O  O82  1  0.39720540  0.91942707  0.07719256  1
  O  O83  1  0.62350207  0.66216904  0.12255105  1
  O  O84  1  0.87359574  0.29334462  0.05676214  1
  O  O85  1  0.08306361  0.60278398  0.02435545  1
  O  O86  1  0.79802111  0.77156247  0.19021478  1
  O  O87  1  0.20983660  0.55928133  0.14189875  1
  O  O88  1  0.29861104  0.93158156  0.20077337  1
  O  O89  1  0.70378135  0.40085377  0.12684160  1
  O  O90  1  0.70251085  0.29262085  0.17790783  1
  O  O91  1  0.30022729  0.03586995  0.14850127  1
  O  O92  1  0.20311695  0.40687293  0.21300621  1
  O  O93  1  0.79909575  0.66802873  0.24230414  1
  O  O94  1  0.21348739  0.76910715  0.14097410  1
  O  O95  1  0.79487477  0.56308723  0.19051303  1
  O  O96  1  0.70368544  0.19233895  0.12494446  1
  O  O97  1  0.29577636  0.13908445  0.20079316  1
  O  O98  1  0.38062937  0.66929136  0.20820657  1
  O  O99  1  0.61989298  0.40687688  0.24748831  1
  O  O100  1  0.88107490  0.03362202  0.18266939  1
  O  O101  1  0.11991447  0.29482222  0.14368902  1
  O  O102  1  0.79558720  0.52107567  0.31529394  1
  O  O103  1  0.20389383  0.30218310  0.26481594  1
  O  O104  1  0.29565245  0.67871889  0.32843395  1
  O  O105  1  0.70369088  0.14489630  0.25148983  1
  O  O106  1  0.70263906  0.04119788  0.30356989  1
  O  O107  1  0.29726274  0.78230115  0.27633446  1
  O  O108  1  0.20090363  0.15572756  0.33772499  1
  O  O109  1  0.79723820  0.41646357  0.36704537  1
  O  O110  1  0.20254075  0.51089456  0.26508968  1
  O  O111  1  0.79652201  0.31236651  0.31500223  1
  O  O112  1  0.70209999  0.93643576  0.25162309  1
  O  O113  1  0.29657288  0.88722179  0.32826454  1
  O  O114  1  0.37975520  0.41651383  0.33270344  1
  O  O115  1  0.61899597  0.15441324  0.37185034  1
  O  O116  1  0.87976328  0.78273735  0.31075143  1
  O  O117  1  0.11960182  0.04067094  0.26905754  1
  O  O118  1  0.79129069  0.26428188  0.43818723  1
  O  O119  1  0.20087862  0.05247120  0.38984982  1
  O  O120  1  0.29829175  0.42326825  0.45293728  1
  O  O121  1  0.70033491  0.89238810  0.37913439  1
  O  O122  1  0.69938824  0.78818386  0.43144330  1
  O  O123  1  0.29836135  0.53190051  0.40193293  1
  O  O124  1  0.19663387  0.90875531  0.46632897  1
  O  O125  1  0.80478053  0.16119348  0.48983448  1
  O  O126  1  0.20535036  0.26086566  0.38952946  1
  O  O127  1  0.78603674  0.05464856  0.43909894  1
  O  O128  1  0.70523943  0.68485159  0.37911196  1
  O  O129  1  0.29695466  0.63166497  0.45496927  1
  O  O130  1  0.37651680  0.16199050  0.45751942  1
  O  O131  1  0.60291385  0.90406473  0.50276233  1
  O  O132  1  0.88133069  0.52891596  0.43618210  1
  O  O133  1  0.11843213  0.79091975  0.39728718  1
  O  O134  1  0.18222426  0.79455629  0.51619805  1
  O  O135  1  0.37355781  0.16284445  0.57583077  1
  O  O136  1  0.70010220  0.63110219  0.50736544  1
  O  O137  1  0.70301139  0.50439689  0.55605806  1
  O  O138  1  0.33041822  0.27747647  0.52583874  1
  O  O139  1  0.17234748  0.00269813  0.52005795  1
  O  O140  1  0.72690234  0.42396782  0.50145018  1
  O  O141  1  0.21650271  0.36421999  0.57946878  1
  O  O142  1  0.91708337  0.22105495  0.55572200  1
  O  O143  1  0.12646258  0.52992625  0.52312444  1
