# generated using pymatgen
data_Li3PO4
_symmetry_space_group_name_H-M   'P 1'
_cell_length_a   10.55485100
_cell_length_b   7.91303400
_cell_length_c   42.56477900
_cell_angle_alpha   90.00000000
_cell_angle_beta   90.00000000
_cell_angle_gamma   90.00000000
_symmetry_Int_Tables_number   1
_chemical_formula_structural   Li3PO4
_chemical_formula_sum   'Li60 P20 O80'
_cell_volume   3555.04843023
_cell_formula_units_Z   20
loop_
 _symmetry_equiv_pos_site_id
 _symmetry_equiv_pos_as_xyz
  1  'x, y, z'
loop_
 _atom_site_type_symbol
 _atom_site_label
 _atom_site_symmetry_multiplicity
 _atom_site_fract_x
 _atom_site_fract_y
 _atom_site_fract_z
 _atom_site_occupancy
  Li  Li0  1  0.83512342  0.13975706  0.08545495  1
  Li  Li1  1  0.33256512  0.17111854  0.07547740  1
  Li  Li2  1  0.66485292  0.63978955  0.08545192  1
  Li  Li3  1  0.16739803  0.67111272  0.07547590  1
  Li  Li4  1  0.91977245  0.50332581  0.06537033  1
  Li  Li5  1  0.57998304  0.00292716  0.06535511  1
  Li  Li6  1  0.15986134  0.98556181  0.11524921  1
  Li  Li7  1  0.83510201  0.74453727  0.17342395  1
  Li  Li8  1  0.33605602  0.78863110  0.16185112  1
  Li  Li9  1  0.66624718  0.94326119  0.12875215  1
  Li  Li10  1  0.66495491  0.24458030  0.17341491  1
  Li  Li11  1  0.34011175  0.48552728  0.11525284  1
  Li  Li12  1  0.83377295  0.44326653  0.12875644  1
  Li  Li13  1  0.16392692  0.28874230  0.16184943  1
  Li  Li14  1  0.07352685  0.60197987  0.14921650  1
  Li  Li15  1  0.92617792  0.13100523  0.14186695  1
  Li  Li16  1  0.42672226  0.10207862  0.14912772  1
  Li  Li17  1  0.57380636  0.63094245  0.14186580  1
  Li  Li18  1  0.16376641  0.59128729  0.20890198  1
  Li  Li19  1  0.83721102  0.34840882  0.26383519  1
  Li  Li20  1  0.33599426  0.39010101  0.25416992  1
  Li  Li21  1  0.66263234  0.54887127  0.21887738  1
  Li  Li22  1  0.66279864  0.84839566  0.26382773  1
  Li  Li23  1  0.33602513  0.09077378  0.20878056  1
  Li  Li24  1  0.83736327  0.04888118  0.21886845  1
  Li  Li25  1  0.16400877  0.89016419  0.25417708  1
  Li  Li26  1  0.07521759  0.19998013  0.24068572  1
  Li  Li27  1  0.92552858  0.73800141  0.23218652  1
  Li  Li28  1  0.42480515  0.69995213  0.24068374  1
  Li  Li29  1  0.57437868  0.23792645  0.23215089  1
  Li  Li30  1  0.16298240  0.19392783  0.30035203  1
  Li  Li31  1  0.83569216  0.95117642  0.35563834  1
  Li  Li32  1  0.33725619  0.99344549  0.34555936  1
  Li  Li33  1  0.66352904  0.15236703  0.31006400  1
  Li  Li34  1  0.66430430  0.45117589  0.35563773  1
  Li  Li35  1  0.33703086  0.69391331  0.30035181  1
  Li  Li36  1  0.83650527  0.65242605  0.31009048  1
  Li  Li37  1  0.16273845  0.49345316  0.34556465  1
  Li  Li38  1  0.07439206  0.80378656  0.33221522  1
  Li  Li39  1  0.92436995  0.34199891  0.32344896  1
  Li  Li40  1  0.42561807  0.30378097  0.33220915  1
  Li  Li41  1  0.57559884  0.84200610  0.32343359  1
  Li  Li42  1  0.16559904  0.79789047  0.39095125  1
  Li  Li43  1  0.84046699  0.55996997  0.44918875  1
  Li  Li44  1  0.33344308  0.60062729  0.43540132  1
  Li  Li45  1  0.66494491  0.75429131  0.40236291  1
  Li  Li46  1  0.65947062  0.05988599  0.44917697  1
  Li  Li47  1  0.33440764  0.29789487  0.39092991  1
  Li  Li48  1  0.83505613  0.25429524  0.40236621  1
  Li  Li49  1  0.16669746  0.10061592  0.43540173  1
  Li  Li50  1  0.07339064  0.41076708  0.42239946  1
  Li  Li51  1  0.92684955  0.94077270  0.41560220  1
  Li  Li52  1  0.42660041  0.91074401  0.42239607  1
  Li  Li53  1  0.57319136  0.44074006  0.41559633  1
  Li  Li54  1  0.16285732  0.40538731  0.47944936  1
  Li  Li55  1  0.66718801  0.37482838  0.48918764  1
  Li  Li56  1  0.33718523  0.90541994  0.47945517  1
  Li  Li57  1  0.83286352  0.87484502  0.48918476  1
  Li  Li58  1  0.08190658  0.04183358  0.49840114  1
  Li  Li59  1  0.41808266  0.54182150  0.49839652  1
  P  P60  1  0.09156574  0.34163433  0.09331854  1
  P  P61  1  0.91052525  0.78587309  0.10527170  1
  P  P62  1  0.40831711  0.84154285  0.09332928  1
  P  P63  1  0.58949249  0.28580859  0.10524631  1
  P  P64  1  0.08908548  0.94078894  0.18539545  1
  P  P65  1  0.91234254  0.39509472  0.19611592  1
  P  P66  1  0.41083716  0.44075656  0.18540286  1
  P  P67  1  0.58770994  0.89500309  0.19607666  1
  P  P68  1  0.08872397  0.54361857  0.27701662  1
  P  P69  1  0.91121247  0.99846189  0.28737043  1
  P  P70  1  0.41129845  0.04354905  0.27698100  1
  P  P71  1  0.58881087  0.49841943  0.28736606  1
  P  P72  1  0.08729404  0.14743390  0.36822549  1
  P  P73  1  0.91110667  0.60176373  0.37901180  1
  P  P74  1  0.41270975  0.64739202  0.36822065  1
  P  P75  1  0.58889475  0.10172776  0.37900157  1
  P  P76  1  0.09016122  0.75869456  0.45908805  1
  P  P77  1  0.90853483  0.20344859  0.47114216  1
  P  P78  1  0.40994652  0.25871278  0.45906361  1
  P  P79  1  0.59146155  0.70341943  0.47114039  1
  O  O80  1  0.16002629  0.17495018  0.08661915  1
  O  O81  1  0.66426389  0.19992378  0.07775851  1
  O  O82  1  0.33991293  0.67482492  0.08662993  1
  O  O83  1  0.83561205  0.70015357  0.07778594  1
  O  O84  1  0.09232147  0.46327640  0.06473364  1
  O  O85  1  0.40741589  0.96319126  0.06474480  1
  O  O86  1  0.15915061  0.77484287  0.17609051  1
  O  O87  1  0.84376102  0.95662135  0.11400462  1
  O  O88  1  0.34622587  0.92935237  0.12244149  1
  O  O89  1  0.65720790  0.80956741  0.16774690  1
  O  O90  1  0.65630017  0.45657181  0.11395865  1
  O  O91  1  0.34084543  0.27478370  0.17607628  1
  O  O92  1  0.84286305  0.30970261  0.16777180  1
  O  O93  1  0.15372999  0.42942005  0.12243030  1
  O  O94  1  0.04997542  0.81518174  0.09646366  1
  O  O95  1  0.94529507  0.30893169  0.10035166  1
  O  O96  1  0.45001111  0.31513900  0.09647038  1
  O  O97  1  0.55463761  0.80893460  0.10033741  1
  O  O98  1  0.08977241  0.06412405  0.15675974  1
  O  O99  1  0.90297233  0.66598603  0.13450774  1
  O  O100  1  0.41019471  0.56405187  0.15675980  1
  O  O101  1  0.59715261  0.16605208  0.13449739  1
  O  O102  1  0.15876329  0.37758995  0.26757774  1
  O  O103  1  0.84072289  0.55991903  0.20558196  1
  O  O104  1  0.34124570  0.52474214  0.21373417  1
  O  O105  1  0.65883826  0.41404740  0.25911885  1
  O  O106  1  0.65928985  0.05988316  0.20554147  1
  O  O107  1  0.34127263  0.87744723  0.26757216  1
  O  O108  1  0.84117665  0.91411460  0.25912278  1
  O  O109  1  0.15863620  0.02472222  0.21373740  1
  O  O110  1  0.05071523  0.43704357  0.18661382  1
  O  O111  1  0.94988707  0.89973091  0.19496176  1
  O  O112  1  0.44935844  0.93688637  0.18654981  1
  O  O113  1  0.55004267  0.39976485  0.19497605  1
  O  O114  1  0.08968127  0.66745091  0.24845193  1
  O  O115  1  0.91114405  0.27080362  0.22456658  1
  O  O116  1  0.41026277  0.16721947  0.24839546  1
  O  O117  1  0.58888132  0.77082540  0.22454554  1
  O  O118  1  0.15898901  0.98255893  0.35881222  1
  O  O119  1  0.84106773  0.16454824  0.29673117  1
  O  O120  1  0.34131074  0.12768548  0.30525261  1
  O  O121  1  0.65837090  0.01801024  0.35061931  1
  O  O122  1  0.65894149  0.66453353  0.29672159  1
  O  O123  1  0.34099232  0.48254224  0.35881102  1
  O  O124  1  0.84160922  0.51807111  0.35063003  1
  O  O125  1  0.15872743  0.62769137  0.30528606  1
  O  O126  1  0.05010947  0.03945690  0.27780713  1
  O  O127  1  0.94977222  0.50265175  0.28652354  1
  O  O128  1  0.44990607  0.53939406  0.27780285  1
  O  O129  1  0.55026404  0.00264120  0.28648755  1
  O  O130  1  0.08855502  0.27125230  0.33968398  1
  O  O131  1  0.91038703  0.87494327  0.31596898  1
  O  O132  1  0.41145786  0.77122221  0.33968114  1
  O  O133  1  0.58966174  0.37490805  0.31596598  1
  O  O134  1  0.15568685  0.58709474  0.45045197  1
  O  O135  1  0.84142794  0.76805766  0.38830557  1
  O  O136  1  0.34310486  0.73336478  0.39648791  1
  O  O137  1  0.65408293  0.61537825  0.44212031  1
  O  O138  1  0.65859279  0.26799045  0.38829842  1
  O  O139  1  0.34438264  0.08712790  0.45043499  1
  O  O140  1  0.84590445  0.11537919  0.44212236  1
  O  O141  1  0.15693369  0.23338091  0.39649044  1
  O  O142  1  0.05050333  0.64229168  0.36954414  1
  O  O143  1  0.94902691  0.10584406  0.37785861  1
  O  O144  1  0.44950745  0.14227905  0.36953414  1
  O  O145  1  0.55097912  0.60577361  0.37784912  1
  O  O146  1  0.09818711  0.87808896  0.42979454  1
  O  O147  1  0.90969134  0.47861507  0.40766070  1
  O  O148  1  0.40188404  0.37812439  0.42977576  1
  O  O149  1  0.59028422  0.97857967  0.40764994  1
  O  O150  1  0.84031228  0.37026673  0.47793859  1
  O  O151  1  0.33455547  0.34390690  0.48653633  1
  O  O152  1  0.65968452  0.87023222  0.47794228  1
  O  O153  1  0.16554864  0.84390000  0.48655680  1
  O  O154  1  0.05478659  0.23557831  0.46387793  1
  O  O155  1  0.95027351  0.73145197  0.46780008  1
  O  O156  1  0.44521384  0.73558719  0.46387650  1
  O  O157  1  0.54983372  0.23146721  0.46776440  1
  O  O158  1  0.90875135  0.08200659  0.49976115  1
  O  O159  1  0.59123115  0.58196711  0.49975672  1
