# generated using pymatgen
data_Li3PO4
_symmetry_space_group_name_H-M   'P 1'
_cell_length_a   6.15119200
_cell_length_b   14.50933100
_cell_length_c   43.45376800
_cell_angle_alpha   90.00000000
_cell_angle_beta   90.00000000
_cell_angle_gamma   90.00000000
_symmetry_Int_Tables_number   1
_chemical_formula_structural   Li3PO4
_chemical_formula_sum   'Li72 P24 O96'
_cell_volume   3878.23492236
_cell_formula_units_Z   24
loop_
 _symmetry_equiv_pos_site_id
 _symmetry_equiv_pos_as_xyz
  1  'x, y, z'
loop_
 _atom_site_type_symbol
 _atom_site_label
 _atom_site_symmetry_multiplicity
 _atom_site_fract_x
 _atom_site_fract_y
 _atom_site_fract_z
 _atom_site_occupancy
  Li  Li0  1  0.55807240  0.17247618  0.00903456  1
  Li  Li1  1  0.50659822  0.12604161  0.07568831  1
  Li  Li2  1  0.00947215  0.13305935  0.07305015  1
  Li  Li3  1  0.71842861  0.64024512  0.03662482  1
  Li  Li4  1  0.98541854  0.33141439  0.00764908  1
  Li  Li5  1  0.97412824  0.82493788  0.00433047  1
  Li  Li6  1  0.69892698  0.81732867  0.04798274  1
  Li  Li7  1  0.26484042  0.97098779  0.04515642  1
  Li  Li8  1  0.25589744  0.49211977  0.03361814  1
  Li  Li9  1  0.74965567  0.27388017  0.05891015  1
  Li  Li10  1  0.48661496  0.59821217  0.08507543  1
  Li  Li11  1  0.50480524  0.91578596  0.08952794  1
  Li  Li12  1  0.50842759  0.39281452  0.09925079  1
  Li  Li13  1  0.50160314  0.88749399  0.15910696  1
  Li  Li14  1  0.00591078  0.88749289  0.15843171  1
  Li  Li15  1  0.00397822  0.39172177  0.09870496  1
  Li  Li16  1  0.00098422  0.91631980  0.08671447  1
  Li  Li17  1  0.00644464  0.59809946  0.08439254  1
  Li  Li18  1  0.75233925  0.55304196  0.13244939  1
  Li  Li19  1  0.24990475  0.72622690  0.12382944  1
  Li  Li20  1  0.25645011  0.24984571  0.11624038  1
  Li  Li21  1  0.75419455  0.02924142  0.14009172  1
  Li  Li22  1  0.50107147  0.36408267  0.16839733  1
  Li  Li23  1  0.50587643  0.67924049  0.17202072  1
  Li  Li24  1  0.50527329  0.15460056  0.18030192  1
  Li  Li25  1  0.49975606  0.65143344  0.24319915  1
  Li  Li26  1  0.00356722  0.65215543  0.24299391  1
  Li  Li27  1  0.00054060  0.15433081  0.18061091  1
  Li  Li28  1  0.99826894  0.67926191  0.17208171  1
  Li  Li29  1  0.00448281  0.36382240  0.16842318  1
  Li  Li30  1  0.75294830  0.31552495  0.21613806  1
  Li  Li31  1  0.25198009  0.49145435  0.20783997  1
  Li  Li32  1  0.25250141  0.01286536  0.19864058  1
  Li  Li33  1  0.75183273  0.79260665  0.22409548  1
  Li  Li34  1  0.49991701  0.12660818  0.25113855  1
  Li  Li35  1  0.50362080  0.44250329  0.25578401  1
  Li  Li36  1  0.50474037  0.91701167  0.26409791  1
  Li  Li37  1  0.49949556  0.41538842  0.32568689  1
  Li  Li38  1  0.00074215  0.41599507  0.32604749  1
  Li  Li39  1  0.99984002  0.91686383  0.26408831  1
  Li  Li40  1  0.99988519  0.44357690  0.25590972  1
  Li  Li41  1  0.00492294  0.12623146  0.25133080  1
  Li  Li42  1  0.75191457  0.07745946  0.29909458  1
  Li  Li43  1  0.25102466  0.25351497  0.29075560  1
  Li  Li44  1  0.25163511  0.77678514  0.28299556  1
  Li  Li45  1  0.75036152  0.55749253  0.30831048  1
  Li  Li46  1  0.49647178  0.88757391  0.33557286  1
  Li  Li47  1  0.50424465  0.20460357  0.33818197  1
  Li  Li48  1  0.50424819  0.68158927  0.34933509  1
  Li  Li49  1  0.49847037  0.17708838  0.40609885  1
  Li  Li50  1  0.01086363  0.17608991  0.40630213  1
  Li  Li51  1  0.00157415  0.68216433  0.34837774  1
  Li  Li52  1  0.99877271  0.20450490  0.33824416  1
  Li  Li53  1  0.00440261  0.88777317  0.33556375  1
  Li  Li54  1  0.74976618  0.84194381  0.38479155  1
  Li  Li55  1  0.25131183  0.01290098  0.37450875  1
  Li  Li56  1  0.25502005  0.54017095  0.36723890  1
  Li  Li57  1  0.75433022  0.32102535  0.38949822  1
  Li  Li58  1  0.50222381  0.65540459  0.42208321  1
  Li  Li59  1  0.50803803  0.97238822  0.42261661  1
  Li  Li60  1  0.50958000  0.44273550  0.43266038  1
  Li  Li61  1  0.24768698  0.91890030  0.46949388  1
  Li  Li62  1  0.00950483  0.44480497  0.43332011  1
  Li  Li63  1  0.98906763  0.97174685  0.42294152  1
  Li  Li64  1  0.00765206  0.64922503  0.41736145  1
  Li  Li65  1  0.76755333  0.59526560  0.46393311  1
  Li  Li66  1  0.12791557  0.72862900  0.46118158  1
  Li  Li67  1  0.25435837  0.30265946  0.44460419  1
  Li  Li68  1  0.74931017  0.07872294  0.47249720  1
  Li  Li69  1  0.48153052  0.25598922  0.49674943  1
  Li  Li70  1  0.45947835  0.74489799  0.50123638  1
  Li  Li71  1  0.02575102  0.25615032  0.49689708  1
  P  P72  1  0.26077404  0.75216153  0.05392071  1
  P  P73  1  0.76368741  0.00337629  0.03148217  1
  P  P74  1  0.75318096  0.46521204  0.04396322  1
  P  P75  1  0.25555243  0.29202132  0.04725690  1
  P  P76  1  0.25169998  0.52172176  0.13995250  1
  P  P77  1  0.75125015  0.75862030  0.11637973  1
  P  P78  1  0.75566680  0.23199984  0.12727665  1
  P  P79  1  0.25199782  0.04720819  0.12892950  1
  P  P80  1  0.25207299  0.28378462  0.22263770  1
  P  P81  1  0.75217213  0.52261745  0.20125069  1
  P  P82  1  0.75311690  0.99513595  0.21002570  1
  P  P83  1  0.25211010  0.81014826  0.21302895  1
  P  P84  1  0.25168688  0.04596646  0.30592018  1
  P  P85  1  0.75192592  0.28540963  0.28414266  1
  P  P86  1  0.75153315  0.75896302  0.29436354  1
  P  P87  1  0.25208660  0.57516382  0.29704554  1
  P  P88  1  0.24999934  0.80991957  0.39240961  1
  P  P89  1  0.75125047  0.04599285  0.36699532  1
  P  P90  1  0.75256811  0.52235722  0.37809560  1
  P  P91  1  0.25369517  0.33944295  0.37861695  1
  P  P92  1  0.26873321  0.55993938  0.47577016  1
  P  P93  1  0.76409049  0.82184700  0.45513484  1
  P  P94  1  0.75444587  0.27674821  0.45645610  1
  P  P95  1  0.25124709  0.10784324  0.46241155  1
  O  O96  1  0.47978527  0.73358129  0.03714819  1
  O  O97  1  0.55970830  0.00699515  0.05375448  1
  O  O98  1  0.54765898  0.52967407  0.04604183  1
  O  O99  1  0.45555457  0.22559698  0.04419111  1
  O  O100  1  0.03966066  0.23672187  0.04270815  1
  O  O101  1  0.95133471  0.53364906  0.04587360  1
  O  O102  1  0.97334962  0.01475635  0.05203642  1
  O  O103  1  0.05893984  0.74132176  0.03254725  1
  O  O104  1  0.77429306  0.90550455  0.01692138  1
  O  O105  1  0.26240330  0.85384233  0.06693991  1
  O  O106  1  0.26010490  0.33531918  0.08003559  1
  O  O107  1  0.75879397  0.40672844  0.01477078  1
  O  O108  1  0.24299430  0.68335190  0.08157346  1
  O  O109  1  0.74393516  0.07880838  0.00710450  1
  O  O110  1  0.75488970  0.40049437  0.07295472  1
  O  O111  1  0.25915058  0.36631621  0.02184689  1
  O  O112  1  0.45886921  0.50977091  0.11969184  1
  O  O113  1  0.54421963  0.77111885  0.13676565  1
  O  O114  1  0.54894431  0.29323663  0.13099768  1
  O  O115  1  0.45994192  0.98592016  0.12625501  1
  O  O116  1  0.04703258  0.98465530  0.12553369  1
  O  O117  1  0.96315746  0.29275449  0.13090099  1
  O  O118  1  0.95696890  0.76990730  0.13702736  1
  O  O119  1  0.04554765  0.50955644  0.11952460  1
  O  O120  1  0.74875638  0.66137228  0.10123861  1
  O  O121  1  0.25160047  0.61953678  0.15449911  1
  O  O122  1  0.25073912  0.09599452  0.16079025  1
  O  O123  1  0.75566278  0.18538841  0.09506966  1
  O  O124  1  0.25209246  0.44682515  0.16568335  1
  O  O125  1  0.75334031  0.83513371  0.09105457  1
  O  O126  1  0.75420281  0.15681611  0.15297154  1
  O  O127  1  0.25377781  0.12033205  0.10257068  1
  O  O128  1  0.45916475  0.27115406  0.20234788  1
  O  O129  1  0.54519517  0.53526401  0.22155386  1
  O  O130  1  0.54584239  0.05654315  0.21299903  1
  O  O131  1  0.45935073  0.74880941  0.20999179  1
  O  O132  1  0.04461891  0.74898440  0.21000742  1
  O  O133  1  0.96016288  0.05645442  0.21327607  1
  O  O134  1  0.95887891  0.53567011  0.22160010  1
  O  O135  1  0.04515806  0.27099343  0.20233931  1
  O  O136  1  0.75285248  0.42455076  0.18686159  1
  O  O137  1  0.25156964  0.38171161  0.23720423  1
  O  O138  1  0.25219341  0.85891460  0.24488479  1
  O  O139  1  0.75425809  0.94627058  0.17815229  1
  O  O140  1  0.25220328  0.20923871  0.24854845  1
  O  O141  1  0.75191279  0.59658213  0.17514528  1
  O  O142  1  0.75214179  0.92166816  0.23630425  1
  O  O143  1  0.25243237  0.88331520  0.18664894  1
  O  O144  1  0.45859919  0.03367691  0.28557356  1
  O  O145  1  0.54453364  0.29793164  0.30435495  1
  O  O146  1  0.54434890  0.82032844  0.29733267  1
  O  O147  1  0.45863817  0.51353181  0.29359949  1
  O  O148  1  0.04401277  0.51422333  0.29399453  1
  O  O149  1  0.95925031  0.82006691  0.29736401  1
  O  O150  1  0.95830799  0.29806923  0.30458021  1
  O  O151  1  0.04493057  0.03353834  0.28555744  1
  O  O152  1  0.75239102  0.18743124  0.26963379  1
  O  O153  1  0.25149360  0.14402167  0.32037992  1
  O  O154  1  0.25446989  0.62398628  0.32891842  1
  O  O155  1  0.75150432  0.71002188  0.26252236  1
  O  O156  1  0.25125233  0.97153397  0.33191593  1
  O  O157  1  0.75246553  0.36018815  0.25833885  1
  O  O158  1  0.75133070  0.68630810  0.32088397  1
  O  O159  1  0.25138894  0.64849318  0.27074700  1
  O  O160  1  0.45629446  0.79854686  0.37173613  1
  O  O161  1  0.54410226  0.05832248  0.38730334  1
  O  O162  1  0.54814050  0.58499480  0.38204129  1
  O  O163  1  0.46091536  0.27805984  0.37531789  1
  O  O164  1  0.04780063  0.27721684  0.37556320  1
  O  O165  1  0.96060296  0.58372801  0.38028984  1
  O  O166  1  0.95848599  0.05792074  0.38728752  1
  O  O167  1  0.04404399  0.79850122  0.37161514  1
  O  O168  1  0.75055374  0.94811101  0.35266285  1
  O  O169  1  0.24963033  0.90794963  0.40730750  1
  O  O170  1  0.25534063  0.38877984  0.41029569  1
  O  O171  1  0.74773420  0.47375976  0.34616046  1
  O  O172  1  0.24910406  0.73409710  0.41776384  1
  O  O173  1  0.75151393  0.12127108  0.34137082  1
  O  O174  1  0.75841367  0.44878195  0.40428238  1
  O  O175  1  0.25141562  0.41306272  0.35253967  1
  O  O176  1  0.47752735  0.55795064  0.45402679  1
  O  O177  1  0.56283698  0.83544082  0.47626850  1
  O  O178  1  0.54406151  0.33395123  0.46032168  1
  O  O179  1  0.45112769  0.04137548  0.46199706  1
  O  O180  1  0.04674647  0.04446253  0.46158211  1
  O  O181  1  0.96448862  0.33436251  0.46043028  1
  O  O182  1  0.98425269  0.84028394  0.47157533  1
  O  O183  1  0.06332616  0.56557584  0.45292223  1
  O  O184  1  0.77169430  0.71881305  0.44309431  1
  O  O185  1  0.27232625  0.65674347  0.49193033  1
  O  O186  1  0.25323780  0.17284136  0.49107449  1
  O  O187  1  0.75486256  0.22597366  0.42520187  1
  O  O188  1  0.25594792  0.47780407  0.49668963  1
  O  O189  1  0.74506904  0.88846722  0.42678830  1
  O  O190  1  0.75388590  0.20698080  0.48444934  1
  O  O191  1  0.25528580  0.17094191  0.43323706  1
