# generated using pymatgen
data_Li3PO4
_symmetry_space_group_name_H-M   'P 1'
_cell_length_a   4.97784600
_cell_length_b   16.20967300
_cell_length_c   48.06382600
_cell_angle_alpha   90.00000000
_cell_angle_beta   90.00000000
_cell_angle_gamma   90.00000000
_symmetry_Int_Tables_number   1
_chemical_formula_structural   Li3PO4
_chemical_formula_sum   'Li84 P28 O112'
_cell_volume   3878.23435586
_cell_formula_units_Z   28
loop_
 _symmetry_equiv_pos_site_id
 _symmetry_equiv_pos_as_xyz
  1  'x, y, z'
loop_
 _atom_site_type_symbol
 _atom_site_label
 _atom_site_symmetry_multiplicity
 _atom_site_fract_x
 _atom_site_fract_y
 _atom_site_fract_z
 _atom_site_occupancy
  Li  Li0  1  0.19693907  0.56950487  0.12506431  1
  Li  Li1  1  0.18658649  0.85730698  0.04514328  1
  Li  Li2  1  0.80019868  0.43131368  0.06954816  1
  Li  Li3  1  0.80111649  0.14434119  0.15373886  1
  Li  Li4  1  0.69865458  0.64436571  0.15375036  1
  Li  Li5  1  0.69976289  0.93155619  0.06945154  1
  Li  Li6  1  0.31336203  0.35736529  0.04519930  1
  Li  Li7  1  0.30288993  0.06950643  0.12503432  1
  Li  Li8  1  0.29608004  0.21409438  0.08295482  1
  Li  Li9  1  0.69863832  0.78675071  0.11178534  1
  Li  Li10  1  0.68947576  0.08034994  0.03098456  1
  Li  Li11  1  0.81078377  0.57974661  0.03124830  1
  Li  Li12  1  0.80028191  0.28664722  0.11175104  1
  Li  Li13  1  0.20336725  0.71411588  0.08291135  1
  Li  Li14  1  0.79378886  0.60372772  0.08955968  1
  Li  Li15  1  0.19778977  0.39782887  0.10653735  1
  Li  Li16  1  0.19240534  0.68011719  0.02564686  1
  Li  Li17  1  0.30745401  0.18021203  0.02563962  1
  Li  Li18  1  0.30194196  0.89788030  0.10646377  1
  Li  Li19  1  0.70507033  0.10410432  0.08936700  1
  Li  Li20  1  0.19802150  0.99450434  0.29260724  1
  Li  Li21  1  0.19773871  0.28184061  0.20853227  1
  Li  Li22  1  0.80259764  0.85669851  0.23752679  1
  Li  Li23  1  0.80245069  0.56828470  0.32177768  1
  Li  Li24  1  0.69755261  0.06828527  0.32177306  1
  Li  Li25  1  0.69741118  0.35671884  0.23758813  1
  Li  Li26  1  0.30201172  0.78183462  0.20850942  1
  Li  Li27  1  0.30196583  0.49448353  0.29261639  1
  Li  Li28  1  0.30186343  0.63938063  0.25053220  1
  Li  Li29  1  0.30168360  0.92727868  0.16673379  1
  Li  Li30  1  0.69965709  0.21135716  0.27997579  1
  Li  Li31  1  0.69697065  0.49884026  0.19591552  1
  Li  Li32  1  0.80227559  0.99872766  0.19591046  1
  Li  Li33  1  0.80031397  0.71136914  0.27997469  1
  Li  Li34  1  0.19684473  0.42697698  0.16675453  1
  Li  Li35  1  0.19813288  0.13933579  0.25052821  1
  Li  Li36  1  0.79603599  0.02932109  0.25656524  1
  Li  Li37  1  0.79803877  0.31664773  0.17260126  1
  Li  Li38  1  0.20207271  0.82113768  0.27347735  1
  Li  Li39  1  0.20075572  0.10970411  0.18973629  1
  Li  Li40  1  0.29870874  0.60966712  0.18972480  1
  Li  Li41  1  0.29738563  0.32107432  0.27347300  1
  Li  Li42  1  0.70181690  0.81668675  0.17254857  1
  Li  Li43  1  0.70387260  0.52932692  0.25656830  1
  Li  Li44  1  0.20158241  0.41946533  0.46089187  1
  Li  Li45  1  0.19904884  0.70757451  0.37688546  1
  Li  Li46  1  0.80300844  0.28035955  0.40605983  1
  Li  Li47  1  0.80132672  0.99249801  0.48958252  1
  Li  Li48  1  0.69879707  0.49249380  0.48961202  1
  Li  Li49  1  0.69714214  0.78035550  0.40605919  1
  Li  Li50  1  0.30203899  0.20728767  0.37690469  1
  Li  Li51  1  0.29956540  0.91939939  0.46057827  1
  Li  Li52  1  0.30254158  0.06459596  0.41858245  1
  Li  Li53  1  0.30204032  0.35190925  0.33436910  1
  Li  Li54  1  0.69692096  0.63511316  0.44776426  1
  Li  Li55  1  0.69868136  0.92293993  0.36409162  1
  Li  Li56  1  0.80154728  0.42284259  0.36414216  1
  Li  Li57  1  0.80317825  0.13517906  0.44777363  1
  Li  Li58  1  0.19883547  0.85226005  0.33431775  1
  Li  Li59  1  0.19752095  0.56455099  0.41858547  1
  Li  Li60  1  0.80046363  0.45376100  0.42484298  1
  Li  Li61  1  0.79846121  0.74092872  0.34072783  1
  Li  Li62  1  0.20357500  0.24628733  0.44185382  1
  Li  Li63  1  0.20187049  0.53369594  0.35788803  1
  Li  Li64  1  0.29819167  0.03370131  0.35787860  1
  Li  Li65  1  0.29667631  0.74601551  0.44187678  1
  Li  Li66  1  0.70171658  0.24091256  0.34072926  1
  Li  Li67  1  0.70009749  0.95385715  0.42477682  1
  Li  Li68  1  0.20065093  0.13307533  0.54535297  1
  Li  Li69  1  0.81335909  0.70694872  0.56950764  1
  Li  Li70  1  0.68702339  0.20688910  0.56977192  1
  Li  Li71  1  0.29962773  0.63303445  0.54531405  1
  Li  Li72  1  0.31128475  0.48472029  0.58400959  1
  Li  Li73  1  0.29991091  0.77742568  0.50252048  1
  Li  Li74  1  0.70254671  0.34873815  0.53159159  1
  Li  Li75  1  0.79839704  0.84943289  0.53156348  1
  Li  Li76  1  0.20047107  0.27721655  0.50264125  1
  Li  Li77  1  0.18888379  0.98466625  0.58399796  1
  Li  Li78  1  0.80800344  0.88455378  0.58883861  1
  Li  Li79  1  0.80319668  0.16497178  0.50804122  1
  Li  Li80  1  0.20552279  0.96028609  0.52539148  1
  Li  Li81  1  0.29526998  0.45992875  0.52545519  1
  Li  Li82  1  0.69682318  0.66503120  0.50802379  1
  Li  Li83  1  0.69215720  0.38460800  0.58884293  1
  P  P84  1  0.69186952  0.46652282  0.13344338  1
  P  P85  1  0.70044664  0.75441883  0.04925226  1
  P  P86  1  0.30341404  0.53502585  0.06171803  1
  P  P87  1  0.30610754  0.24740753  0.14533784  1
  P  P88  1  0.19332173  0.74747549  0.14532042  1
  P  P89  1  0.19619572  0.03515232  0.06159352  1
  P  P90  1  0.79925948  0.25462913  0.04919293  1
  P  P91  1  0.80765448  0.96659287  0.13337438  1
  P  P92  1  0.69340977  0.89134696  0.30100612  1
  P  P93  1  0.69334293  0.17920480  0.21704315  1
  P  P94  1  0.30634622  0.95964081  0.22927948  1
  P  P95  1  0.30642532  0.67161141  0.31335765  1
  P  P96  1  0.19362072  0.17155637  0.31335654  1
  P  P97  1  0.19342702  0.45964252  0.22928153  1
  P  P98  1  0.80634569  0.67921736  0.21704920  1
  P  P99  1  0.80673507  0.39130190  0.30102688  1
  P  P100  1  0.69456905  0.31550166  0.46912170  1
  P  P101  1  0.69351640  0.60362521  0.38512850  1
  P  P102  1  0.30749905  0.38411760  0.39757711  1
  P  P103  1  0.30772084  0.09646245  0.48125375  1
  P  P104  1  0.19235310  0.59651153  0.48127912  1
  P  P105  1  0.19257252  0.88416526  0.39750178  1
  P  P106  1  0.80683755  0.10364600  0.38512288  1
  P  P107  1  0.80579546  0.81554315  0.46905954  1
  P  P108  1  0.69633225  0.02920141  0.55319219  1
  P  P109  1  0.30007797  0.80987893  0.56530589  1
  P  P110  1  0.20044037  0.30977492  0.56540116  1
  P  P111  1  0.80413805  0.52901887  0.55315948  1
  O  O112  1  0.79495229  0.55589820  0.12786057  1
  O  O113  1  0.81041231  0.84283543  0.04538171  1
  O  O114  1  0.20085008  0.44579860  0.06784493  1
  O  O115  1  0.20353840  0.15800389  0.15095815  1
  O  O116  1  0.29595427  0.65808387  0.15095256  1
  O  O117  1  0.29833920  0.94590978  0.06773713  1
  O  O118  1  0.68964715  0.34307696  0.04534348  1
  O  O119  1  0.70475144  0.05598316  0.12777132  1
  O  O120  1  0.71068598  0.22187988  0.07855971  1
  O  O121  1  0.70409620  0.93686436  0.16233733  1
  O  O122  1  0.29577842  0.77729935  0.11629386  1
  O  O123  1  0.30471329  0.06489099  0.03307628  1
  O  O124  1  0.19556373  0.56475474  0.03317517  1
  O  O125  1  0.20365573  0.27722782  0.11631030  1
  O  O126  1  0.79547533  0.43678299  0.16239395  1
  O  O127  1  0.78838927  0.72170513  0.07864366  1
  O  O128  1  0.20416798  0.59390722  0.08523017  1
  O  O129  1  0.79486107  0.40782164  0.11020111  1
  O  O130  1  0.80782626  0.69568744  0.02633251  1
  O  O131  1  0.69186727  0.19603502  0.02624214  1
  O  O132  1  0.70453307  0.90789397  0.11013413  1
  O  O133  1  0.29522116  0.09397036  0.08513624  1
  O  O134  1  0.37835849  0.46690461  0.13370106  1
  O  O135  1  0.38390180  0.75627875  0.04827069  1
  O  O136  1  0.61741134  0.53448025  0.06134832  1
  O  O137  1  0.61955856  0.24728468  0.14520926  1
  O  O138  1  0.87985748  0.74730133  0.14519929  1
  O  O139  1  0.88219889  0.03480973  0.06114719  1
  O  O140  1  0.11579172  0.25635473  0.04826148  1
  O  O141  1  0.12118935  0.96692546  0.13362966  1
  O  O142  1  0.79540382  0.98082935  0.29535791  1
  O  O143  1  0.79547755  0.26863244  0.21134601  1
  O  O144  1  0.20393566  0.87014507  0.23481693  1
  O  O145  1  0.20433698  0.58213569  0.31904603  1
  O  O146  1  0.29572883  0.08208046  0.31902893  1
  O  O147  1  0.29589525  0.37014238  0.23482297  1
  O  O148  1  0.70442153  0.76865288  0.21132552  1
  O  O149  1  0.70481200  0.48078401  0.29537232  1
  O  O150  1  0.70279035  0.64984105  0.24606680  1
  O  O151  1  0.70426790  0.36191954  0.33008718  1
  O  O152  1  0.29662822  0.20092078  0.28431303  1
  O  O153  1  0.29586417  0.48930620  0.20026624  1
  O  O154  1  0.20365347  0.98934335  0.20027738  1
  O  O155  1  0.20325543  0.70093926  0.28431357  1
  O  O156  1  0.79584105  0.86197267  0.33006844  1
  O  O157  1  0.79679688  0.14978140  0.24605891  1
  O  O158  1  0.20205397  0.01849965  0.25244166  1
  O  O159  1  0.20121250  0.30618245  0.16848996  1
  O  O160  1  0.79812817  0.83239019  0.27786123  1
  O  O161  1  0.79733848  0.12021233  0.19388368  1
  O  O162  1  0.70219873  0.62021782  0.19389761  1
  O  O163  1  0.70196397  0.33235197  0.27787925  1
  O  O164  1  0.29819681  0.80626612  0.16847012  1
  O  O165  1  0.29788067  0.51849899  0.25243988  1
  O  O166  1  0.37974215  0.89126437  0.30102953  1
  O  O167  1  0.37972053  0.17913929  0.21722882  1
  O  O168  1  0.61991717  0.95952872  0.22916771  1
  O  O169  1  0.62020681  0.67160801  0.31321175  1
  O  O170  1  0.87986716  0.17157619  0.31322327  1
  O  O171  1  0.87982648  0.45954648  0.22918471  1
  O  O172  1  0.11996759  0.67911758  0.21723971  1
  O  O173  1  0.12040531  0.39116570  0.30106869  1
  O  O174  1  0.79823973  0.40480462  0.46352316  1
  O  O175  1  0.79637604  0.69305467  0.37950056  1
  O  O176  1  0.20448978  0.29477891  0.40329455  1
  O  O177  1  0.20361654  0.00717634  0.48687853  1
  O  O178  1  0.29674867  0.50730831  0.48698193  1
  O  O179  1  0.29579362  0.79488981  0.40326710  1
  O  O180  1  0.70416580  0.19308415  0.37950105  1
  O  O181  1  0.70210173  0.90481797  0.46341334  1
  O  O182  1  0.70406615  0.07416679  0.41415887  1
  O  O183  1  0.70436582  0.78600737  0.49815857  1
  O  O184  1  0.29553481  0.62593870  0.45225790  1
  O  O185  1  0.29513355  0.91337463  0.36842124  1
  O  O186  1  0.20489900  0.41331590  0.36849582  1
  O  O187  1  0.20460065  0.12605598  0.45224646  1
  O  O188  1  0.79641614  0.28577431  0.49818505  1
  O  O189  1  0.79632631  0.57413138  0.41416465  1
  O  O190  1  0.20364517  0.44340711  0.42065698  1
  O  O191  1  0.20237345  0.73072085  0.33648720  1
  O  O192  1  0.79843456  0.25634609  0.44603623  1
  O  O193  1  0.79748408  0.54444720  0.36202482  1
  O  O194  1  0.70265112  0.04450607  0.36202171  1
  O  O195  1  0.70151854  0.75625780  0.44602858  1
  O  O196  1  0.29788822  0.23058773  0.33649554  1
  O  O197  1  0.29650147  0.94355537  0.42054852  1
  O  O198  1  0.38103064  0.31606519  0.46922241  1
  O  O199  1  0.37988899  0.60393545  0.38526672  1
  O  O200  1  0.62118146  0.38372143  0.39751081  1
  O  O201  1  0.62128938  0.09567070  0.48097669  1
  O  O202  1  0.87881004  0.59562726  0.48097836  1
  O  O203  1  0.87892169  0.88374276  0.39744305  1
  O  O204  1  0.12043188  0.10389191  0.38525056  1
  O  O205  1  0.11934699  0.81612848  0.46907953  1
  O  O206  1  0.79908622  0.11835288  0.54695958  1
  O  O207  1  0.19004503  0.72153221  0.56932378  1
  O  O208  1  0.31062339  0.22146652  0.56944366  1
  O  O209  1  0.70131842  0.61811536  0.54683941  1
  O  O210  1  0.69590767  0.49991391  0.58177481  1
  O  O211  1  0.28854273  0.34187850  0.53593650  1
  O  O212  1  0.21169069  0.84214609  0.53586897  1
  O  O213  1  0.80444382  0.99986590  0.58178700  1
  O  O214  1  0.19249917  0.86875374  0.58817141  1
  O  O215  1  0.20540074  0.15550713  0.50443751  1
  O  O216  1  0.79528359  0.97001603  0.52973627  1
  O  O217  1  0.70555472  0.46957704  0.52976077  1
  O  O218  1  0.29448785  0.65573778  0.50441412  1
  O  O219  1  0.30805061  0.36879862  0.58821754  1
  O  O220  1  0.38229981  0.02969736  0.55365949  1
  O  O221  1  0.61655292  0.80806912  0.56627742  1
  O  O222  1  0.88397740  0.30792608  0.56640435  1
  O  O223  1  0.11818198  0.52960261  0.55363800  1
