# generated using pymatgen
data_Li3PO4
_symmetry_space_group_name_H-M   'P 1'
_cell_length_a   7.91303400
_cell_length_b   14.50933148
_cell_length_c   43.68798000
_cell_angle_alpha   90.00000000
_cell_angle_beta   90.00000000
_cell_angle_gamma   64.42826301
_symmetry_Int_Tables_number   1
_chemical_formula_structural   Li3PO4
_chemical_formula_sum   'Li96 P32 O128'
_cell_volume   4524.60708312
_cell_formula_units_Z   32
loop_
 _symmetry_equiv_pos_site_id
 _symmetry_equiv_pos_as_xyz
  1  'x, y, z'
loop_
 _atom_site_type_symbol
 _atom_site_label
 _atom_site_symmetry_multiplicity
 _atom_site_fract_x
 _atom_site_fract_y
 _atom_site_fract_z
 _atom_site_occupancy
  Li  Li0  1  0.31659005  0.68944005  0.05103856  1
  Li  Li1  1  0.31646676  0.02512628  0.06001644  1
  Li  Li2  1  0.26032102  0.51180961  0.06815726  1
  Li  Li3  1  0.33837508  0.21484889  0.04792299  1
  Li  Li4  1  0.93049884  0.37979122  0.02007265  1
  Li  Li5  1  0.86822703  0.11044765  0.02602630  1
  Li  Li6  1  0.66744689  0.82682621  0.03347406  1
  Li  Li7  1  0.98511168  0.90957407  0.07026299  1
  Li  Li8  1  0.97822355  0.41385242  0.07735258  1
  Li  Li9  1  0.61703320  0.32035679  0.03999571  1
  Li  Li10  1  0.04560974  0.53402100  0.12521470  1
  Li  Li11  1  0.03988741  0.84557478  0.12653135  1
  Li  Li12  1  0.01633689  0.32991301  0.13654515  1
  Li  Li13  1  0.07544678  0.04745153  0.11605180  1
  Li  Li14  1  0.70246422  0.14233668  0.08004223  1
  Li  Li15  1  0.62898943  0.42278659  0.09903642  1
  Li  Li16  1  0.66239912  0.94104674  0.08825560  1
  Li  Li17  1  0.70811594  0.63695660  0.06949285  1
  Li  Li18  1  0.35901787  0.64876268  0.11028320  1
  Li  Li19  1  0.73946744  0.72735586  0.13919959  1
  Li  Li20  1  0.76666067  0.24967089  0.13245441  1
  Li  Li21  1  0.32298866  0.13213015  0.11916482  1
  Li  Li22  1  0.79682619  0.35572048  0.19579482  1
  Li  Li23  1  0.78280253  0.67356492  0.19875358  1
  Li  Li24  1  0.75500885  0.15527170  0.20626169  1
  Li  Li25  1  0.82145220  0.87392031  0.18699337  1
  Li  Li26  1  0.45500649  0.95727395  0.15096217  1
  Li  Li27  1  0.38296488  0.24403330  0.17004441  1
  Li  Li28  1  0.40727817  0.76125489  0.16225516  1
  Li  Li29  1  0.42784994  0.44383413  0.15985324  1
  Li  Li30  1  0.09023097  0.47479130  0.18352433  1
  Li  Li31  1  0.48790331  0.55658407  0.21152555  1
  Li  Li32  1  0.51126539  0.07097690  0.20399935  1
  Li  Li33  1  0.06444340  0.95765538  0.18953515  1
  Li  Li34  1  0.53645495  0.18179644  0.26692446  1
  Li  Li35  1  0.52520093  0.49933642  0.27094361  1
  Li  Li36  1  0.49756540  0.98151121  0.27789976  1
  Li  Li37  1  0.56148637  0.70017500  0.25961151  1
  Li  Li38  1  0.19405872  0.78651127  0.22391312  1
  Li  Li39  1  0.12453743  0.06896958  0.24173255  1
  Li  Li40  1  0.15162409  0.58839884  0.23450288  1
  Li  Li41  1  0.16904490  0.26719803  0.23147484  1
  Li  Li42  1  0.83189859  0.30038365  0.25496114  1
  Li  Li43  1  0.23069474  0.38081533  0.28280963  1
  Li  Li44  1  0.25394005  0.89758297  0.27599065  1
  Li  Li45  1  0.80643044  0.78291812  0.26167119  1
  Li  Li46  1  0.27856205  0.00753998  0.33857854  1
  Li  Li47  1  0.26812902  0.32564428  0.34261578  1
  Li  Li48  1  0.24028355  0.80689150  0.35014886  1
  Li  Li49  1  0.30441577  0.52543442  0.33189149  1
  Li  Li50  1  0.93777277  0.61184120  0.29599531  1
  Li  Li51  1  0.86568260  0.89603236  0.31370687  1
  Li  Li52  1  0.89481312  0.41383924  0.30672427  1
  Li  Li53  1  0.90972394  0.09423594  0.30292531  1
  Li  Li54  1  0.57417377  0.12635961  0.32661865  1
  Li  Li55  1  0.97217622  0.20664444  0.35452672  1
  Li  Li56  1  0.99470095  0.72499921  0.34808299  1
  Li  Li57  1  0.54831198  0.60940842  0.33381524  1
  Li  Li58  1  0.02010054  0.83356682  0.41079950  1
  Li  Li59  1  0.00854780  0.15140917  0.41395642  1
  Li  Li60  1  0.98174820  0.63310632  0.42255812  1
  Li  Li61  1  0.04828607  0.35183254  0.40335000  1
  Li  Li62  1  0.67857938  0.43878160  0.36792180  1
  Li  Li63  1  0.60835075  0.72071494  0.38602961  1
  Li  Li64  1  0.63621352  0.23914194  0.37846473  1
  Li  Li65  1  0.65120235  0.91945054  0.37519726  1
  Li  Li66  1  0.31622825  0.95137632  0.39835162  1
  Li  Li67  1  0.71435205  0.03214314  0.42626938  1
  Li  Li68  1  0.73929715  0.54936417  0.42031904  1
  Li  Li69  1  0.29231747  0.43577882  0.40580591  1
  Li  Li70  1  0.76392327  0.66162608  0.48324812  1
  Li  Li71  1  0.75813550  0.97428233  0.48465476  1
  Li  Li72  1  0.72617683  0.46060596  0.49357272  1
  Li  Li73  1  0.78654143  0.17852012  0.47311287  1
  Li  Li74  1  0.42095434  0.26283536  0.43978010  1
  Li  Li75  1  0.34907522  0.54972062  0.45871343  1
  Li  Li76  1  0.37623173  0.06376818  0.44998878  1
  Li  Li77  1  0.39463177  0.74628289  0.44744536  1
  Li  Li78  1  0.06326564  0.78043091  0.47077240  1
  Li  Li79  1  0.44426730  0.85795964  0.49967303  1
  Li  Li80  1  0.48058124  0.37490200  0.49065110  1
  Li  Li81  1  0.03505783  0.25893338  0.47707877  1
  Li  Li82  1  0.48791437  0.48115776  0.54956622  1
  Li  Li83  1  0.48409249  0.81914162  0.55882420  1
  Li  Li84  1  0.46496783  0.29334757  0.56171569  1
  Li  Li85  1  0.54048965  0.99679246  0.54143612  1
  Li  Li86  1  0.17414184  0.08556136  0.51069741  1
  Li  Li87  1  0.09816356  0.36581782  0.52986830  1
  Li  Li88  1  0.09468978  0.87040646  0.54059876  1
  Li  Li89  1  0.13768750  0.56668889  0.52140671  1
  Li  Li90  1  0.81664697  0.59845821  0.53972969  1
  Li  Li91  1  0.13655536  0.68006606  0.57649840  1
  Li  Li92  1  0.18035239  0.18924404  0.57103747  1
  Li  Li93  1  0.82502416  0.09477960  0.53213112  1
  Li  Li94  1  0.86847433  0.12799287  0.58983274  1
  Li  Li95  1  0.93270661  0.39989492  0.58385179  1
  P  P96  1  0.64406874  0.03206583  0.02575067  1
  P  P97  1  0.61017907  0.49503924  0.03549390  1
  P  P98  1  0.94864769  0.71043714  0.08114566  1
  P  P99  1  0.39598245  0.84200761  0.09546981  1
  P  P100  1  0.36299360  0.32670547  0.10586987  1
  P  P101  1  0.99007983  0.23223626  0.07294408  1
  P  P102  1  0.69560181  0.53374391  0.15324015  1
  P  P103  1  0.13552051  0.67024862  0.16980120  1
  P  P104  1  0.10711023  0.14904520  0.17782084  1
  P  P105  1  0.72709657  0.05479073  0.14362060  1
  P  P106  1  0.44169321  0.35993936  0.22430738  1
  P  P107  1  0.87898613  0.49555158  0.24200516  1
  P  P108  1  0.84827407  0.97594653  0.24940924  1
  P  P109  1  0.47016246  0.87933866  0.21572976  1
  P  P110  1  0.18389927  0.18561309  0.29606584  1
  P  P111  1  0.62078588  0.32172417  0.31361245  1
  P  P112  1  0.59076555  0.80170069  0.32158990  1
  P  P113  1  0.21168201  0.70560407  0.28817962  1
  P  P114  1  0.92488934  0.01162472  0.36771953  1
  P  P115  1  0.36232534  0.14746385  0.38528284  1
  P  P116  1  0.33299345  0.62766136  0.39399244  1
  P  P117  1  0.95467582  0.53154866  0.36031571  1
  P  P118  1  0.66769692  0.83726497  0.44008440  1
  P  P119  1  0.10788741  0.97369242  0.45666087  1
  P  P120  1  0.07569008  0.45255368  0.46613629  1
  P  P121  1  0.69640149  0.35822602  0.43187849  1
  P  P122  1  0.40668229  0.66497343  0.51436051  1
  P  P123  1  0.85331593  0.79722494  0.52884085  1
  P  P124  1  0.81260658  0.27574526  0.53693474  1
  P  P125  1  0.43956836  0.18171887  0.50378694  1
  P  P126  1  0.15953718  0.47555147  0.58421528  1
  P  P127  1  0.18989070  0.01364114  0.57432925  1
  O  O128  1  0.43916441  0.08047017  0.03829039  1
  O  O129  1  0.47602193  0.60026083  0.02427998  1
  O  O130  1  0.84367698  0.20753874  0.05569708  1
  O  O131  1  0.78775219  0.49933528  0.05106904  1
  O  O132  1  0.77678145  0.01949531  0.05561755  1
  O  O133  1  0.84894459  0.71057981  0.05102874  1
  O  O134  1  0.69623300  0.92632001  0.01264120  1
  O  O135  1  0.68647322  0.40721847  0.01167035  1
  O  O136  1  0.67369213  0.11023857  0.00539688  1
  O  O137  1  0.51254143  0.45404808  0.06032614  1
  O  O138  1  0.07555181  0.28544869  0.05089040  1
  O  O139  1  0.16628764  0.65109363  0.07790235  1
  O  O140  1  0.17809344  0.90846487  0.09733351  1
  O  O141  1  0.19325805  0.42718006  0.09502527  1
  O  O142  1  0.14541217  0.13178981  0.08604158  1
  O  O143  1  0.58471559  0.02670697  0.12567903  1
  O  O144  1  0.50654087  0.35309091  0.12378497  1
  O  O145  1  0.47938695  0.83432853  0.12828830  1
  O  O146  1  0.60000556  0.53974848  0.12205347  1
  O  O147  1  0.43726538  0.73473384  0.08265185  1
  O  O148  1  0.90377921  0.82151522  0.09211298  1
  O  O149  1  0.89231376  0.30960407  0.09948031  1
  O  O150  1  0.45874887  0.25952788  0.07767592  1
  O  O151  1  0.87971061  0.65472823  0.10511738  1
  O  O152  1  0.47977373  0.89583378  0.07341198  1
  O  O153  1  0.28492730  0.26970703  0.12808969  1
  O  O154  1  0.80545780  0.11176254  0.12152440  1
  O  O155  1  0.91323553  0.47058242  0.15044450  1
  O  O156  1  0.91897489  0.73385862  0.17229444  1
  O  O157  1  0.94391804  0.24884046  0.16547713  1
  O  O158  1  0.89278297  0.95507859  0.15535936  1
  O  O159  1  0.32598865  0.85197248  0.19822348  1
  O  O160  1  0.25028921  0.17739101  0.19521823  1
  O  O161  1  0.22616151  0.66342237  0.20199397  1
  O  O162  1  0.35161861  0.36758271  0.19206340  1
  O  O163  1  0.18126203  0.56063981  0.15832315  1
  O  O164  1  0.65114254  0.64279700  0.16543343  1
  O  O165  1  0.62773653  0.12495365  0.17123300  1
  O  O166  1  0.20616739  0.07629063  0.15063626  1
  O  O167  1  0.62109559  0.47816540  0.17661627  1
  O  O168  1  0.21535278  0.72438553  0.14696272  1
  O  O169  1  0.02501935  0.09541864  0.20032489  1
  O  O170  1  0.55172927  0.93283559  0.19292519  1
  O  O171  1  0.65826740  0.29582603  0.22190753  1
  O  O172  1  0.66258662  0.55909712  0.24470720  1
  O  O173  1  0.68405935  0.07560793  0.23730197  1
  O  O174  1  0.63253174  0.77984359  0.22822862  1
  O  O175  1  0.06828928  0.67767948  0.27066142  1
  O  O176  1  0.99182756  0.00384490  0.26693744  1
  O  O177  1  0.97014266  0.48745107  0.27417563  1
  O  O178  1  0.09351242  0.19348267  0.26382771  1
  O  O179  1  0.92477514  0.38661228  0.22975490  1
  O  O180  1  0.39608576  0.46870748  0.23664055  1
  O  O181  1  0.37156870  0.95226452  0.24289492  1
  O  O182  1  0.94689959  0.90446644  0.22198195  1
  O  O183  1  0.36100321  0.30486233  0.24664933  1
  O  O184  1  0.95875177  0.55071074  0.21956999  1
  O  O185  1  0.76810800  0.92119120  0.27192520  1
  O  O186  1  0.29242927  0.75979256  0.26552052  1
  O  O187  1  0.40035236  0.12165476  0.29356393  1
  O  O188  1  0.40427601  0.38568430  0.31606805  1
  O  O189  1  0.42725059  0.90108890  0.30916657  1
  O  O190  1  0.37506365  0.60604322  0.30050516  1
  O  O191  1  0.81102212  0.50365152  0.34283210  1
  O  O192  1  0.73368027  0.83008960  0.33908534  1
  O  O193  1  0.71092239  0.31359911  0.34587568  1
  O  O194  1  0.83419280  0.02003889  0.33549010  1
  O  O195  1  0.66521594  0.21317872  0.30119251  1
  O  O196  1  0.13922862  0.29425850  0.30839741  1
  O  O197  1  0.11283030  0.77812930  0.31538288  1
  O  O198  1  0.68989293  0.72919977  0.29439963  1
  O  O199  1  0.10278670  0.13083625  0.31840531  1
  O  O200  1  0.70197926  0.37646643  0.29128156  1
  O  O201  1  0.51019860  0.74743501  0.34424894  1
  O  O202  1  0.03424670  0.58650417  0.33777301  1
  O  O203  1  0.14122050  0.94783829  0.36510059  1
  O  O204  1  0.14579624  0.21167172  0.38775537  1
  O  O205  1  0.17019041  0.72705277  0.38150908  1
  O  O206  1  0.11928274  0.43188697  0.37234238  1
  O  O207  1  0.55339813  0.32956014  0.41457135  1
  O  O208  1  0.47691166  0.65521376  0.41151717  1
  O  O209  1  0.45274971  0.13955812  0.41752146  1
  O  O210  1  0.57700991  0.84430084  0.40786883  1
  O  O211  1  0.40719437  0.03879492  0.37293780  1
  O  O212  1  0.87959132  0.12041010  0.38004101  1
  O  O213  1  0.85631955  0.60295779  0.38776759  1
  O  O214  1  0.43156876  0.55489970  0.36679786  1
  O  O215  1  0.84437984  0.95656385  0.39006385  1
  O  O216  1  0.44326181  0.20232199  0.36291911  1
  O  O217  1  0.25185205  0.57391446  0.41676587  1
  O  O218  1  0.77808921  0.41189464  0.40933985  1
  O  O219  1  0.88420043  0.77321774  0.43757358  1
  O  O220  1  0.89030966  0.03732461  0.45944365  1
  O  O221  1  0.91014761  0.55227485  0.45434317  1
  O  O222  1  0.85996802  0.25856791  0.44420298  1
  O  O223  1  0.29627250  0.15509949  0.48586634  1
  O  O224  1  0.21816518  0.48068862  0.48401080  1
  O  O225  1  0.20339701  0.96765081  0.48786833  1
  O  O226  1  0.32360091  0.67306367  0.48148592  1
  O  O227  1  0.15118282  0.86481148  0.44443668  1
  O  O228  1  0.62279165  0.94677997  0.45157696  1
  O  O229  1  0.59732488  0.43098157  0.45906558  1
  O  O230  1  0.17478808  0.38200959  0.43856942  1
  O  O231  1  0.58717621  0.78330461  0.46288397  1
  O  O232  1  0.18301462  0.02900722  0.43328547  1
  O  O233  1  0.99647407  0.39623586  0.48831795  1
  O  O234  1  0.51902014  0.23773174  0.48144169  1
  O  O235  1  0.62465281  0.59872649  0.51250573  1
  O  O236  1  0.63571371  0.85684675  0.53219910  1
  O  O237  1  0.65709718  0.37573185  0.52364451  1
  O  O238  1  0.60871593  0.08126840  0.51480956  1
  O  O239  1  0.01351456  0.00885694  0.55851375  1
  O  O240  1  0.95709276  0.30144077  0.55439846  1
  O  O241  1  0.95411303  0.79632899  0.55890810  1
  O  O242  1  0.02648105  0.48863932  0.55430337  1
  O  O243  1  0.89734246  0.68630889  0.51779366  1
  O  O244  1  0.36521284  0.77215864  0.52732752  1
  O  O245  1  0.34366807  0.24997228  0.53172945  1
  O  O246  1  0.91117289  0.19857076  0.51039172  1
  O  O247  1  0.32284692  0.61076316  0.53625125  1
  O  O248  1  0.92206151  0.85293747  0.50484134  1
  O  O249  1  0.72704484  0.22237454  0.55887221  1
  O  O250  1  0.28777871  0.05568408  0.54984323  1
  O  O251  1  0.36454177  0.42715646  0.57178774  1
  O  O252  1  0.32419091  0.90827941  0.58545082  1
  O  O253  1  0.10713183  0.58107902  0.59748472  1
  O  O254  1  0.11206164  0.10076923  0.59838553  1
  O  O255  1  0.12919251  0.39724438  0.60443481  1
