# generated using pymatgen
data_Li3PO4
_symmetry_space_group_name_H-M   'P 1'
_cell_length_a   4.97784600
_cell_length_b   6.15119200
_cell_length_c   52.77425300
_cell_angle_alpha   90.00000000
_cell_angle_beta   90.00000000
_cell_angle_gamma   90.00000000
_symmetry_Int_Tables_number   1
_chemical_formula_structural   Li3PO4
_chemical_formula_sum   'Li30 P10 O40'
_cell_volume   1615.93108173
_cell_formula_units_Z   10
loop_
 _symmetry_equiv_pos_site_id
 _symmetry_equiv_pos_as_xyz
  1  'x, y, z'
loop_
 _atom_site_type_symbol
 _atom_site_label
 _atom_site_symmetry_multiplicity
 _atom_site_fract_x
 _atom_site_fract_y
 _atom_site_fract_z
 _atom_site_occupancy
  Li  Li0  1  0.80356424  0.49900371  0.15020781  1
  Li  Li1  1  0.30262883  0.50096245  0.11536656  1
  Li  Li2  1  0.67508340  0.48863429  0.05379963  1
  Li  Li3  1  0.67508074  0.01136590  0.05379974  1
  Li  Li4  1  0.30262877  0.99903692  0.11536651  1
  Li  Li5  1  0.80356332  0.00099847  0.15020787  1
  Li  Li6  1  0.20393715  0.75000016  0.16827581  1
  Li  Li7  1  0.80032940  0.25000034  0.19793005  1
  Li  Li8  1  0.70864519  0.25000054  0.09863115  1
  Li  Li9  1  0.27523736  0.74999631  0.06635624  1
  Li  Li10  1  0.80069429  0.49828981  0.35110628  1
  Li  Li11  1  0.20212552  0.50077274  0.21602101  1
  Li  Li12  1  0.30296610  0.50211444  0.31651792  1
  Li  Li13  1  0.70036863  0.49824840  0.25068600  1
  Li  Li14  1  0.70036857  0.00175231  0.25068593  1
  Li  Li15  1  0.30296595  0.99788619  0.31651804  1
  Li  Li16  1  0.20212541  0.99922638  0.21602112  1
  Li  Li17  1  0.80069487  0.00171054  0.35110654  1
  Li  Li18  1  0.20124230  0.75000004  0.36932205  1
  Li  Li19  1  0.79588223  0.24999999  0.39905188  1
  Li  Li20  1  0.70265776  0.25000013  0.29844017  1
  Li  Li21  1  0.30080384  0.75000015  0.26851777  1
  Li  Li22  1  0.19386345  0.50133169  0.41703795  1
  Li  Li23  1  0.32251550  0.51075734  0.51338685  1
  Li  Li24  1  0.69647992  0.49902635  0.45183053  1
  Li  Li25  1  0.69647948  0.00097412  0.45183062  1
  Li  Li26  1  0.32251547  0.98924337  0.51338680  1
  Li  Li27  1  0.19386352  0.99866847  0.41703801  1
  Li  Li28  1  0.72524245  0.25000033  0.50073174  1
  Li  Li29  1  0.29252169  0.75000011  0.46857153  1
  P  P30  1  0.30811696  0.24999880  0.16520762  1
  P  P31  1  0.80940471  0.75000082  0.10059449  1
  P  P32  1  0.19395492  0.24999630  0.06487246  1
  P  P33  1  0.30492115  0.25000043  0.36624686  1
  P  P34  1  0.69554231  0.75000082  0.20098271  1
  P  P35  1  0.80787328  0.75000027  0.30133357  1
  P  P36  1  0.19478079  0.25000390  0.26577978  1
  P  P37  1  0.69094532  0.74999796  0.40195783  1
  P  P38  1  0.80411199  0.75000061  0.50218254  1
  P  P39  1  0.18940634  0.25000055  0.46656711  1
  O  O40  1  0.20503539  0.45717814  0.15119910  1
  O  O41  1  0.70452147  0.54315708  0.11449067  1
  O  O42  1  0.29662643  0.45847741  0.05158194  1
  O  O43  1  0.29661224  0.04150467  0.05158304  1
  O  O44  1  0.70452347  0.95684413  0.11449043  1
  O  O45  1  0.20504612  0.04282436  0.15119891  1
  O  O46  1  0.79903571  0.75000107  0.17316406  1
  O  O47  1  0.20479378  0.24999564  0.19303464  1
  O  O48  1  0.29218101  0.24999940  0.09313233  1
  O  O49  1  0.70862306  0.74999992  0.07257209  1
  O  O50  1  0.62187275  0.24999968  0.16501989  1
  O  O51  1  0.12194745  0.74999962  0.10082020  1
  O  O52  1  0.87763404  0.25000156  0.06483220  1
  O  O53  1  0.20227731  0.45713090  0.35217230  1
  O  O54  1  0.79835842  0.54282710  0.21501410  1
  O  O55  1  0.70477845  0.54306148  0.31541566  1
  O  O56  1  0.29780959  0.45690735  0.25169645  1
  O  O57  1  0.29780895  0.04309299  0.25169656  1
  O  O58  1  0.70477925  0.95693293  0.31541721  1
  O  O59  1  0.79835674  0.95717504  0.21501398  1
  O  O60  1  0.20227747  0.04286908  0.35217247  1
  O  O61  1  0.79437349  0.75000461  0.37413820  1
  O  O62  1  0.20051934  0.25000042  0.39403677  1
  O  O63  1  0.29828592  0.25000037  0.29357639  1
  O  O64  1  0.70392861  0.75000514  0.27353771  1
  O  O65  1  0.61842916  0.25000073  0.36613636  1
  O  O66  1  0.38194559  0.75000006  0.20114961  1
  O  O67  1  0.12141268  0.75000230  0.30144383  1
  O  O68  1  0.88120337  0.25000062  0.26563162  1
  O  O69  1  0.79393961  0.54285486  0.41598698  1
  O  O70  1  0.70063791  0.54150642  0.51542092  1
  O  O71  1  0.29478741  0.45685199  0.45272258  1
  O  O72  1  0.29478680  0.04314843  0.45272271  1
  O  O73  1  0.70063791  0.95849516  0.51542088  1
  O  O74  1  0.79395012  0.95714374  0.41598672  1
  O  O75  1  0.28862367  0.25000099  0.49462598  1
  O  O76  1  0.70699150  0.75000045  0.47388668  1
  O  O77  1  0.37725528  0.75000013  0.40219453  1
  O  O78  1  0.12035680  0.75000070  0.50235839  1
  O  O79  1  0.87690260  0.25000088  0.46625978  1
