# generated using pymatgen
data_Li3PO4
_symmetry_space_group_name_H-M   'P 1'
_cell_length_a   7.91303400
_cell_length_b   14.50933148
_cell_length_c   43.68798000
_cell_angle_alpha   90.00000000
_cell_angle_beta   90.00000000
_cell_angle_gamma   64.42826301
_symmetry_Int_Tables_number   1
_chemical_formula_structural   Li3PO4
_chemical_formula_sum   'Li96 P32 O128'
_cell_volume   4524.60708312
_cell_formula_units_Z   32
loop_
 _symmetry_equiv_pos_site_id
 _symmetry_equiv_pos_as_xyz
  1  'x, y, z'
loop_
 _atom_site_type_symbol
 _atom_site_label
 _atom_site_symmetry_multiplicity
 _atom_site_fract_x
 _atom_site_fract_y
 _atom_site_fract_z
 _atom_site_occupancy
  Li  Li0  1  0.29091910  0.66986084  0.05880234  1
  Li  Li1  1  0.28680780  0.00721703  0.06808750  1
  Li  Li2  1  0.31190584  0.19583861  0.05501843  1
  Li  Li3  1  0.90591895  0.35879855  0.02742466  1
  Li  Li4  1  0.84067325  0.08948747  0.03409618  1
  Li  Li5  1  0.63710374  0.80894262  0.04092415  1
  Li  Li6  1  0.95072179  0.39418312  0.08474013  1
  Li  Li7  1  0.59245665  0.30116873  0.04646956  1
  Li  Li8  1  0.01506795  0.51440064  0.13287278  1
  Li  Li9  1  0.01234415  0.82695771  0.13428530  1
  Li  Li10  1  0.23374830  0.49243242  0.07618334  1
  Li  Li11  1  0.04709477  0.02799078  0.12388754  1
  Li  Li12  1  0.67621201  0.12341765  0.08777585  1
  Li  Li13  1  0.60116324  0.40374991  0.10655766  1
  Li  Li14  1  0.63630012  0.92200034  0.09626549  1
  Li  Li15  1  0.67960705  0.61882039  0.07630883  1
  Li  Li16  1  0.33004253  0.63069426  0.11825165  1
  Li  Li17  1  0.95881374  0.89009252  0.07788470  1
  Li  Li18  1  0.74028787  0.22941356  0.14032277  1
  Li  Li19  1  0.29439782  0.11377411  0.12665410  1
  Li  Li20  1  0.76547850  0.33687458  0.20333002  1
  Li  Li21  1  0.75457835  0.65453233  0.20661103  1
  Li  Li22  1  0.98820759  0.31041107  0.14416221  1
  Li  Li23  1  0.79261666  0.85499879  0.19488559  1
  Li  Li24  1  0.42450317  0.93934252  0.15887948  1
  Li  Li25  1  0.35459343  0.22570641  0.17782930  1
  Li  Li26  1  0.37988692  0.74258923  0.17004726  1
  Li  Li27  1  0.39779928  0.42579898  0.16709471  1
  Li  Li28  1  0.06009656  0.45615237  0.19108893  1
  Li  Li29  1  0.71163868  0.70847478  0.14658391  1
  Li  Li30  1  0.48278799  0.05227835  0.21176851  1
  Li  Li31  1  0.03634420  0.93880979  0.19732465  1
  Li  Li32  1  0.50803643  0.16272291  0.27460737  1
  Li  Li33  1  0.49764910  0.48071527  0.27867660  1
  Li  Li34  1  0.72627217  0.13671086  0.21401092  1
  Li  Li35  1  0.53427934  0.68116621  0.26731133  1
  Li  Li36  1  0.16623167  0.76785684  0.23153970  1
  Li  Li37  1  0.09546679  0.05113387  0.24980369  1
  Li  Li38  1  0.12371910  0.56901186  0.24258587  1
  Li  Li39  1  0.13901778  0.24979115  0.23919600  1
  Li  Li40  1  0.80345285  0.28146474  0.26267286  1
  Li  Li41  1  0.45831129  0.53716874  0.21914425  1
  Li  Li42  1  0.22420934  0.87981632  0.28392596  1
  Li  Li43  1  0.77942638  0.76419786  0.26907689  1
  Li  Li44  1  0.25072950  0.98874284  0.34656706  1
  Li  Li45  1  0.23999943  0.30632364  0.35035875  1
  Li  Li46  1  0.47052172  0.96236682  0.28564804  1
  Li  Li47  1  0.27765365  0.50701187  0.33941285  1
  Li  Li48  1  0.90822259  0.59404831  0.30392399  1
  Li  Li49  1  0.83788576  0.87616102  0.32154994  1
  Li  Li50  1  0.86686312  0.39452603  0.31449466  1
  Li  Li51  1  0.88157842  0.07481115  0.31085771  1
  Li  Li52  1  0.54506403  0.10762643  0.33446995  1
  Li  Li53  1  0.20235107  0.36202049  0.29071940  1
  Li  Li54  1  0.96929111  0.70517483  0.35600094  1
  Li  Li55  1  0.52252851  0.59050891  0.34145442  1
  Li  Li56  1  0.99311892  0.81455569  0.41852014  1
  Li  Li57  1  0.98021775  0.13352427  0.42160012  1
  Li  Li58  1  0.21279758  0.78849049  0.35781237  1
  Li  Li59  1  0.02130150  0.33352617  0.41110448  1
  Li  Li60  1  0.65169347  0.41869905  0.37568936  1
  Li  Li61  1  0.58128314  0.70183358  0.39365156  1
  Li  Li62  1  0.60780669  0.22048838  0.38609894  1
  Li  Li63  1  0.62348932  0.90018975  0.38304341  1
  Li  Li64  1  0.28716676  0.93203039  0.40598280  1
  Li  Li65  1  0.94390182  0.18822320  0.36243675  1
  Li  Li66  1  0.71096112  0.53026895  0.42808585  1
  Li  Li67  1  0.26465865  0.41741430  0.41344094  1
  Li  Li68  1  0.73566370  0.64243522  0.49133726  1
  Li  Li69  1  0.73269448  0.95467076  0.49223537  1
  Li  Li70  1  0.95364267  0.61423929  0.43022516  1
  Li  Li71  1  0.75961295  0.15890186  0.48106195  1
  Li  Li72  1  0.39192849  0.24469379  0.44752885  1
  Li  Li73  1  0.32124550  0.53140875  0.46629554  1
  Li  Li74  1  0.34852955  0.04439041  0.45786206  1
  Li  Li75  1  0.36779836  0.72779239  0.45526421  1
  Li  Li76  1  0.03601834  0.76203861  0.47850398  1
  Li  Li77  1  0.68705088  0.01300344  0.43405847  1
  Li  Li78  1  0.45230041  0.35675955  0.49853563  1
  Li  Li79  1  0.00869855  0.23952409  0.48470366  1
  Li  Li80  1  0.46161050  0.46283273  0.55715980  1
  Li  Li81  1  0.45782590  0.79964471  0.56655078  1
  Li  Li82  1  0.69994417  0.44114912  0.50131914  1
  Li  Li83  1  0.51235586  0.97747311  0.54878455  1
  Li  Li84  1  0.14700527  0.06680825  0.51856025  1
  Li  Li85  1  0.07061213  0.34607701  0.53772645  1
  Li  Li86  1  0.06756090  0.85073092  0.54868295  1
  Li  Li87  1  0.11091099  0.54715092  0.52914507  1
  Li  Li88  1  0.78778179  0.57920777  0.54768521  1
  Li  Li89  1  0.41526415  0.83994274  0.50722024  1
  Li  Li90  1  0.15476344  0.16891925  0.57897692  1
  Li  Li91  1  0.79647366  0.07532223  0.54017408  1
  Li  Li92  1  0.43682225  0.27393646  0.56964814  1
  Li  Li93  1  0.84182435  0.10936152  0.59754482  1
  Li  Li94  1  0.90622378  0.38029755  0.59184545  1
  Li  Li95  1  0.10821909  0.66026973  0.58404723  1
  P  P96  1  0.61530052  0.01348678  0.03347937  1
  P  P97  1  0.58455499  0.47604809  0.04296636  1
  P  P98  1  0.92108674  0.69188744  0.08864683  1
  P  P99  1  0.36831731  0.82350118  0.10319875  1
  P  P100  1  0.33532221  0.30712001  0.11355600  1
  P  P101  1  0.96226486  0.21317605  0.08047751  1
  P  P102  1  0.66645474  0.51507732  0.16087605  1
  P  P103  1  0.10673800  0.65132342  0.17751768  1
  P  P104  1  0.07819938  0.13060606  0.18562098  1
  P  P105  1  0.69879191  0.03579037  0.15146994  1
  P  P106  1  0.41281721  0.34118559  0.23214053  1
  P  P107  1  0.85032117  0.47694887  0.24971888  1
  P  P108  1  0.81998717  0.95711899  0.25721023  1
  P  P109  1  0.44147649  0.86100770  0.22354101  1
  P  P110  1  0.15520665  0.16687894  0.30387404  1
  P  P111  1  0.59244352  0.30283710  0.32134520  1
  P  P112  1  0.56302611  0.78286628  0.32935296  1
  P  P113  1  0.18435002  0.68703667  0.29593461  1
  P  P114  1  0.89698423  0.99279455  0.37545737  1
  P  P115  1  0.33437714  0.12859960  0.39315678  1
  P  P116  1  0.30582182  0.60894499  0.40167953  1
  P  P117  1  0.92764485  0.51249207  0.36804911  1
  P  P118  1  0.64037997  0.81821087  0.44781728  1
  P  P119  1  0.08019562  0.95518358  0.46428702  1
  P  P120  1  0.04829298  0.43391025  0.47392679  1
  P  P121  1  0.66889970  0.33928520  0.43963165  1
  P  P122  1  0.37838883  0.64634156  0.52210116  1
  P  P123  1  0.82551156  0.77802707  0.53664230  1
  P  P124  1  0.78562662  0.25651582  0.54474605  1
  P  P125  1  0.41225281  0.16269183  0.51154480  1
  P  P126  1  0.13242741  0.45575111  0.59183148  1
  P  P127  1  0.16253283  0.99371667  0.58214338  1
  O  O128  1  0.41088299  0.06099684  0.04614805  1
  O  O129  1  0.45135978  0.58175277  0.03193428  1
  O  O130  1  0.81602647  0.18856062  0.06315081  1
  O  O131  1  0.76198225  0.47998634  0.05862977  1
  O  O132  1  0.74964528  0.00038572  0.06321581  1
  O  O133  1  0.82035941  0.69317483  0.05853074  1
  O  O134  1  0.66808773  0.90809888  0.02006046  1
  O  O135  1  0.66083664  0.38876313  0.01892681  1
  O  O136  1  0.64313691  0.09291062  0.01338694  1
  O  O137  1  0.48611387  0.43464349  0.06755494  1
  O  O138  1  0.04887370  0.26565369  0.05837279  1
  O  O139  1  0.13869392  0.63232038  0.08529510  1
  O  O140  1  0.15030660  0.88984389  0.10503353  1
  O  O141  1  0.16570969  0.40762210  0.10264018  1
  O  O142  1  0.11633776  0.11287298  0.09383690  1
  O  O143  1  0.55607079  0.00789659  0.13358972  1
  O  O144  1  0.47904930  0.33371942  0.13136284  1
  O  O145  1  0.45113119  0.81573863  0.13606345  1
  O  O146  1  0.57061947  0.52104332  0.12971273  1
  O  O147  1  0.40969093  0.71624915  0.09034202  1
  O  O148  1  0.87713230  0.80266070  0.09986152  1
  O  O149  1  0.86452484  0.29091212  0.10692086  1
  O  O150  1  0.43068495  0.23926220  0.08550395  1
  O  O151  1  0.85234200  0.63583032  0.11252108  1
  O  O152  1  0.45205202  0.87753136  0.08122738  1
  O  O153  1  0.25653679  0.25091745  0.13595297  1
  O  O154  1  0.77760033  0.09232482  0.12927797  1
  O  O155  1  0.88401036  0.45148091  0.15807587  1
  O  O156  1  0.89025266  0.71526355  0.17998073  1
  O  O157  1  0.91444786  0.23013908  0.17321951  1
  O  O158  1  0.86447895  0.93610485  0.16321720  1
  O  O159  1  0.29752176  0.83348604  0.20601375  1
  O  O160  1  0.22103671  0.15938057  0.20293186  1
  O  O161  1  0.19729668  0.64403324  0.20974697  1
  O  O162  1  0.32230222  0.34934106  0.19991204  1
  O  O163  1  0.15157034  0.54202059  0.16583309  1
  O  O164  1  0.62316023  0.62402862  0.17301787  1
  O  O165  1  0.59975157  0.10631230  0.17902532  1
  O  O166  1  0.17712163  0.05793243  0.15840099  1
  O  O167  1  0.59126821  0.45978041  0.18423492  1
  O  O168  1  0.18745292  0.70553409  0.15483189  1
  O  O169  1  0.99663603  0.07686458  0.20817520  1
  O  O170  1  0.52275467  0.91458367  0.20072093  1
  O  O171  1  0.62933540  0.27680092  0.22966356  1
  O  O172  1  0.63391463  0.54068119  0.25233130  1
  O  O173  1  0.65562421  0.05660603  0.24505913  1
  O  O174  1  0.60429137  0.76149345  0.23595367  1
  O  O175  1  0.04068785  0.65900585  0.27851931  1
  O  O176  1  0.96317676  0.98534764  0.27471375  1
  O  O177  1  0.94145814  0.46875565  0.28191006  1
  O  O178  1  0.06456528  0.17530010  0.27164087  1
  O  O179  1  0.89524911  0.36819718  0.23738533  1
  O  O180  1  0.36810214  0.44969778  0.24457449  1
  O  O181  1  0.34295905  0.93388523  0.25071871  1
  O  O182  1  0.91859709  0.88540178  0.22982075  1
  O  O183  1  0.33204251  0.28619943  0.25449527  1
  O  O184  1  0.93056627  0.53200195  0.22732456  1
  O  O185  1  0.74033138  0.90222661  0.27976755  1
  O  O186  1  0.26435883  0.74149570  0.27325527  1
  O  O187  1  0.37161149  0.10281711  0.30131132  1
  O  O188  1  0.37597385  0.36683497  0.32387376  1
  O  O189  1  0.39952208  0.88243063  0.31704759  1
  O  O190  1  0.34812919  0.58751056  0.30819387  1
  O  O191  1  0.78435827  0.48439208  0.35053339  1
  O  O192  1  0.70655431  0.81071384  0.34687144  1
  O  O193  1  0.68275852  0.29463460  0.35360637  1
  O  O194  1  0.80608010  0.00102348  0.34325663  1
  O  O195  1  0.63674817  0.19430716  0.30893358  1
  O  O196  1  0.11089705  0.27540048  0.31628519  1
  O  O197  1  0.08571858  0.75932086  0.32319515  1
  O  O198  1  0.66146782  0.71058875  0.30209177  1
  O  O199  1  0.07430646  0.11198203  0.32619326  1
  O  O200  1  0.67361668  0.35767104  0.29904668  1
  O  O201  1  0.48253560  0.72858112  0.35200966  1
  O  O202  1  0.00732320  0.56745663  0.34552722  1
  O  O203  1  0.11334643  0.92908880  0.37280571  1
  O  O204  1  0.11779604  0.19307194  0.39552784  1
  O  O205  1  0.14323517  0.70842425  0.38919952  1
  O  O206  1  0.09219355  0.41292272  0.38012087  1
  O  O207  1  0.52582352  0.31084993  0.42226056  1
  O  O208  1  0.44958505  0.63640162  0.41928758  1
  O  O209  1  0.42447615  0.12076817  0.42540431  1
  O  O210  1  0.54899144  0.82531652  0.41565363  1
  O  O211  1  0.37917852  0.01996375  0.38079132  1
  O  O212  1  0.85170644  0.10160776  0.38775563  1
  O  O213  1  0.82882696  0.58399880  0.39546780  1
  O  O214  1  0.40451750  0.53618653  0.37448604  1
  O  O215  1  0.81697285  0.93760531  0.39784623  1
  O  O216  1  0.41536564  0.18345539  0.37078334  1
  O  O217  1  0.22409361  0.55536073  0.42441627  1
  O  O218  1  0.75104188  0.39276829  0.41708656  1
  O  O219  1  0.85687131  0.75445724  0.44517519  1
  O  O220  1  0.86258609  0.01830599  0.46710567  1
  O  O221  1  0.88240374  0.53354456  0.46221252  1
  O  O222  1  0.83219922  0.23962370  0.45200641  1
  O  O223  1  0.26874700  0.13613484  0.49364771  1
  O  O224  1  0.19083627  0.46203010  0.49177662  1
  O  O225  1  0.17565876  0.94940449  0.49548489  1
  O  O226  1  0.29592918  0.65434224  0.48919561  1
  O  O227  1  0.12418898  0.84612462  0.45213325  1
  O  O228  1  0.59531775  0.92772095  0.45933899  1
  O  O229  1  0.56974295  0.41223941  0.46677789  1
  O  O230  1  0.14738177  0.36367152  0.44630527  1
  O  O231  1  0.56046865  0.76412663  0.47068141  1
  O  O232  1  0.15469515  0.01062831  0.44089249  1
  O  O233  1  0.96987842  0.37703069  0.49605656  1
  O  O234  1  0.49106958  0.21917714  0.48927141  1
  O  O235  1  0.59631040  0.57963526  0.52037829  1
  O  O236  1  0.60781746  0.83789261  0.53977651  1
  O  O237  1  0.63086958  0.35670101  0.53141398  1
  O  O238  1  0.58163919  0.06203623  0.52241628  1
  O  O239  1  0.98559703  0.98952217  0.56638519  1
  O  O240  1  0.93054260  0.28161060  0.56232272  1
  O  O241  1  0.92534402  0.77732978  0.56679928  1
  O  O242  1  0.99679753  0.46902755  0.56227653  1
  O  O243  1  0.86941183  0.66695707  0.52574275  1
  O  O244  1  0.33733872  0.75352327  0.53499406  1
  O  O245  1  0.31643242  0.23038612  0.53960044  1
  O  O246  1  0.88407082  0.17924502  0.51821968  1
  O  O247  1  0.29413742  0.59238253  0.54401592  1
  O  O248  1  0.89515916  0.83337593  0.51266236  1
  O  O249  1  0.69919362  0.20341795  0.56664315  1
  O  O250  1  0.26068275  0.03570351  0.55767826  1
  O  O251  1  0.33624742  0.40873036  0.57889363  1
  O  O252  1  0.29629084  0.88809236  0.59314419  1
  O  O253  1  0.07950186  0.56112906  0.60528150  1
  O  O254  1  0.08575720  0.08066804  0.60626829  1
  O  O255  1  0.10600815  0.37601357  0.61199239  1
