# generated using pymatgen
data_Li3PO4
_symmetry_space_group_name_H-M   'P 1'
_cell_length_a   6.15119200
_cell_length_b   11.66978300
_cell_length_c   45.02262600
_cell_angle_alpha   90.00000000
_cell_angle_beta   90.00000000
_cell_angle_gamma   90.00000000
_symmetry_Int_Tables_number   1
_chemical_formula_structural   Li3PO4
_chemical_formula_sum   'Li72 P24 O96'
_cell_volume   3231.86257628
_cell_formula_units_Z   24
loop_
 _symmetry_equiv_pos_site_id
 _symmetry_equiv_pos_as_xyz
  1  'x, y, z'
loop_
 _atom_site_type_symbol
 _atom_site_label
 _atom_site_symmetry_multiplicity
 _atom_site_fract_x
 _atom_site_fract_y
 _atom_site_fract_z
 _atom_site_occupancy
  Li  Li0  1  0.50128368  0.72411711  0.05867858  1
  Li  Li1  1  0.48174617  0.07366878  0.04459894  1
  Li  Li2  1  0.50166553  0.49050111  0.09573689  1
  Li  Li3  1  0.51409748  0.32097750  0.01502333  1
  Li  Li4  1  0.98604066  0.32101629  0.01504652  1
  Li  Li5  1  0.99803066  0.49066851  0.09563966  1
  Li  Li6  1  0.01831224  0.07405373  0.04450094  1
  Li  Li7  1  0.99870628  0.72416405  0.05871866  1
  Li  Li8  1  0.75002761  0.87421263  0.00859169  1
  Li  Li9  1  0.25002614  0.90722380  0.08591280  1
  Li  Li10  1  0.24999717  0.54555379  0.02764335  1
  Li  Li11  1  0.74998478  0.29339861  0.07289851  1
  Li  Li12  1  0.49869580  0.54024302  0.16310724  1
  Li  Li13  1  0.50033309  0.91622582  0.13509207  1
  Li  Li14  1  0.50080497  0.30784459  0.19597983  1
  Li  Li15  1  0.50114048  0.14584604  0.10508071  1
  Li  Li16  1  0.99716767  0.14513511  0.10519304  1
  Li  Li17  1  0.99482125  0.30866751  0.19641839  1
  Li  Li18  1  0.99971246  0.91606848  0.13507265  1
  Li  Li19  1  0.00114238  0.54019503  0.16312684  1
  Li  Li20  1  0.74998918  0.71827422  0.11140339  1
  Li  Li21  1  0.25005714  0.73626093  0.18648438  1
  Li  Li22  1  0.24874077  0.34496029  0.12775344  1
  Li  Li23  1  0.74987768  0.11272442  0.17246595  1
  Li  Li24  1  0.49801280  0.35741420  0.26384925  1
  Li  Li25  1  0.50205492  0.73508218  0.23558630  1
  Li  Li26  1  0.50177445  0.12455949  0.29684729  1
  Li  Li27  1  0.49841170  0.96734260  0.20306352  1
  Li  Li28  1  0.00153632  0.96732795  0.20306005  1
  Li  Li29  1  0.99772150  0.12459069  0.29674600  1
  Li  Li30  1  0.99876828  0.73544386  0.23558207  1
  Li  Li31  1  0.00211014  0.35743473  0.26388529  1
  Li  Li32  1  0.74992891  0.54109110  0.21233490  1
  Li  Li33  1  0.25005998  0.55301211  0.28712356  1
  Li  Li34  1  0.24985511  0.16205088  0.22739928  1
  Li  Li35  1  0.74997346  0.93017913  0.27198657  1
  Li  Li36  1  0.49842437  0.17451343  0.36458064  1
  Li  Li37  1  0.50243564  0.55248414  0.33629312  1
  Li  Li38  1  0.50071121  0.94109809  0.39693242  1
  Li  Li39  1  0.49806794  0.78551338  0.30344626  1
  Li  Li40  1  0.00194858  0.78549777  0.30345391  1
  Li  Li41  1  0.99649497  0.94226520  0.39727032  1
  Li  Li42  1  0.99757765  0.55214556  0.33624686  1
  Li  Li43  1  0.00208018  0.17465474  0.36448893  1
  Li  Li44  1  0.75002594  0.35575468  0.31309982  1
  Li  Li45  1  0.25226590  0.37081227  0.38732612  1
  Li  Li46  1  0.24965840  0.97961556  0.32803887  1
  Li  Li47  1  0.74996222  0.74780610  0.37235257  1
  Li  Li48  1  0.49892623  0.99537232  0.46483199  1
  Li  Li49  1  0.50460064  0.36814944  0.43692892  1
  Li  Li50  1  0.50150718  0.76192562  0.49629523  1
  Li  Li51  1  0.49875084  0.60300605  0.40378572  1
  Li  Li52  1  0.00233033  0.60251600  0.40329315  1
  Li  Li53  1  0.00283615  0.76529392  0.49456482  1
  Li  Li54  1  0.00256396  0.36902541  0.43611219  1
  Li  Li55  1  0.99961949  0.99579639  0.46513871  1
  Li  Li56  1  0.75096001  0.17416723  0.41315894  1
  Li  Li57  1  0.25864844  0.18907042  0.49001612  1
  Li  Li58  1  0.24968204  0.79743770  0.42805965  1
  Li  Li59  1  0.75308902  0.56476547  0.47211330  1
  Li  Li60  1  0.51126142  0.82189505  0.55953914  1
  Li  Li61  1  0.47939996  0.16897947  0.55630061  1
  Li  Li62  1  0.52373794  0.46638004  0.59401374  1
  Li  Li63  1  0.49375846  0.42015082  0.50214781  1
  Li  Li64  1  0.01244472  0.41920508  0.50248638  1
  Li  Li65  1  0.01491817  0.59602209  0.58349202  1
  Li  Li66  1  0.00102040  0.18507119  0.53805980  1
  Li  Li67  1  0.97264366  0.83607363  0.55290502  1
  Li  Li68  1  0.73871047  0.00546917  0.51473429  1
  Li  Li69  1  0.23616594  0.02096194  0.59147472  1
  Li  Li70  1  0.25356432  0.61713785  0.52734809  1
  Li  Li71  1  0.76077196  0.37582405  0.55452795  1
  P  P72  1  0.25001851  0.87503169  0.02061924  1
  P  P73  1  0.75005037  0.94526487  0.07699866  1
  P  P74  1  0.74989872  0.51107156  0.04019999  1
  P  P75  1  0.24990091  0.30574347  0.05868098  1
  P  P76  1  0.25003948  0.68960612  0.12117862  1
  P  P77  1  0.75005057  0.76651850  0.17752631  1
  P  P78  1  0.74941418  0.33556945  0.13906130  1
  P  P79  1  0.24920836  0.12113436  0.15991491  1
  P  P80  1  0.25001446  0.50937684  0.22143018  1
  P  P81  1  0.75014329  0.58367477  0.27824237  1
  P  P82  1  0.74968333  0.15447512  0.23931222  1
  P  P83  1  0.25000980  0.93866079  0.26033064  1
  P  P84  1  0.25031756  0.32617517  0.32195138  1
  P  P85  1  0.75079014  0.40108012  0.37856181  1
  P  P86  1  0.74984573  0.97162403  0.33973235  1
  P  P87  1  0.24956772  0.75580011  0.36067333  1
  P  P88  1  0.25099806  0.14367113  0.42252873  1
  P  P89  1  0.75061024  0.22121062  0.47824457  1
  P  P90  1  0.74993953  0.78912660  0.44014184  1
  P  P91  1  0.25092976  0.57558050  0.46052431  1
  P  P92  1  0.25111422  0.96315033  0.52382500  1
  P  P93  1  0.74839160  0.03149204  0.57966652  1
  P  P94  1  0.74457191  0.60356925  0.54135256  1
  P  P95  1  0.24699561  0.39984550  0.55891528  1
  O  O96  1  0.46087991  0.84299141  0.00486284  1
  O  O97  1  0.54212125  0.98827874  0.09396353  1
  O  O98  1  0.54094629  0.58228471  0.03715285  1
  O  O99  1  0.45989287  0.22969992  0.05885246  1
  O  O100  1  0.03970620  0.22985237  0.05876981  1
  O  O101  1  0.95904026  0.58219313  0.03720582  1
  O  O102  1  0.95797149  0.98799650  0.09400492  1
  O  O103  1  0.03921202  0.84300061  0.00485082  1
  O  O104  1  0.74984962  0.81358049  0.07480615  1
  O  O105  1  0.25002809  0.00811790  0.02813074  1
  O  O106  1  0.24969719  0.39048179  0.08473408  1
  O  O107  1  0.75003608  0.40909267  0.01711126  1
  O  O108  1  0.24998721  0.81265572  0.05247502  1
  O  O109  1  0.75024124  0.00215346  0.04580319  1
  O  O110  1  0.74965602  0.45393084  0.07201391  1
  O  O111  1  0.25016983  0.36983044  0.02794903  1
  O  O112  1  0.45747755  0.65050656  0.10427676  1
  O  O113  1  0.54329326  0.80534073  0.19497117  1
  O  O114  1  0.54187438  0.41070780  0.13580863  1
  O  O115  1  0.45678170  0.04536262  0.16288441  1
  O  O116  1  0.04196692  0.04505630  0.16281884  1
  O  O117  1  0.95656810  0.41095872  0.13579982  1
  O  O118  1  0.95693336  0.80527506  0.19495814  1
  O  O119  1  0.04258790  0.65058243  0.10426895  1
  O  O120  1  0.74994036  0.63382196  0.17435813  1
  O  O121  1  0.25014729  0.82266197  0.12476224  1
  O  O122  1  0.24847412  0.21562588  0.18418411  1
  O  O123  1  0.74958786  0.24005462  0.11463238  1
  O  O124  1  0.24994555  0.63333816  0.15281472  1
  O  O125  1  0.75000171  0.82375400  0.14623610  1
  O  O126  1  0.74933603  0.27825152  0.17035814  1
  O  O127  1  0.24936026  0.17803545  0.12840195  1
  O  O128  1  0.45695938  0.47064906  0.20407349  1
  O  O129  1  0.54310950  0.62240611  0.29558319  1
  O  O130  1  0.54273580  0.23060898  0.23588714  1
  O  O131  1  0.45700047  0.86238744  0.26353431  1
  O  O132  1  0.04298757  0.86240863  0.26354041  1
  O  O133  1  0.95677420  0.23064115  0.23602121  1
  O  O134  1  0.95713920  0.62240001  0.29558692  1
  O  O135  1  0.04259506  0.47086576  0.20413708  1
  O  O136  1  0.75013977  0.45104002  0.27487917  1
  O  O137  1  0.25026937  0.64193134  0.22489135  1
  O  O138  1  0.24987807  0.03287101  0.28476788  1
  O  O139  1  0.75002041  0.05998605  0.21489705  1
  O  O140  1  0.25008052  0.45166915  0.25274540  1
  O  O141  1  0.75024419  0.64122354  0.24692618  1
  O  O142  1  0.74955297  0.09766880  0.27068229  1
  O  O143  1  0.24998088  0.99536603  0.22889292  1
  O  O144  1  0.45717258  0.28760461  0.30454907  1
  O  O145  1  0.54457314  0.44021743  0.39597218  1
  O  O146  1  0.54276739  0.04785654  0.33655352  1
  O  O147  1  0.45664018  0.67967032  0.36402395  1
  O  O148  1  0.04249989  0.67957649  0.36383481  1
  O  O149  1  0.95680034  0.04790892  0.33653513  1
  O  O150  1  0.95879313  0.43993518  0.39564570  1
  O  O151  1  0.04323309  0.28759298  0.30459986  1
  O  O152  1  0.75027288  0.26851293  0.37511539  1
  O  O153  1  0.25029222  0.45878826  0.32537756  1
  O  O154  1  0.24866564  0.84988208  0.38517064  1
  O  O155  1  0.74995042  0.87754442  0.31526791  1
  O  O156  1  0.25061449  0.26846812  0.35321917  1
  O  O157  1  0.74986947  0.45849373  0.34722400  1
  O  O158  1  0.74968684  0.91455142  0.37111954  1
  O  O159  1  0.25014756  0.81280299  0.32932890  1
  O  O160  1  0.45803397  0.10372063  0.40529197  1
  O  O161  1  0.54167574  0.26436887  0.49366439  1
  O  O162  1  0.54274743  0.86499706  0.43714649  1
  O  O163  1  0.45995207  0.50130946  0.46375826  1
  O  O164  1  0.04516203  0.49865467  0.46385080  1
  O  O165  1  0.95752607  0.86532298  0.43752458  1
  O  O166  1  0.95713701  0.25848349  0.49592509  1
  O  O167  1  0.04442344  0.10457551  0.40507616  1
  O  O168  1  0.74830790  0.08803708  0.47534687  1
  O  O169  1  0.25308810  0.27648292  0.42519384  1
  O  O170  1  0.24816571  0.67060170  0.48491851  1
  O  O171  1  0.75107365  0.69544560  0.41562280  1
  O  O172  1  0.24941692  0.08780069  0.45400867  1
  O  O173  1  0.75954466  0.27602978  0.44645487  1
  O  O174  1  0.75013997  0.73097496  0.47148554  1
  O  O175  1  0.24945027  0.63205188  0.42918835  1
  O  O176  1  0.45369231  0.92277424  0.50563139  1
  O  O177  1  0.52572101  0.06844859  0.59253162  1
  O  O178  1  0.54664877  0.68304885  0.53630707  1
  O  O179  1  0.46516528  0.33551961  0.56504391  1
  O  O180  1  0.04625247  0.32250673  0.56036437  1
  O  O181  1  0.96048351  0.67584885  0.54113150  1
  O  O182  1  0.94873596  0.05797668  0.59825886  1
  O  O183  1  0.03865961  0.92265663  0.50729232  1
  O  O184  1  0.74431158  0.89977246  0.57166809  1
  O  O185  1  0.25488755  0.09481503  0.52736842  1
  O  O186  1  0.23972294  0.49831634  0.58254790  1
  O  O187  1  0.75378905  0.50745451  0.51738373  1
  O  O188  1  0.25048262  0.90268916  0.55471004  1
  O  O189  1  0.75967782  0.09802303  0.54861094  1
  O  O190  1  0.73757327  0.54467460  0.57256995  1
  O  O191  1  0.25651518  0.45527391  0.52721532  1
