# generated using pymatgen
data_Li3PO4
_symmetry_space_group_name_H-M   'P 1'
_cell_length_a   6.15119200
_cell_length_b   14.50933100
_cell_length_c   43.45376800
_cell_angle_alpha   90.00000000
_cell_angle_beta   90.00000000
_cell_angle_gamma   90.00000000
_symmetry_Int_Tables_number   1
_chemical_formula_structural   Li3PO4
_chemical_formula_sum   'Li72 P24 O96'
_cell_volume   3878.23492236
_cell_formula_units_Z   24
loop_
 _symmetry_equiv_pos_site_id
 _symmetry_equiv_pos_as_xyz
  1  'x, y, z'
loop_
 _atom_site_type_symbol
 _atom_site_label
 _atom_site_symmetry_multiplicity
 _atom_site_fract_x
 _atom_site_fract_y
 _atom_site_fract_z
 _atom_site_occupancy
  Li  Li0  1  0.52155020  0.29790982  0.01601550  1
  Li  Li1  1  0.50680097  0.10721427  0.07986955  1
  Li  Li2  1  0.00702800  0.10879727  0.08014533  1
  Li  Li3  1  0.74966423  0.63326166  0.04358896  1
  Li  Li4  1  0.97878572  0.29745058  0.01619671  1
  Li  Li5  1  0.96456867  0.80822580  0.01213123  1
  Li  Li6  1  0.63208241  0.82134443  0.05226152  1
  Li  Li7  1  0.26853711  0.95639193  0.04942175  1
  Li  Li8  1  0.24487844  0.47486017  0.04010551  1
  Li  Li9  1  0.75149405  0.24966261  0.06804422  1
  Li  Li10  1  0.48769223  0.57960895  0.08979757  1
  Li  Li11  1  0.50718081  0.90292753  0.09591623  1
  Li  Li12  1  0.50641884  0.37532603  0.10665504  1
  Li  Li13  1  0.50027631  0.86904388  0.16510575  1
  Li  Li14  1  0.00422591  0.86915598  0.16402761  1
  Li  Li15  1  0.99411935  0.37475280  0.10678489  1
  Li  Li16  1  0.00041506  0.89636880  0.09132669  1
  Li  Li17  1  0.00730625  0.57879777  0.09055398  1
  Li  Li18  1  0.74773470  0.53771743  0.13840099  1
  Li  Li19  1  0.24918071  0.70835075  0.12836183  1
  Li  Li20  1  0.25225043  0.23069673  0.12369721  1
  Li  Li21  1  0.75309699  0.01154074  0.14625563  1
  Li  Li22  1  0.49719544  0.34617297  0.17462980  1
  Li  Li23  1  0.50217003  0.66368055  0.17782933  1
  Li  Li24  1  0.49978745  0.13539461  0.18717256  1
  Li  Li25  1  0.49753352  0.63391454  0.24915414  1
  Li  Li26  1  0.00244931  0.63382755  0.24914381  1
  Li  Li27  1  0.99695273  0.13625091  0.18753375  1
  Li  Li28  1  0.99374798  0.66291438  0.17769907  1
  Li  Li29  1  0.00212148  0.34623824  0.17474923  1
  Li  Li30  1  0.74819916  0.29758244  0.22234657  1
  Li  Li31  1  0.24864569  0.47367628  0.21394695  1
  Li  Li32  1  0.24828896  0.99396970  0.20489683  1
  Li  Li33  1  0.75008802  0.77396221  0.23034602  1
  Li  Li34  1  0.49773668  0.10806618  0.25748751  1
  Li  Li35  1  0.50181543  0.42563873  0.26199367  1
  Li  Li36  1  0.50320715  0.89894053  0.27040737  1
  Li  Li37  1  0.50054811  0.39749160  0.33232397  1
  Li  Li38  1  0.00188357  0.39748476  0.33210364  1
  Li  Li39  1  0.99607321  0.89906557  0.27045371  1
  Li  Li40  1  0.99547715  0.42465101  0.26190230  1
  Li  Li41  1  0.00295408  0.10819434  0.25769753  1
  Li  Li42  1  0.74999542  0.05941106  0.30545462  1
  Li  Li43  1  0.25053095  0.23589882  0.29707512  1
  Li  Li44  1  0.24981968  0.75852070  0.28908708  1
  Li  Li45  1  0.75030089  0.53917873  0.31449219  1
  Li  Li46  1  0.49673697  0.86992686  0.34175720  1
  Li  Li47  1  0.50227664  0.18641754  0.34449440  1
  Li  Li48  1  0.49993992  0.66393373  0.35460565  1
  Li  Li49  1  0.49280287  0.15735132  0.41239925  1
  Li  Li50  1  0.00376457  0.15880682  0.41236598  1
  Li  Li51  1  0.99716125  0.66252869  0.35550500  1
  Li  Li52  1  0.99755718  0.18682571  0.34433386  1
  Li  Li53  1  0.00475922  0.86982610  0.34182422  1
  Li  Li54  1  0.75111833  0.82375804  0.39071297  1
  Li  Li55  1  0.25167677  0.99426422  0.38088746  1
  Li  Li56  1  0.24700668  0.52130267  0.37339772  1
  Li  Li57  1  0.74724658  0.30257496  0.39577543  1
  Li  Li58  1  0.49414782  0.63072597  0.42367409  1
  Li  Li59  1  0.51205527  0.95294729  0.42903124  1
  Li  Li60  1  0.49469107  0.42542328  0.43985382  1
  Li  Li61  1  0.25186565  0.89913036  0.47516540  1
  Li  Li62  1  0.99555710  0.42320571  0.43933492  1
  Li  Li63  1  0.99176676  0.95376440  0.42858356  1
  Li  Li64  1  0.00016852  0.63639557  0.42810252  1
  Li  Li65  1  0.73399844  0.57675198  0.46996865  1
  Li  Li66  1  0.37219540  0.70983136  0.46720332  1
  Li  Li67  1  0.24993623  0.28238570  0.45130388  1
  Li  Li68  1  0.75229679  0.05854487  0.47862572  1
  Li  Li69  1  0.47866097  0.23542502  0.50350197  1
  Li  Li70  1  0.03668029  0.72586334  0.50723667  1
  Li  Li71  1  0.02311557  0.23556609  0.50304753  1
  P  P72  1  0.26350989  0.72972799  0.05816943  1
  P  P73  1  0.76890333  0.99119682  0.03753228  1
  P  P74  1  0.74750298  0.44460314  0.05053989  1
  P  P75  1  0.25109324  0.27571505  0.05647892  1
  P  P76  1  0.24904215  0.50516566  0.14601120  1
  P  P77  1  0.74881122  0.74121137  0.12099366  1
  P  P78  1  0.75130597  0.21238570  0.13429791  1
  P  P79  1  0.25044648  0.02932101  0.13520832  1
  P  P80  1  0.24941922  0.26594359  0.22907193  1
  P  P81  1  0.74889997  0.50504846  0.20716652  1
  P  P82  1  0.75042975  0.97625669  0.21629989  1
  P  P83  1  0.24962914  0.79216720  0.21909355  1
  P  P84  1  0.25026945  0.02792564  0.31219201  1
  P  P85  1  0.74994377  0.26719905  0.29042437  1
  P  P86  1  0.75019850  0.74069629  0.30058735  1
  P  P87  1  0.24932679  0.55644233  0.30317846  1
  P  P88  1  0.25139485  0.79126299  0.39848854  1
  P  P89  1  0.75082249  0.02748862  0.37322949  1
  P  P90  1  0.74972569  0.50366735  0.38438126  1
  P  P91  1  0.24870381  0.32055111  0.38508324  1
  P  P92  1  0.23144729  0.54147822  0.48196104  1
  P  P93  1  0.73766180  0.80291301  0.46091978  1
  P  P94  1  0.74907528  0.25698553  0.46294272  1
  P  P95  1  0.25160943  0.08824763  0.46846511  1
  O  O96  1  0.48384519  0.71131953  0.04179535  1
  O  O97  1  0.56363515  0.98648747  0.06044071  1
  O  O98  1  0.54275270  0.50761955  0.05130575  1
  O  O99  1  0.46120699  0.21819213  0.05234646  1
  O  O100  1  0.04084622  0.21852013  0.05241694  1
  O  O101  1  0.94706376  0.51128760  0.05106789  1
  O  O102  1  0.97793910  0.99336564  0.05922271  1
  O  O103  1  0.06277017  0.71604363  0.03690571  1
  O  O104  1  0.77207596  0.89404053  0.02160808  1
  O  O105  1  0.27022225  0.83266132  0.07026612  1
  O  O106  1  0.75054537  0.38003546  0.02179381  1
  O  O107  1  0.75651446  0.07274996  0.01637719  1
  O  O108  1  0.75151984  0.38131294  0.07965849  1
  O  O109  1  0.25036460  0.34630316  0.02869162  1
  O  O110  1  0.45567811  0.49344015  0.12559032  1
  O  O111  1  0.54296691  0.75251521  0.14183056  1
  O  O112  1  0.54513867  0.27442957  0.13739921  1
  O  O113  1  0.45851960  0.96794095  0.13308998  1
  O  O114  1  0.04616521  0.96656075  0.13138690  1
  O  O115  1  0.95820225  0.27386363  0.13764969  1
  O  O116  1  0.95538776  0.75244139  0.14162071  1
  O  O117  1  0.04149892  0.49304922  0.12577468  1
  O  O118  1  0.74820018  0.64333086  0.10597685  1
  O  O119  1  0.24874473  0.60287579  0.16049044  1
  O  O120  1  0.25104673  0.32551215  0.08788845  1
  O  O121  1  0.75289929  0.16340202  0.10256726  1
  O  O122  1  0.24374655  0.66271989  0.08639095  1
  O  O123  1  0.74772139  0.81730086  0.09570037  1
  O  O124  1  0.74949537  0.13883663  0.16041108  1
  O  O125  1  0.25577557  0.10266161  0.10893120  1
  O  O126  1  0.45558872  0.25317635  0.20859562  1
  O  O127  1  0.54233204  0.51742992  0.22758238  1
  O  O128  1  0.54246624  0.03728611  0.21933575  1
  O  O129  1  0.45741158  0.73106911  0.21607816  1
  O  O130  1  0.04246908  0.73078327  0.21601321  1
  O  O131  1  0.95694735  0.03788712  0.21974488  1
  O  O132  1  0.95590665  0.51750805  0.22749324  1
  O  O133  1  0.04189224  0.25340109  0.20887862  1
  O  O134  1  0.74922398  0.40699135  0.19269777  1
  O  O135  1  0.24966712  0.36394175  0.24357168  1
  O  O136  1  0.24580846  0.07816439  0.16710829  1
  O  O137  1  0.75300584  0.92748120  0.18441934  1
  O  O138  1  0.24970865  0.42968740  0.17157744  1
  O  O139  1  0.74823987  0.57940634  0.18116650  1
  O  O140  1  0.74968088  0.90277369  0.24257176  1
  O  O141  1  0.24998629  0.86492551  0.19260144  1
  O  O142  1  0.45689382  0.01554139  0.29179225  1
  O  O143  1  0.54389561  0.27978565  0.31091484  1
  O  O144  1  0.54250960  0.80184095  0.30355491  1
  O  O145  1  0.45715845  0.49533447  0.30011768  1
  O  O146  1  0.04237846  0.49503774  0.29978389  1
  O  O147  1  0.95743543  0.80204448  0.30355306  1
  O  O148  1  0.95751439  0.28001295  0.31058645  1
  O  O149  1  0.04317855  0.01544461  0.29190234  1
  O  O150  1  0.74990263  0.16915720  0.27595834  1
  O  O151  1  0.25011552  0.12601303  0.32660264  1
  O  O152  1  0.24946445  0.84089998  0.25095899  1
  O  O153  1  0.75018462  0.69170152  0.26873619  1
  O  O154  1  0.25030821  0.19123766  0.25492537  1
  O  O155  1  0.74856693  0.34178659  0.26454775  1
  O  O156  1  0.75009915  0.66797081  0.32709386  1
  O  O157  1  0.25010110  0.62980580  0.27687185  1
  O  O158  1  0.45721801  0.78033344  0.37763681  1
  O  O159  1  0.54373300  0.03901789  0.39355533  1
  O  O160  1  0.54190582  0.56511336  0.38659498  1
  O  O161  1  0.45474198  0.25852100  0.38181894  1
  O  O162  1  0.04139862  0.25928760  0.38169507  1
  O  O163  1  0.95445380  0.56618728  0.38813804  1
  O  O164  1  0.95812126  0.03961260  0.39347813  1
  O  O165  1  0.04520543  0.77989415  0.37781596  1
  O  O166  1  0.75113199  0.92972875  0.35879376  1
  O  O167  1  0.25127473  0.88912563  0.41350690  1
  O  O168  1  0.24770970  0.60517764  0.33506917  1
  O  O169  1  0.75356182  0.45496620  0.35243652  1
  O  O170  1  0.25089888  0.95353021  0.33819036  1
  O  O171  1  0.75007903  0.10303475  0.34769132  1
  O  O172  1  0.74492609  0.43013599  0.41059974  1
  O  O173  1  0.25021146  0.39436121  0.35906077  1
  O  O174  1  0.43784625  0.54718115  0.45924466  1
  O  O175  1  0.51769960  0.82097462  0.47742963  1
  O  O176  1  0.53960209  0.31486441  0.46718054  1
  O  O177  1  0.45565712  0.02469936  0.46764294  1
  O  O178  1  0.05129341  0.02210585  0.46799545  1
  O  O179  1  0.96004311  0.31380749  0.46685616  1
  O  O180  1  0.93909415  0.81697357  0.48200123  1
  O  O181  1  0.02353053  0.53899832  0.46008587  1
  O  O182  1  0.73120344  0.69984121  0.44893017  1
  O  O183  1  0.22647252  0.63848087  0.49799919  1
  O  O184  1  0.24829178  0.36917205  0.41688057  1
  O  O185  1  0.74754253  0.20713798  0.43152516  1
  O  O186  1  0.25301474  0.71523716  0.42376945  1
  O  O187  1  0.75582453  0.86964728  0.43260646  1
  O  O188  1  0.74987689  0.18649682  0.49073530  1
  O  O189  1  0.24808374  0.15155489  0.43934531  1
  O  O190  1  0.25054392  0.15300039  0.49718561  1
  O  O191  1  0.24411231  0.45949318  0.50293277  1
