# generated using pymatgen
data_Li3PO4
_symmetry_space_group_name_H-M   'P 1'
_cell_length_a   6.15119200
_cell_length_b   11.66978300
_cell_length_c   45.02262600
_cell_angle_alpha   90.00000000
_cell_angle_beta   90.00000000
_cell_angle_gamma   90.00000000
_symmetry_Int_Tables_number   1
_chemical_formula_structural   Li3PO4
_chemical_formula_sum   'Li66 P22 O88'
_cell_volume   3231.86257628
_cell_formula_units_Z   22
loop_
 _symmetry_equiv_pos_site_id
 _symmetry_equiv_pos_as_xyz
  1  'x, y, z'
loop_
 _atom_site_type_symbol
 _atom_site_label
 _atom_site_symmetry_multiplicity
 _atom_site_fract_x
 _atom_site_fract_y
 _atom_site_fract_z
 _atom_site_occupancy
  Li  Li0  1  0.53601477  0.72178634  0.05297948  1
  Li  Li1  1  0.52106465  0.30829417  0.01390511  1
  Li  Li2  1  0.50408652  0.50995179  0.08895674  1
  Li  Li3  1  0.50309006  0.16247339  0.09227453  1
  Li  Li4  1  0.99691435  0.16246903  0.09227570  1
  Li  Li5  1  0.99592502  0.50991899  0.08892905  1
  Li  Li6  1  0.97894338  0.30829205  0.01390536  1
  Li  Li7  1  0.96398375  0.72178304  0.05298140  1
  Li  Li8  1  0.25000408  0.95678354  0.08144125  1
  Li  Li9  1  0.25000115  0.53939137  0.01924980  1
  Li  Li10  1  0.75011403  0.31721370  0.06690061  1
  Li  Li11  1  0.49647392  0.55673507  0.15489445  1
  Li  Li12  1  0.51009784  0.93572501  0.12584442  1
  Li  Li13  1  0.50067051  0.32279372  0.18766090  1
  Li  Li14  1  0.49841992  0.98291236  0.19406280  1
  Li  Li15  1  0.00150457  0.98291020  0.19414190  1
  Li  Li16  1  0.99949932  0.32280421  0.18766070  1
  Li  Li17  1  0.98992382  0.93573360  0.12584774  1
  Li  Li18  1  0.00358435  0.55685861  0.15484649  1
  Li  Li19  1  0.74999846  0.74712598  0.10258169  1
  Li  Li20  1  0.25001024  0.75299370  0.17789073  1
  Li  Li21  1  0.25000986  0.35929743  0.11932984  1
  Li  Li22  1  0.75002096  0.12770456  0.16275493  1
  Li  Li23  1  0.49747091  0.37308922  0.25480105  1
  Li  Li24  1  0.50237090  0.75165090  0.22714012  1
  Li  Li25  1  0.50158110  0.14082299  0.28774735  1
  Li  Li26  1  0.49796330  0.80002620  0.29510783  1
  Li  Li27  1  0.00201434  0.80001945  0.29510906  1
  Li  Li28  1  0.99842364  0.14083111  0.28774634  1
  Li  Li29  1  0.99821701  0.75134960  0.22720203  1
  Li  Li30  1  0.00252648  0.37307593  0.25480264  1
  Li  Li31  1  0.75001326  0.55522617  0.20392254  1
  Li  Li32  1  0.25000099  0.56806285  0.27844359  1
  Li  Li33  1  0.25055858  0.17521922  0.21832991  1
  Li  Li34  1  0.75015349  0.94557754  0.26378040  1
  Li  Li35  1  0.49805080  0.18827866  0.35535362  1
  Li  Li36  1  0.50136798  0.56824086  0.32748709  1
  Li  Li37  1  0.50269553  0.95552030  0.38852900  1
  Li  Li38  1  0.49925592  0.61593634  0.39506884  1
  Li  Li39  1  0.00072054  0.61592487  0.39506969  1
  Li  Li40  1  0.99728531  0.95552984  0.38852645  1
  Li  Li41  1  0.99859920  0.56823507  0.32748844  1
  Li  Li42  1  0.00125948  0.18852066  0.35532128  1
  Li  Li43  1  0.74988241  0.37192059  0.30373077  1
  Li  Li44  1  0.24996591  0.38526146  0.37887090  1
  Li  Li45  1  0.24977209  0.99398781  0.31883457  1
  Li  Li46  1  0.74998876  0.76219371  0.36442980  1
  Li  Li47  1  0.48903792  0.00406652  0.45676778  1
  Li  Li48  1  0.50257464  0.38308184  0.42789852  1
  Li  Li49  1  0.49635272  0.77688256  0.49058684  1
  Li  Li50  1  0.49725753  0.42986891  0.49387000  1
  Li  Li51  1  0.00272190  0.42987070  0.49386952  1
  Li  Li52  1  0.00374482  0.77695279  0.49058225  1
  Li  Li53  1  0.99739718  0.38308271  0.42789758  1
  Li  Li54  1  0.01093170  0.00403701  0.45675788  1
  Li  Li55  1  0.74998876  0.18816624  0.40488404  1
  Li  Li56  1  0.24978707  0.19311850  0.48016868  1
  Li  Li57  1  0.24999381  0.81045826  0.42000889  1
  Li  Li58  1  0.74999581  0.58163578  0.46356637  1
  Li  Li59  1  0.47748517  0.63154131  0.56904187  1
  Li  Li60  1  0.46577149  0.21747349  0.52971160  1
  Li  Li61  1  0.03421699  0.21746971  0.52971424  1
  Li  Li62  1  0.02250625  0.63154914  0.56904156  1
  Li  Li63  1  0.74999096  0.98243754  0.50072893  1
  Li  Li64  1  0.24999107  0.62351889  0.51609430  1
  Li  Li65  1  0.74999033  0.39916295  0.56353367  1
  P  P66  1  0.75002149  0.96658258  0.06526353  1
  P  P67  1  0.74999779  0.52320566  0.03080027  1
  P  P68  1  0.25002143  0.32790322  0.05346067  1
  P  P69  1  0.25000243  0.71248686  0.11144662  1
  P  P70  1  0.75003996  0.78172616  0.16908451  1
  P  P71  1  0.75004353  0.35145166  0.13131696  1
  P  P72  1  0.24999701  0.13564957  0.15059871  1
  P  P73  1  0.25005830  0.52564481  0.21275229  1
  P  P74  1  0.74998923  0.59888582  0.26933200  1
  P  P75  1  0.75014573  0.16890751  0.23051821  1
  P  P76  1  0.25004096  0.95361005  0.25163598  1
  P  P77  1  0.24996667  0.34170064  0.31308177  1
  P  P78  1  0.74987490  0.41459391  0.36970876  1
  P  P79  1  0.74994640  0.98591254  0.33104807  1
  P  P80  1  0.24997190  0.77033577  0.35229801  1
  P  P81  1  0.24995302  0.15819276  0.41351899  1
  P  P82  1  0.74995587  0.22714945  0.47126044  1
  P  P83  1  0.74997286  0.80386128  0.43216768  1
  P  P84  1  0.24999145  0.58779430  0.45151462  1
  P  P85  1  0.24998728  0.97332272  0.51748844  1
  P  P86  1  0.75000258  0.61247295  0.52957403  1
  P  P87  1  0.24996924  0.41646063  0.55184978  1
  O  O88  1  0.45630654  0.67477195  0.09371704  1
  O  O89  1  0.54487624  0.99931540  0.08505515  1
  O  O90  1  0.54200107  0.59673727  0.02585976  1
  O  O91  1  0.46104864  0.25594762  0.05567340  1
  O  O92  1  0.03898339  0.25594889  0.05567843  1
  O  O93  1  0.95800510  0.59673540  0.02586305  1
  O  O94  1  0.95514583  0.99930518  0.08505963  1
  O  O95  1  0.04364758  0.67475042  0.09372693  1
  O  O96  1  0.75001199  0.83016592  0.06331548  1
  O  O97  1  0.25003238  0.42504030  0.07684509  1
  O  O98  1  0.75000953  0.41221105  0.01135190  1
  O  O99  1  0.75007350  0.02396278  0.03549269  1
  O  O100  1  0.74997660  0.48324017  0.06425710  1
  O  O101  1  0.25000487  0.37670934  0.02069200  1
  O  O102  1  0.45688799  0.48671134  0.19543686  1
  O  O103  1  0.54299986  0.82014443  0.18641171  1
  O  O104  1  0.54326286  0.42808552  0.12791904  1
  O  O105  1  0.45714287  0.05967006  0.15426022  1
  O  O106  1  0.04288492  0.05966959  0.15427598  1
  O  O107  1  0.95678814  0.42809853  0.12791046  1
  O  O108  1  0.95703482  0.82007412  0.18643084  1
  O  O109  1  0.04320679  0.48682702  0.19542320  1
  O  O110  1  0.74996231  0.64919048  0.16558173  1
  O  O111  1  0.24999889  0.84460102  0.11523921  1
  O  O112  1  0.25007789  0.23130984  0.17473759  1
  O  O113  1  0.75003291  0.25584034  0.10733671  1
  O  O114  1  0.25007470  0.65269618  0.14246260  1
  O  O115  1  0.75005351  0.83959321  0.13785223  1
  O  O116  1  0.75007818  0.29546551  0.16273434  1
  O  O117  1  0.24998561  0.18999503  0.11887974  1
  O  O118  1  0.45683094  0.30348202  0.29563665  1
  O  O119  1  0.54302887  0.63708869  0.28674934  1
  O  O120  1  0.54270968  0.24502298  0.22724592  1
  O  O121  1  0.45704811  0.87752752  0.25506340  1
  O  O122  1  0.04302960  0.87751256  0.25506261  1
  O  O123  1  0.95773008  0.24491104  0.22726026  1
  O  O124  1  0.95696338  0.63708899  0.28674799  1
  O  O125  1  0.04308598  0.30348518  0.29563888  1
  O  O126  1  0.74998205  0.46635593  0.26571325  1
  O  O127  1  0.25025288  0.65826585  0.21598206  1
  O  O128  1  0.24998888  0.04848833  0.27589931  1
  O  O129  1  0.75000415  0.07449972  0.20614959  1
  O  O130  1  0.24996092  0.46806473  0.24404461  1
  O  O131  1  0.75004991  0.65700320  0.23811191  1
  O  O132  1  0.75003723  0.11258346  0.26197499  1
  O  O133  1  0.25004189  0.00928614  0.22009673  1
  O  O134  1  0.45707335  0.11971006  0.39620923  1
  O  O135  1  0.54328484  0.45306008  0.38716681  1
  O  O136  1  0.54300399  0.06210793  0.32765255  1
  O  O137  1  0.45734185  0.69419802  0.35547883  1
  O  O138  1  0.04261087  0.69418823  0.35548503  1
  O  O139  1  0.95686975  0.06212435  0.32765668  1
  O  O140  1  0.95647900  0.45302295  0.38716913  1
  O  O141  1  0.04287228  0.11973216  0.39619798  1
  O  O142  1  0.74983642  0.28197548  0.36639536  1
  O  O143  1  0.24997764  0.47428433  0.31665424  1
  O  O144  1  0.24997612  0.86441819  0.37672054  1
  O  O145  1  0.74999102  0.89137614  0.30670428  1
  O  O146  1  0.24993839  0.28354027  0.34431261  1
  O  O147  1  0.74991321  0.47252332  0.33845905  1
  O  O148  1  0.74996708  0.92925017  0.36246975  1
  O  O149  1  0.24993920  0.82700605  0.32088172  1
  O  O150  1  0.45498679  0.94056201  0.49765944  1
  O  O151  1  0.54379802  0.26466601  0.48903984  1
  O  O152  1  0.54269524  0.87964940  0.42843362  1
  O  O153  1  0.45697411  0.51143966  0.45491904  1
  O  O154  1  0.04299812  0.51144441  0.45491664  1
  O  O155  1  0.95725853  0.87963640  0.42842573  1
  O  O156  1  0.95610192  0.26467756  0.48904342  1
  O  O157  1  0.04499165  0.94058844  0.49765429  1
  O  O158  1  0.74998063  0.09512084  0.46727810  1
  O  O159  1  0.24997687  0.29080957  0.41698297  1
  O  O160  1  0.24999873  0.68356430  0.47546597  1
  O  O161  1  0.74995208  0.70784005  0.40810061  1
  O  O162  1  0.24990529  0.10073289  0.44481225  1
  O  O163  1  0.74997991  0.28761869  0.44032865  1
  O  O164  1  0.74999504  0.75010303  0.46396655  1
  O  O165  1  0.24998901  0.64348024  0.42005148  1
  O  O166  1  0.53884064  0.68439330  0.52736269  1
  O  O167  1  0.45805861  0.34291037  0.55671090  1
  O  O168  1  0.04188378  0.34290553  0.55670899  1
  O  O169  1  0.96113589  0.68441110  0.52736025  1
  O  O170  1  0.24999309  0.10974949  0.51946381  1
  O  O171  1  0.24997486  0.52701775  0.57146278  1
  O  O172  1  0.74999131  0.51577547  0.50604120  1
  O  O173  1  0.24996356  0.91596808  0.54726409  1
  O  O174  1  0.75000565  0.56311639  0.56227814  1
  O  O175  1  0.24997601  0.45702210  0.51845133  1
