# generated using pymatgen
data_Li3PO4
_symmetry_space_group_name_H-M   'P 1'
_cell_length_a   6.15119200
_cell_length_b   14.50933100
_cell_length_c   43.45376800
_cell_angle_alpha   90.00000000
_cell_angle_beta   90.00000000
_cell_angle_gamma   90.00000000
_symmetry_Int_Tables_number   1
_chemical_formula_structural   Li3PO4
_chemical_formula_sum   'Li84 P28 O112'
_cell_volume   3878.23492236
_cell_formula_units_Z   28
loop_
 _symmetry_equiv_pos_site_id
 _symmetry_equiv_pos_as_xyz
  1  'x, y, z'
loop_
 _atom_site_type_symbol
 _atom_site_label
 _atom_site_symmetry_multiplicity
 _atom_site_fract_x
 _atom_site_fract_y
 _atom_site_fract_z
 _atom_site_occupancy
  Li  Li0  1  0.49458255  0.61783001  0.08583452  1
  Li  Li1  1  0.55384919  0.17970011  0.00138849  1
  Li  Li2  1  0.52369513  0.61878702  0.01632488  1
  Li  Li3  1  0.49796775  0.13591431  0.07084151  1
  Li  Li4  1  0.00253895  0.13533073  0.07262622  1
  Li  Li5  1  0.97656304  0.61882650  0.01629394  1
  Li  Li6  1  0.00281070  0.13056401  0.01377568  1
  Li  Li7  1  0.00676250  0.61747429  0.08573587  1
  Li  Li8  1  0.74792937  0.79965194  0.03765551  1
  Li  Li9  1  0.26013031  0.96529516  0.03669266  1
  Li  Li10  1  0.25098368  0.47097658  0.04373742  1
  Li  Li11  1  0.75316489  0.27265938  0.05068846  1
  Li  Li12  1  0.49939872  0.37571228  0.16372862  1
  Li  Li13  1  0.50574688  0.92197604  0.08270496  1
  Li  Li14  1  0.50695797  0.40625193  0.09046484  1
  Li  Li15  1  0.49806431  0.90187404  0.15541136  1
  Li  Li16  1  0.00222316  0.90284866  0.15506498  1
  Li  Li17  1  0.99537338  0.40602393  0.09046089  1
  Li  Li18  1  0.00015122  0.91954528  0.08262273  1
  Li  Li19  1  0.00149639  0.37598626  0.16367961  1
  Li  Li20  1  0.75013071  0.56135627  0.13089672  1
  Li  Li21  1  0.25030873  0.74223157  0.12166068  1
  Li  Li22  1  0.25187918  0.26471135  0.10995092  1
  Li  Li23  1  0.74809592  0.04182195  0.13548267  1
  Li  Li24  1  0.49791701  0.13776533  0.24776660  1
  Li  Li25  1  0.50375583  0.69105379  0.16842663  1
  Li  Li26  1  0.50169794  0.16586602  0.17613264  1
  Li  Li27  1  0.49729561  0.66228370  0.23934240  1
  Li  Li28  1  0.00279799  0.66229731  0.23947382  1
  Li  Li29  1  0.99758569  0.16604015  0.17613014  1
  Li  Li30  1  0.99683156  0.69112514  0.16842415  1
  Li  Li31  1  0.00152018  0.13780366  0.24782590  1
  Li  Li32  1  0.75002361  0.32669682  0.21214293  1
  Li  Li33  1  0.25087509  0.50074828  0.20519920  1
  Li  Li34  1  0.24844176  0.02453588  0.19575409  1
  Li  Li35  1  0.74994820  0.80352765  0.22025111  1
  Li  Li36  1  0.49770908  0.90083205  0.33109945  1
  Li  Li37  1  0.50255059  0.45188831  0.25221792  1
  Li  Li38  1  0.50243599  0.92838955  0.26025465  1
  Li  Li39  1  0.49710528  0.42391919  0.32323454  1
  Li  Li40  1  0.00295518  0.42389913  0.32323090  1
  Li  Li41  1  0.99614146  0.92839660  0.26025867  1
  Li  Li42  1  0.99749599  0.45188702  0.25220949  1
  Li  Li43  1  0.00220909  0.90085239  0.33109848  1
  Li  Li44  1  0.74993240  0.08920443  0.29632365  1
  Li  Li45  1  0.24997545  0.26361070  0.28683927  1
  Li  Li46  1  0.24993711  0.78710486  0.27907337  1
  Li  Li47  1  0.75000889  0.56539442  0.30422365  1
  Li  Li48  1  0.49680114  0.66067900  0.41484639  1
  Li  Li49  1  0.50194432  0.21504289  0.33581445  1
  Li  Li50  1  0.50231817  0.69020008  0.34413298  1
  Li  Li51  1  0.49954509  0.18688687  0.40729312  1
  Li  Li52  1  0.00257915  0.18658266  0.40717940  1
  Li  Li53  1  0.99764387  0.69021935  0.34413338  1
  Li  Li54  1  0.99801899  0.21504129  0.33580395  1
  Li  Li55  1  0.00256432  0.66068990  0.41498545  1
  Li  Li56  1  0.74987931  0.85227731  0.37832529  1
  Li  Li57  1  0.25000648  0.02651079  0.37106520  1
  Li  Li58  1  0.24997891  0.54895273  0.36297965  1
  Li  Li59  1  0.75017168  0.32743748  0.38781831  1
  Li  Li60  1  0.49510399  0.43074029  0.50028397  1
  Li  Li61  1  0.50087045  0.97647615  0.41986120  1
  Li  Li62  1  0.50272765  0.44915063  0.42810862  1
  Li  Li63  1  0.49265686  0.94573184  0.49274645  1
  Li  Li64  1  0.00446706  0.94575905  0.49260510  1
  Li  Li65  1  0.99736764  0.44894972  0.42833101  1
  Li  Li66  1  0.99948487  0.97647868  0.41989968  1
  Li  Li67  1  0.00003577  0.43239028  0.50082882  1
  Li  Li68  1  0.74860609  0.60890774  0.46179733  1
  Li  Li69  1  0.24980558  0.79100038  0.45222514  1
  Li  Li70  1  0.25118287  0.30977699  0.44807193  1
  Li  Li71  1  0.74911278  0.08683652  0.47320858  1
  Li  Li72  1  0.44575181  0.16911284  0.58205223  1
  Li  Li73  1  0.50735133  0.73423486  0.49747883  1
  Li  Li74  1  0.50235703  0.21664878  0.51249045  1
  Li  Li75  1  0.47460698  0.73322480  0.56711186  1
  Li  Li76  1  0.02366603  0.73328896  0.56708990  1
  Li  Li77  1  0.99788884  0.21651387  0.51043989  1
  Li  Li78  1  0.99248807  0.73428516  0.49747991  1
  Li  Li79  1  0.99713729  0.22083038  0.56899683  1
  Li  Li80  1  0.73893802  0.38659387  0.54624613  1
  Li  Li81  1  0.25108765  0.55135100  0.54591377  1
  Li  Li82  1  0.24752436  0.07905242  0.53214758  1
  Li  Li83  1  0.74864539  0.88090993  0.53985893  1
  P  P84  1  0.24908795  0.75747892  0.05061048  1
  P  P85  1  0.74475056  0.00529936  0.02642408  1
  P  P86  1  0.75069921  0.49504233  0.04042216  1
  P  P87  1  0.25032670  0.29681707  0.03915433  1
  P  P88  1  0.25032234  0.52998040  0.13707737  1
  P  P89  1  0.75064328  0.77186086  0.11426805  1
  P  P90  1  0.75025444  0.24554171  0.12152210  1
  P  P91  1  0.25005109  0.05831250  0.12441002  1
  P  P92  1  0.24994288  0.29440296  0.21843094  1
  P  P93  1  0.75035592  0.53338967  0.19807598  1
  P  P94  1  0.74941570  0.00819900  0.20612140  1
  P  P95  1  0.24956328  0.82194399  0.20943390  1
  P  P96  1  0.24989539  0.05766533  0.30231863  1
  P  P97  1  0.74991449  0.29541804  0.28104635  1
  P  P98  1  0.74986854  0.76912747  0.29016064  1
  P  P99  1  0.25004383  0.58315070  0.29336955  1
  P  P100  1  0.24982034  0.81936766  0.38530688  1
  P  P101  1  0.74995682  0.05844380  0.36498160  1
  P  P102  1  0.75021937  0.53017584  0.37403844  1
  P  P103  1  0.24995955  0.34427187  0.37741090  1
  P  P104  1  0.24905438  0.58026761  0.46903611  1
  P  P105  1  0.74960225  0.82205129  0.44616254  1
  P  P106  1  0.75011075  0.29369153  0.45896667  1
  P  P107  1  0.25057024  0.10668062  0.46169493  1
  P  P108  1  0.25608450  0.34585450  0.55678508  1
  P  P109  1  0.75072142  0.59461313  0.53287994  1
  P  P110  1  0.74992769  0.05501204  0.54381992  1
  P  P111  1  0.24914979  0.85691090  0.54273779  1
  O  O112  1  0.45632639  0.73533957  0.03157905  1
  O  O113  1  0.54718591  0.02036301  0.04900669  1
  O  O114  1  0.53223252  0.53923836  0.05236566  1
  O  O115  1  0.45472715  0.23125926  0.03687619  1
  O  O116  1  0.04736484  0.23094404  0.03804153  1
  O  O117  1  0.96983109  0.53900786  0.05223342  1
  O  O118  1  0.96894999  0.02719480  0.04411596  1
  O  O119  1  0.04077889  0.73557634  0.03178375  1
  O  O120  1  0.74555532  0.90866764  0.01381547  1
  O  O121  1  0.24971872  0.86096008  0.06134930  1
  O  O122  1  0.25252627  0.34650891  0.07166188  1
  O  O123  1  0.75009088  0.52184735  0.00582944  1
  O  O124  1  0.25002691  0.69724219  0.08062673  1
  O  O125  1  0.73641590  0.08340625  0.00128174  1
  O  O126  1  0.75062495  0.39723332  0.05470454  1
  O  O127  1  0.24946564  0.37085776  0.01456057  1
  O  O128  1  0.45807146  0.51576879  0.11712770  1
  O  O129  1  0.54353949  0.78696733  0.13448034  1
  O  O130  1  0.54455849  0.30783665  0.12428700  1
  O  O131  1  0.45577918  0.99629674  0.12095893  1
  O  O132  1  0.04141747  0.99806057  0.12008908  1
  O  O133  1  0.95735696  0.30707583  0.12425765  1
  O  O134  1  0.95777387  0.78729325  0.13447192  1
  O  O135  1  0.04245415  0.51556040  0.11715438  1
  O  O136  1  0.75080296  0.67085093  0.10267790  1
  O  O137  1  0.25013974  0.62960700  0.15046214  1
  O  O138  1  0.24839697  0.10443863  0.15672773  1
  O  O139  1  0.74975303  0.19564649  0.08975529  1
  O  O140  1  0.25055654  0.45733180  0.16347849  1
  O  O141  1  0.75092121  0.84070924  0.08674647  1
  O  O142  1  0.74938629  0.17230822  0.14788744  1
  O  O143  1  0.25305622  0.13409973  0.09885711  1
  O  O144  1  0.45675168  0.28226639  0.19800137  1
  O  O145  1  0.54362088  0.54507902  0.21847323  1
  O  O146  1  0.54201509  0.06925774  0.20940523  1
  O  O147  1  0.45662387  0.76058737  0.20639468  1
  O  O148  1  0.04297922  0.76034458  0.20643704  1
  O  O149  1  0.95625857  0.06954622  0.20950719  1
  O  O150  1  0.95702054  0.54505719  0.21847175  1
  O  O151  1  0.04323155  0.28243042  0.19798210  1
  O  O152  1  0.75024778  0.43619187  0.18292260  1
  O  O153  1  0.25010317  0.39151864  0.23355024  1
  O  O154  1  0.24950489  0.87064067  0.24131888  1
  O  O155  1  0.75026912  0.96161225  0.17387103  1
  O  O156  1  0.24974534  0.21954128  0.24426789  1
  O  O157  1  0.75030616  0.60894158  0.17253043  1
  O  O158  1  0.74931583  0.93349533  0.23198934  1
  O  O159  1  0.24930510  0.89578552  0.18326198  1
  O  O160  1  0.45688078  0.04493940  0.28199820  1
  O  O161  1  0.54285335  0.30807163  0.30134908  1
  O  O162  1  0.54304173  0.83069185  0.29321437  1
  O  O163  1  0.45685551  0.52164388  0.29024859  1
  O  O164  1  0.04318624  0.52167569  0.29023431  1
  O  O165  1  0.95667889  0.83068468  0.29322425  1
  O  O166  1  0.95701183  0.30804226  0.30134222  1
  O  O167  1  0.04281745  0.04493040  0.28201284  1
  O  O168  1  0.74981867  0.19735646  0.26662904  1
  O  O169  1  0.24992807  0.15570169  0.31674531  1
  O  O170  1  0.24997839  0.63132817  0.32531226  1
  O  O171  1  0.74991779  0.72081106  0.25823092  1
  O  O172  1  0.24995833  0.98366293  0.32838678  1
  O  O173  1  0.74993048  0.36931539  0.25493895  1
  O  O174  1  0.74989896  0.69518988  0.31627836  1
  O  O175  1  0.25015341  0.65718757  0.26728922  1
  O  O176  1  0.45652866  0.80786729  0.36489315  1
  O  O177  1  0.54318693  0.07063205  0.38541919  1
  O  O178  1  0.54324615  0.59155663  0.37702160  1
  O  O179  1  0.45729942  0.28319468  0.37405200  1
  O  O180  1  0.04298768  0.28305603  0.37398239  1
  O  O181  1  0.95685380  0.59174009  0.37702546  1
  O  O182  1  0.95684077  0.07053580  0.38540350  1
  O  O183  1  0.04312637  0.80793435  0.36489082  1
  O  O184  1  0.74983953  0.96132978  0.34987382  1
  O  O185  1  0.24993794  0.91641178  0.40056753  1
  O  O186  1  0.24947497  0.39035405  0.40972647  1
  O  O187  1  0.75017956  0.48150004  0.34215455  1
  O  O188  1  0.24977522  0.74337340  0.41072017  1
  O  O189  1  0.74997036  0.13318918  0.33910737  1
  O  O190  1  0.75036739  0.45634430  0.40023437  1
  O  O191  1  0.25006795  0.41900930  0.35156788  1
  O  O192  1  0.45626536  0.56469910  0.44885984  1
  O  O193  1  0.54178366  0.83614930  0.46610784  1
  O  O194  1  0.54408514  0.35544079  0.46249331  1
  O  O195  1  0.45629897  0.04446197  0.45894202  1
  O  O196  1  0.04358297  0.04501188  0.45905172  1
  O  O197  1  0.95833673  0.35408654  0.46338842  1
  O  O198  1  0.95747541  0.83611187  0.46611131  1
  O  O199  1  0.04175066  0.56485346  0.44885786  1
  O  O200  1  0.74944445  0.72258091  0.43268495  1
  O  O201  1  0.24968418  0.68132360  0.48054032  1
  O  O202  1  0.25121487  0.15675069  0.49340590  1
  O  O203  1  0.75190415  0.24823829  0.42655296  1
  O  O204  1  0.24849293  0.51144813  0.49657853  1
  O  O205  1  0.74994495  0.89523182  0.41992624  1
  O  O206  1  0.74745453  0.21745659  0.48434072  1
  O  O207  1  0.25074492  0.17983673  0.43532632  1
  O  O208  1  0.45308724  0.33197033  0.53402950  1
  O  O209  1  0.54335049  0.61665213  0.55188943  1
  O  O210  1  0.54563723  0.12056317  0.54609573  1
  O  O211  1  0.46788471  0.81253182  0.53099488  1
  O  O212  1  0.03018798  0.81262455  0.53105114  1
  O  O213  1  0.95315958  0.12064021  0.54476390  1
  O  O214  1  0.95899421  0.61637420  0.55173360  1
  O  O215  1  0.03163117  0.32450114  0.53904086  1
  O  O216  1  0.75034153  0.49125811  0.52201296  1
  O  O217  1  0.25475540  0.44209388  0.56975592  1
  O  O218  1  0.24953962  0.83094378  0.57741786  1
  O  O219  1  0.74739365  0.00484121  0.51143181  1
  O  O220  1  0.26523876  0.26669277  0.58155387  1
  O  O221  1  0.75005908  0.65470604  0.50282342  1
  O  O222  1  0.75078172  0.98157033  0.56863539  1
  O  O223  1  0.24923682  0.95450302  0.52824568  1
