# generated using pymatgen
data_Li21Y5Cl36
_symmetry_space_group_name_H-M   'P 1'
_cell_length_a   6.09758500
_cell_length_b   11.17729600
_cell_length_c   38.47881131
_cell_angle_alpha   90.00000000
_cell_angle_beta   90.00000000
_cell_angle_gamma   89.99868772
_symmetry_Int_Tables_number   1
_chemical_formula_structural   Li21Y5Cl36
_chemical_formula_sum   'Li42 Y10 Cl72'
_cell_volume   2622.50462363
_cell_formula_units_Z   2
loop_
 _symmetry_equiv_pos_site_id
 _symmetry_equiv_pos_as_xyz
  1  'x, y, z'
loop_
 _atom_site_type_symbol
 _atom_site_label
 _atom_site_symmetry_multiplicity
 _atom_site_fract_x
 _atom_site_fract_y
 _atom_site_fract_z
 _atom_site_occupancy
  Li  Li0  1  0.99413813  0.04021077  0.99876755  1
  Li  Li1  1  0.00499007  0.20572904  0.07782253  1
  Li  Li2  1  0.01062566  0.53137902  0.07483038  1
  Li  Li3  1  0.49885256  0.03114644  0.16403568  1
  Li  Li4  1  0.50116489  0.69088425  0.16909706  1
  Li  Li5  1  0.51265103  0.68467573  0.99879890  1
  Li  Li6  1  0.49963242  0.21078347  0.07552791  1
  Li  Li7  1  0.51540070  0.52133474  0.07492213  1
  Li  Li8  1  0.99967820  0.69747464  0.16668773  1
  Li  Li9  1  0.00075511  0.53105666  0.24999929  1
  Li  Li10  1  0.00189342  0.69711808  0.33332213  1
  Li  Li11  1  0.00009169  0.19559654  0.24999300  1
  Li  Li12  1  0.48454037  0.52132717  0.42508193  1
  Li  Li13  1  0.50005438  0.21105491  0.42450598  1
  Li  Li14  1  0.50048754  0.20350580  0.24999284  1
  Li  Li15  1  0.49914778  0.69095243  0.33094615  1
  Li  Li16  1  0.50111662  0.03113988  0.33595766  1
  Li  Li17  1  0.99496417  0.20572952  0.42218344  1
  Li  Li18  1  0.00578583  0.04019880  0.50122571  1
  Li  Li19  1  0.98928433  0.53140856  0.42516932  1
  Li  Li20  1  0.48629789  0.68447128  0.50128104  1
  Li  Li21  1  0.50522259  0.03483693  0.49861896  1
  Li  Li22  1  0.49503965  0.86908413  0.57775165  1
  Li  Li23  1  0.49062311  0.54212061  0.57502043  1
  Li  Li24  1  0.00213533  0.04371108  0.66323545  1
  Li  Li25  1  0.99766611  0.38551626  0.66958518  1
  Li  Li26  1  0.98699540  0.39285549  0.49882693  1
  Li  Li27  1  0.99965896  0.86325779  0.57593275  1
  Li  Li28  1  0.98574546  0.55387274  0.57505760  1
  Li  Li29  1  0.49954601  0.37532481  0.66668275  1
  Li  Li30  1  0.49948595  0.54631952  0.75000914  1
  Li  Li31  1  0.50041465  0.37536660  0.83332544  1
  Li  Li32  1  0.49992627  0.88055258  0.75001416  1
  Li  Li33  1  0.01413741  0.55389558  0.92495314  1
  Li  Li34  1  0.99977060  0.86341370  0.92411909  1
  Li  Li35  1  0.99948142  0.87434640  0.74998292  1
  Li  Li36  1  0.00233049  0.38533417  0.83038325  1
  Li  Li37  1  0.99831129  0.04389796  0.83670723  1
  Li  Li38  1  0.50473683  0.86901046  0.92222955  1
  Li  Li39  1  0.49471036  0.03491799  0.00137001  1
  Li  Li40  1  0.50930633  0.54216088  0.92500253  1
  Li  Li41  1  0.01251592  0.39267297  0.00117007  1
  Y  Y42  1  0.00450876  0.86653349  0.08338182  1
  Y  Y43  1  0.99729467  0.35581148  0.16536412  1
  Y  Y44  1  0.00019323  0.87043631  0.25000969  1
  Y  Y45  1  0.00276129  0.35582209  0.33462974  1
  Y  Y46  1  0.99544004  0.86654024  0.41661133  1
  Y  Y47  1  0.49631184  0.20816387  0.58327423  1
  Y  Y48  1  0.50185229  0.71893073  0.66540136  1
  Y  Y49  1  0.49990167  0.20515308  0.74999884  1
  Y  Y50  1  0.49803022  0.71889724  0.83460905  1
  Y  Y51  1  0.50362341  0.20816412  0.91672643  1
  Cl  Cl52  1  0.23095439  0.53295719  0.19319103  1
  Cl  Cl53  1  0.24046508  0.19569800  0.02707048  1
  Cl  Cl54  1  0.23988472  0.87615633  0.02647419  1
  Cl  Cl55  1  0.23768647  0.69309949  0.11257844  1
  Cl  Cl56  1  0.24569195  0.36455841  0.10824625  1
  Cl  Cl57  1  0.26493666  0.53701909  0.02920084  1
  Cl  Cl58  1  0.25469801  0.85585846  0.19353436  1
  Cl  Cl59  1  0.25618882  0.19653606  0.19590988  1
  Cl  Cl60  1  0.24786529  0.04023829  0.10988665  1
  Cl  Cl61  1  0.75369944  0.53319306  0.13897171  1
  Cl  Cl62  1  0.76648483  0.36731476  0.05595847  1
  Cl  Cl63  1  0.75564018  0.69342576  0.05709043  1
  Cl  Cl64  1  0.74948390  0.85728234  0.14023828  1
  Cl  Cl65  1  0.75222851  0.04068116  0.22297322  1
  Cl  Cl66  1  0.74739195  0.19626201  0.13484836  1
  Cl  Cl67  1  0.76895034  0.69599828  0.22078204  1
  Cl  Cl68  1  0.76744114  0.35935371  0.22330427  1
  Cl  Cl69  1  0.75615163  0.03926443  0.05489893  1
  Cl  Cl70  1  0.24389382  0.03931419  0.44510762  1
  Cl  Cl71  1  0.23198715  0.69594957  0.27916137  1
  Cl  Cl72  1  0.23276252  0.35935513  0.27669464  1
  Cl  Cl73  1  0.25270772  0.19625838  0.36516063  1
  Cl  Cl74  1  0.25088116  0.85730085  0.35976758  1
  Cl  Cl75  1  0.24791314  0.04080905  0.27703054  1
  Cl  Cl76  1  0.23337325  0.36738128  0.44403602  1
  Cl  Cl77  1  0.24433674  0.69344296  0.44290303  1
  Cl  Cl78  1  0.24653605  0.53320162  0.36103587  1
  Cl  Cl79  1  0.75230847  0.04025105  0.39008934  1
  Cl  Cl80  1  0.74586799  0.85586089  0.30647046  1
  Cl  Cl81  1  0.74392962  0.19652325  0.30409799  1
  Cl  Cl82  1  0.75433475  0.36457155  0.39174632  1
  Cl  Cl83  1  0.73489849  0.53714237  0.47080271  1
  Cl  Cl84  1  0.76239434  0.69309238  0.38741041  1
  Cl  Cl85  1  0.75950365  0.19574101  0.47292670  1
  Cl  Cl86  1  0.76026443  0.87622901  0.47351843  1
  Cl  Cl87  1  0.76937824  0.53298442  0.30679036  1
  Cl  Cl88  1  0.26821295  0.54198444  0.69328369  1
  Cl  Cl89  1  0.25914015  0.87883109  0.52705035  1
  Cl  Cl90  1  0.26090216  0.19832645  0.52646104  1
  Cl  Cl91  1  0.26265920  0.38131869  0.61250642  1
  Cl  Cl92  1  0.25297645  0.71030870  0.60832712  1
  Cl  Cl93  1  0.23573039  0.53810227  0.52926830  1
  Cl  Cl94  1  0.24418809  0.21934478  0.69367402  1
  Cl  Cl95  1  0.24342071  0.87870103  0.69585566  1
  Cl  Cl96  1  0.25218625  0.03446510  0.60982683  1
  Cl  Cl97  1  0.74502187  0.54118768  0.63901056  1
  Cl  Cl98  1  0.73322860  0.70728050  0.55610866  1
  Cl  Cl99  1  0.74554663  0.38111302  0.55707776  1
  Cl  Cl100  1  0.75069424  0.21721633  0.64022986  1
  Cl  Cl101  1  0.74752046  0.03478486  0.72300751  1
  Cl  Cl102  1  0.75167626  0.87849978  0.63477705  1
  Cl  Cl103  1  0.73058079  0.37956062  0.72067807  1
  Cl  Cl104  1  0.73244777  0.71623691  0.72322031  1
  Cl  Cl105  1  0.74440400  0.03534277  0.55483405  1
  Cl  Cl106  1  0.25541849  0.03539593  0.94516804  1
  Cl  Cl107  1  0.26927628  0.37960720  0.77930623  1
  Cl  Cl108  1  0.26733012  0.71620481  0.77679416  1
  Cl  Cl109  1  0.24815251  0.87851506  0.86520171  1
  Cl  Cl110  1  0.24919067  0.21725951  0.85975666  1
  Cl  Cl111  1  0.25231691  0.03479236  0.77701345  1
  Cl  Cl112  1  0.26659949  0.70741377  0.94385036  1
  Cl  Cl113  1  0.25433754  0.38111619  0.94292101  1
  Cl  Cl114  1  0.25494490  0.54117508  0.86101205  1
  Cl  Cl115  1  0.74782697  0.03450847  0.89017151  1
  Cl  Cl116  1  0.75572865  0.21933663  0.80631224  1
  Cl  Cl117  1  0.75636988  0.87867993  0.80415083  1
  Cl  Cl118  1  0.74695669  0.71031309  0.89167839  1
  Cl  Cl119  1  0.76401100  0.53815230  0.97073382  1
  Cl  Cl120  1  0.73727124  0.38123880  0.88747721  1
  Cl  Cl121  1  0.74071423  0.87894582  0.97295725  1
  Cl  Cl122  1  0.73903419  0.19836864  0.97353672  1
  Cl  Cl123  1  0.73163812  0.54196654  0.80671207  1
