# generated using pymatgen
data_Li21Y5Cl36
_symmetry_space_group_name_H-M   'P 1'
_cell_length_a   6.09758500
_cell_length_b   11.17729600
_cell_length_c   45.58223114
_cell_angle_alpha   90.00000000
_cell_angle_beta   90.00000000
_cell_angle_gamma   89.99868772
_symmetry_Int_Tables_number   1
_chemical_formula_structural   Li21Y5Cl36
_chemical_formula_sum   'Li42 Y10 Cl72'
_cell_volume   3106.63473849
_cell_formula_units_Z   2
loop_
 _symmetry_equiv_pos_site_id
 _symmetry_equiv_pos_as_xyz
  1  'x, y, z'
loop_
 _atom_site_type_symbol
 _atom_site_label
 _atom_site_symmetry_multiplicity
 _atom_site_fract_x
 _atom_site_fract_y
 _atom_site_fract_z
 _atom_site_occupancy
  Li  Li0  1  0.90205212  0.01076305  0.03736090  1
  Li  Li1  1  0.95189258  0.25887528  0.10825290  1
  Li  Li2  1  0.04009025  0.73615329  0.03640677  1
  Li  Li3  1  0.49279874  0.08362821  0.18194576  1
  Li  Li4  1  0.50000017  0.74347120  0.18030737  1
  Li  Li5  1  0.50761796  0.77563493  0.04895930  1
  Li  Li6  1  0.48425346  0.27191920  0.11645320  1
  Li  Li7  1  0.52005603  0.55754747  0.09486384  1
  Li  Li8  1  0.99903093  0.74988036  0.17799976  1
  Li  Li9  1  0.99798662  0.58740500  0.24999848  1
  Li  Li10  1  0.00053709  0.74969752  0.32197283  1
  Li  Li11  1  0.99805802  0.25626794  0.25002272  1
  Li  Li12  1  0.47973462  0.55768697  0.40510711  1
  Li  Li13  1  0.51582811  0.27194301  0.38353798  1
  Li  Li14  1  0.49904644  0.26595158  0.25000426  1
  Li  Li15  1  0.49945059  0.74300512  0.31959337  1
  Li  Li16  1  0.50061645  0.08221320  0.31793166  1
  Li  Li17  1  0.04805244  0.25886046  0.39177728  1
  Li  Li18  1  0.09799596  0.01077687  0.46265134  1
  Li  Li19  1  0.95988864  0.73624535  0.46355724  1
  Li  Li20  1  0.49256014  0.77571301  0.45101423  1
  Li  Li21  1  0.59847128  0.59161044  0.53775111  1
  Li  Li22  1  0.55189574  0.34032383  0.60827472  1
  Li  Li23  1  0.46068135  0.86518006  0.53659953  1
  Li  Li24  1  0.00272626  0.51580638  0.68170268  1
  Li  Li25  1  0.00004564  0.85498494  0.68042534  1
  Li  Li26  1  0.99491806  0.82614874  0.54906979  1
  Li  Li27  1  0.01940512  0.32803856  0.61652331  1
  Li  Li28  1  0.98124042  0.04161158  0.59527859  1
  Li  Li29  1  0.50083784  0.85069846  0.67866867  1
  Li  Li30  1  0.50008175  0.01043567  0.75017481  1
  Li  Li31  1  0.49989484  0.85047162  0.82128803  1
  Li  Li32  1  0.50073278  0.34372676  0.75001202  1
  Li  Li33  1  0.01744666  0.04177254  0.90422068  1
  Li  Li34  1  0.98433478  0.32994898  0.88401883  1
  Li  Li35  1  0.00020999  0.33360560  0.75000813  1
  Li  Li36  1  0.00026225  0.85505752  0.81958737  1
  Li  Li37  1  0.99827069  0.51581524  0.81830687  1
  Li  Li38  1  0.45080947  0.33944278  0.89172243  1
  Li  Li39  1  0.40144590  0.59171601  0.96225787  1
  Li  Li40  1  0.53932060  0.86551525  0.96338562  1
  Li  Li41  1  0.00445101  0.82683827  0.95090310  1
  Y  Y42  1  0.00961762  0.91362457  0.10978566  1
  Y  Y43  1  0.99350082  0.41750908  0.17773231  1
  Y  Y44  1  0.99868392  0.92589583  0.24999148  1
  Y  Y45  1  0.00541418  0.41728536  0.32223438  1
  Y  Y46  1  0.99009300  0.91377490  0.39022559  1
  Y  Y47  1  0.49088894  0.68648394  0.61002204  1
  Y  Y48  1  0.50701612  0.18233457  0.67789454  1
  Y  Y49  1  0.50038618  0.67287240  0.74999926  1
  Y  Y50  1  0.49460946  0.18241002  0.82223640  1
  Y  Y51  1  0.50924331  0.68644629  0.89000576  1
  Cl  Cl52  1  0.23011795  0.58929535  0.20205116  1
  Cl  Cl53  1  0.22540297  0.92557820  0.05740396  1
  Cl  Cl54  1  0.25686351  0.75372877  0.13484455  1
  Cl  Cl55  1  0.20591763  0.41363484  0.12718038  1
  Cl  Cl56  1  0.30485842  0.60435853  0.05407081  1
  Cl  Cl57  1  0.25643981  0.91518276  0.20238684  1
  Cl  Cl58  1  0.25250759  0.25486523  0.20366194  1
  Cl  Cl59  1  0.24823796  0.09950155  0.12725024  1
  Cl  Cl60  1  0.74361698  0.58934389  0.15720990  1
  Cl  Cl61  1  0.69536093  0.37949854  0.08443695  1
  Cl  Cl62  1  0.78946245  0.73636983  0.08417368  1
  Cl  Cl63  1  0.75529495  0.91276587  0.15648935  1
  Cl  Cl64  1  0.74313178  0.24246052  0.15572324  1
  Cl  Cl65  1  0.73993287  0.85596568  0.01360365  1
  Cl  Cl66  1  0.76938601  0.07712676  0.08227252  1
  Cl  Cl67  1  0.23069789  0.07718747  0.41774243  1
  Cl  Cl68  1  0.22782900  0.75341672  0.27503629  1
  Cl  Cl69  1  0.23215728  0.41597870  0.27254137  1
  Cl  Cl70  1  0.25642826  0.24254930  0.34429862  1
  Cl  Cl71  1  0.24431044  0.91289113  0.34345429  1
  Cl  Cl72  1  0.24846144  0.09751055  0.27221023  1
  Cl  Cl73  1  0.30458946  0.37967069  0.41555540  1
  Cl  Cl74  1  0.21111813  0.73670053  0.41574038  1
  Cl  Cl75  1  0.25496098  0.58951781  0.34272888  1
  Cl  Cl76  1  0.75176304  0.09963522  0.37287455  1
  Cl  Cl77  1  0.74150349  0.91494600  0.29761980  1
  Cl  Cl78  1  0.74567396  0.25496022  0.29634368  1
  Cl  Cl79  1  0.79391037  0.41379733  0.37284046  1
  Cl  Cl80  1  0.74901667  0.09758058  0.22776764  1
  Cl  Cl81  1  0.74301799  0.75379742  0.36514651  1
  Cl  Cl82  1  0.76979998  0.75339457  0.22489645  1
  Cl  Cl83  1  0.76594888  0.41621202  0.22739728  1
  Cl  Cl84  1  0.76845415  0.58906555  0.29792420  1
  Cl  Cl85  1  0.26020912  0.85570981  0.48635671  1
  Cl  Cl86  1  0.69561298  0.60456205  0.44587149  1
  Cl  Cl87  1  0.77467220  0.92564310  0.44263244  1
  Cl  Cl88  1  0.26955279  0.01071037  0.70222745  1
  Cl  Cl89  1  0.27468494  0.67513997  0.55766010  1
  Cl  Cl90  1  0.24373753  0.84634530  0.63506327  1
  Cl  Cl91  1  0.29714416  0.18625395  0.62714000  1
  Cl  Cl92  1  0.19716766  0.99706180  0.55441898  1
  Cl  Cl93  1  0.24350326  0.68427724  0.70237816  1
  Cl  Cl94  1  0.24769631  0.34511052  0.70363893  1
  Cl  Cl95  1  0.25305724  0.50069537  0.62752197  1
  Cl  Cl96  1  0.75666405  0.01017201  0.65750981  1
  Cl  Cl97  1  0.80777150  0.22005780  0.58454221  1
  Cl  Cl98  1  0.71250172  0.86337769  0.58448818  1
  Cl  Cl99  1  0.74596286  0.68691981  0.65665243  1
  Cl  Cl100  1  0.75891582  0.35674268  0.65571492  1
  Cl  Cl101  1  0.76050756  0.74635357  0.51393500  1
  Cl  Cl102  1  0.73086117  0.52297157  0.58241502  1
  Cl  Cl103  1  0.26989309  0.52234677  0.91759333  1
  Cl  Cl104  1  0.27077281  0.84558770  0.77495138  1
  Cl  Cl105  1  0.26777456  0.18347511  0.77257459  1
  Cl  Cl106  1  0.24319492  0.35685587  0.84438721  1
  Cl  Cl107  1  0.25478686  0.68677272  0.84331147  1
  Cl  Cl108  1  0.25061592  0.50153429  0.77224658  1
  Cl  Cl109  1  0.19500456  0.21920871  0.91546149  1
  Cl  Cl110  1  0.28711564  0.86305621  0.91543820  1
  Cl  Cl111  1  0.24460144  0.01014321  0.84254034  1
  Cl  Cl112  1  0.74797656  0.50075053  0.87253020  1
  Cl  Cl113  1  0.75734442  0.68426092  0.79762366  1
  Cl  Cl114  1  0.75375001  0.34505182  0.79644793  1
  Cl  Cl115  1  0.70718985  0.18642775  0.87281567  1
  Cl  Cl116  1  0.75035254  0.50159115  0.72778404  1
  Cl  Cl117  1  0.75677304  0.84625016  0.86498957  1
  Cl  Cl118  1  0.72973637  0.84557662  0.72507019  1
  Cl  Cl119  1  0.73376830  0.18348295  0.72755240  1
  Cl  Cl120  1  0.73149381  0.01055295  0.79785321  1
  Cl  Cl121  1  0.23931010  0.74670307  0.98603305  1
  Cl  Cl122  1  0.80230690  0.99749786  0.94536036  1
  Cl  Cl123  1  0.72535886  0.67525661  0.94236625  1
