# generated using pymatgen
data_Li3YCl6
_symmetry_space_group_name_H-M   'P 1'
_cell_length_a   6.09758500
_cell_length_b   11.17729600
_cell_length_c   49.21405236
_cell_angle_alpha   90.00000000
_cell_angle_beta   90.00000000
_cell_angle_gamma   89.99868772
_symmetry_Int_Tables_number   1
_chemical_formula_structural   Li3YCl6
_chemical_formula_sum   'Li42 Y14 Cl84'
_cell_volume   3354.15974341
_cell_formula_units_Z   14
loop_
 _symmetry_equiv_pos_site_id
 _symmetry_equiv_pos_as_xyz
  1  'x, y, z'
loop_
 _atom_site_type_symbol
 _atom_site_label
 _atom_site_symmetry_multiplicity
 _atom_site_fract_x
 _atom_site_fract_y
 _atom_site_fract_z
 _atom_site_occupancy
  Li  Li0  1  0.99633086  0.20461733  0.05878671  1
  Li  Li1  1  0.00393987  0.36081943  0.11819264  1
  Li  Li2  1  0.97992667  0.83426331  0.06561708  1
  Li  Li3  1  0.49416919  0.18934105  0.18429106  1
  Li  Li4  1  0.49998121  0.85282634  0.18660992  1
  Li  Li5  1  0.41150029  0.71924363  0.02906655  1
  Li  Li6  1  0.50278285  0.35868529  0.11658399  1
  Li  Li7  1  0.52390246  0.68808443  0.11825034  1
  Li  Li8  1  0.99982720  0.85668251  0.18437893  1
  Li  Li9  1  0.00057865  0.68963397  0.25000450  1
  Li  Li10  1  0.00022223  0.85667142  0.31562786  1
  Li  Li11  1  0.00016280  0.35935349  0.24999701  1
  Li  Li12  1  0.47639720  0.68835471  0.38172155  1
  Li  Li13  1  0.49730299  0.35868578  0.38341855  1
  Li  Li14  1  0.50103867  0.36843983  0.24999290  1
  Li  Li15  1  0.50007487  0.85282859  0.31339941  1
  Li  Li16  1  0.50630908  0.18951938  0.31566978  1
  Li  Li17  1  0.99598684  0.36083162  0.38178777  1
  Li  Li18  1  0.00373409  0.20460533  0.44121205  1
  Li  Li19  1  0.01991379  0.83396406  0.43434482  1
  Li  Li20  1  0.58837535  0.71931861  0.47096778  1
  Li  Li21  1  0.00366156  0.17034021  0.55876973  1
  Li  Li22  1  0.99618537  0.01420160  0.61812425  1
  Li  Li23  1  0.02001392  0.54077525  0.56562547  1
  Li  Li24  1  0.50559954  0.18581014  0.68425866  1
  Li  Li25  1  0.50000435  0.52216382  0.68661173  1
  Li  Li26  1  0.58840620  0.65576040  0.52906269  1
  Li  Li27  1  0.49702619  0.01633811  0.61654166  1
  Li  Li28  1  0.47620734  0.68684046  0.61826235  1
  Li  Li29  1  0.00014716  0.51832312  0.68437581  1
  Li  Li30  1  0.99920490  0.68509113  0.75002222  1
  Li  Li31  1  0.99980850  0.51831932  0.81563430  1
  Li  Li32  1  0.99924565  0.01564516  0.74998876  1
  Li  Li33  1  0.52394861  0.68692430  0.88179211  1
  Li  Li34  1  0.50280177  0.01619973  0.88343275  1
  Li  Li35  1  0.49895085  0.00653303  0.74999589  1
  Li  Li36  1  0.49991271  0.52216346  0.81340604  1
  Li  Li37  1  0.49440384  0.18576744  0.81575774  1
  Li  Li38  1  0.00384826  0.01429137  0.88183909  1
  Li  Li39  1  0.99634323  0.17057855  0.94122199  1
  Li  Li40  1  0.97999189  0.54079084  0.93437156  1
  Li  Li41  1  0.41141847  0.65563433  0.97097142  1
  Y  Y42  1  0.00371839  0.51707538  0.04985957  1
  Y  Y43  1  0.99352411  0.02429040  0.12091412  1
  Y  Y44  1  0.00415462  0.52131839  0.18289884  1
  Y  Y45  1  0.00022737  0.03205772  0.25000111  1
  Y  Y46  1  0.99620186  0.52129429  0.31709973  1
  Y  Y47  1  0.00676479  0.02430358  0.37907186  1
  Y  Y48  1  0.99628677  0.51698025  0.45014609  1
  Y  Y49  1  0.99633489  0.85790083  0.54984189  1
  Y  Y50  1  0.00639418  0.35069922  0.62089548  1
  Y  Y51  1  0.99567367  0.85372552  0.68288637  1
  Y  Y52  1  0.99989390  0.34286160  0.74999820  1
  Y  Y53  1  0.00387901  0.85373671  0.81710251  1
  Y  Y54  1  0.99345854  0.35067873  0.87909956  1
  Y  Y55  1  0.00373745  0.85791068  0.95015216  1
  Cl  Cl56  1  0.24735402  0.35592632  0.07581359  1
  Cl  Cl57  1  0.16825258  0.01835957  0.07106705  1
  Cl  Cl58  1  0.24281031  0.85817282  0.14310276  1
  Cl  Cl59  1  0.25212217  0.51874324  0.13847178  1
  Cl  Cl60  1  0.26098974  0.69011806  0.07329072  1
  Cl  Cl61  1  0.29470216  0.53411168  0.00957933  1
  Cl  Cl62  1  0.25519065  0.19762752  0.13916054  1
  Cl  Cl63  1  0.74499627  0.69493254  0.16387887  1
  Cl  Cl64  1  0.75581192  0.51825259  0.09530580  1
  Cl  Cl65  1  0.72754541  0.86251098  0.10009558  1
  Cl  Cl66  1  0.74801484  0.02032533  0.16529756  1
  Cl  Cl67  1  0.79548777  0.71433279  0.03369535  1
  Cl  Cl68  1  0.75391853  0.35835003  0.15958598  1
  Cl  Cl69  1  0.82153697  0.33557833  0.02790976  1
  Cl  Cl70  1  0.75940612  0.19979274  0.09829033  1
  Cl  Cl71  1  0.23283056  0.69605657  0.20570419  1
  Cl  Cl72  1  0.22985287  0.85762991  0.27285450  1
  Cl  Cl73  1  0.22918472  0.52078377  0.27148661  1
  Cl  Cl74  1  0.24649856  0.35828650  0.34040414  1
  Cl  Cl75  1  0.25246104  0.02022345  0.33469663  1
  Cl  Cl76  1  0.24812525  0.20331170  0.27097838  1
  Cl  Cl77  1  0.25606879  0.01937600  0.20602157  1
  Cl  Cl78  1  0.25772894  0.35940373  0.20729817  1
  Cl  Cl79  1  0.25519595  0.69488593  0.33612866  1
  Cl  Cl80  1  0.74500588  0.19765166  0.36083792  1
  Cl  Cl81  1  0.74441367  0.01929318  0.29397690  1
  Cl  Cl82  1  0.74253813  0.35934713  0.29268881  1
  Cl  Cl83  1  0.74803145  0.51868954  0.36150764  1
  Cl  Cl84  1  0.75212418  0.20326693  0.22901639  1
  Cl  Cl85  1  0.75733148  0.85818104  0.35691610  1
  Cl  Cl86  1  0.77040236  0.85766048  0.22714310  1
  Cl  Cl87  1  0.77122432  0.52078634  0.22852714  1
  Cl  Cl88  1  0.76758088  0.69604588  0.29431869  1
  Cl  Cl89  1  0.24069631  0.19973387  0.40172092  1
  Cl  Cl90  1  0.17851569  0.33548762  0.47209751  1
  Cl  Cl91  1  0.20437127  0.71425559  0.46631014  1
  Cl  Cl92  1  0.24411110  0.51814868  0.40469581  1
  Cl  Cl93  1  0.27260393  0.86252044  0.39990120  1
  Cl  Cl94  1  0.70528211  0.53417214  0.49041908  1
  Cl  Cl95  1  0.73883644  0.68985869  0.42669956  1
  Cl  Cl96  1  0.75262651  0.35583825  0.42419859  1
  Cl  Cl97  1  0.83203972  0.01827453  0.42892645  1
  Cl  Cl98  1  0.75257334  0.01909747  0.57577795  1
  Cl  Cl99  1  0.83179475  0.35675344  0.57104259  1
  Cl  Cl100  1  0.75712481  0.51680407  0.64308435  1
  Cl  Cl101  1  0.74781631  0.85629267  0.63844849  1
  Cl  Cl102  1  0.73898321  0.68507670  0.57329248  1
  Cl  Cl103  1  0.70532572  0.84080136  0.50956285  1
  Cl  Cl104  1  0.74480080  0.17737050  0.63913319  1
  Cl  Cl105  1  0.25496504  0.68007879  0.66387628  1
  Cl  Cl106  1  0.24414365  0.85680436  0.59528378  1
  Cl  Cl107  1  0.27244752  0.51247572  0.60009040  1
  Cl  Cl108  1  0.25193356  0.35466599  0.66527420  1
  Cl  Cl109  1  0.20437000  0.66063543  0.53366523  1
  Cl  Cl110  1  0.24601977  0.01668949  0.65956490  1
  Cl  Cl111  1  0.17843754  0.03949509  0.52790851  1
  Cl  Cl112  1  0.24065458  0.17526675  0.59826253  1
  Cl  Cl113  1  0.76717369  0.67893070  0.70568093  1
  Cl  Cl114  1  0.77022639  0.51731661  0.77286506  1
  Cl  Cl115  1  0.77065434  0.85413967  0.77150066  1
  Cl  Cl116  1  0.75375830  0.01673146  0.84043293  1
  Cl  Cl117  1  0.74781712  0.35469840  0.83471402  1
  Cl  Cl118  1  0.75172288  0.17170091  0.77097388  1
  Cl  Cl119  1  0.74394516  0.35563687  0.70601992  1
  Cl  Cl120  1  0.74202335  0.01557272  0.70729589  1
  Cl  Cl121  1  0.74487705  0.68007311  0.83614404  1
  Cl  Cl122  1  0.25522680  0.17745331  0.86084096  1
  Cl  Cl123  1  0.25579615  0.35562928  0.79397454  1
  Cl  Cl124  1  0.25727290  0.01568216  0.79269904  1
  Cl  Cl125  1  0.25203085  0.85635611  0.86153186  1
  Cl  Cl126  1  0.24778378  0.17169103  0.72900506  1
  Cl  Cl127  1  0.24267627  0.51671621  0.85692909  1
  Cl  Cl128  1  0.22956744  0.51731601  0.72714308  1
  Cl  Cl129  1  0.22847057  0.85433248  0.72850545  1
  Cl  Cl130  1  0.23252386  0.67890180  0.79438445  1
  Cl  Cl131  1  0.75936399  0.17523895  0.90173496  1
  Cl  Cl132  1  0.82150136  0.03942986  0.97209148  1
  Cl  Cl133  1  0.79570461  0.66063556  0.96633907  1
  Cl  Cl134  1  0.75587725  0.85678900  0.90470451  1
  Cl  Cl135  1  0.72757795  0.51252061  0.89991468  1
  Cl  Cl136  1  0.29471366  0.84078159  0.99043688  1
  Cl  Cl137  1  0.26116883  0.68507220  0.92672179  1
  Cl  Cl138  1  0.24734868  0.01919078  0.92421314  1
  Cl  Cl139  1  0.16814755  0.35675549  0.92896020  1
