# generated using pymatgen
data_Li9Y2Cl15
_symmetry_space_group_name_H-M   'P 1'
_cell_length_a   6.09758500
_cell_length_b   11.17729600
_cell_length_c   39.64495400
_cell_angle_alpha   90.00000000
_cell_angle_beta   90.00000000
_cell_angle_gamma   89.99868772
_symmetry_Int_Tables_number   1
_chemical_formula_structural   Li9Y2Cl15
_chemical_formula_sum   'Li36 Y8 Cl60'
_cell_volume   2701.98251022
_cell_formula_units_Z   4
loop_
 _symmetry_equiv_pos_site_id
 _symmetry_equiv_pos_as_xyz
  1  'x, y, z'
loop_
 _atom_site_type_symbol
 _atom_site_label
 _atom_site_symmetry_multiplicity
 _atom_site_fract_x
 _atom_site_fract_y
 _atom_site_fract_z
 _atom_site_occupancy
  Li  Li0  1  0.98490090  0.28910459  0.11257237  1
  Li  Li1  1  0.99712234  0.48483641  0.20797146  1
  Li  Li2  1  0.93711733  0.98546346  0.12551597  1
  Li  Li3  1  0.58784727  0.61207919  0.06592182  1
  Li  Li4  1  0.56843033  0.31033819  0.06541133  1
  Li  Li5  1  0.47202887  0.02615217  0.13455794  1
  Li  Li6  1  0.49937831  0.48485315  0.20340359  1
  Li  Li7  1  0.53631731  0.81318657  0.21416561  1
  Li  Li8  1  0.07655098  0.46394815  0.03219681  1
  Li  Li9  1  0.01538653  0.78897753  0.38744952  1
  Li  Li10  1  0.92375833  0.96393545  0.46779353  1
  Li  Li11  1  0.06291924  0.48545717  0.37448514  1
  Li  Li12  1  0.46378747  0.31318175  0.28583916  1
  Li  Li13  1  0.50061625  0.98484609  0.29661130  1
  Li  Li14  1  0.52801148  0.52616261  0.36544037  1
  Li  Li15  1  0.43166774  0.81035484  0.43460473  1
  Li  Li16  1  0.41235792  0.11209118  0.43405497  1
  Li  Li17  1  0.00289376  0.98482746  0.29204546  1
  Li  Li18  1  0.51738565  0.18452665  0.61268085  1
  Li  Li19  1  0.50321442  0.99100649  0.70859350  1
  Li  Li20  1  0.56275275  0.49127823  0.62515740  1
  Li  Li21  1  0.91208380  0.86300428  0.56609210  1
  Li  Li22  1  0.93524194  0.16506769  0.56529283  1
  Li  Li23  1  0.02757389  0.44658874  0.63473057  1
  Li  Li24  1  0.00055688  0.99071217  0.70426189  1
  Li  Li25  1  0.96703438  0.66306139  0.71414882  1
  Li  Li26  1  0.42436623  0.01025813  0.53235317  1
  Li  Li27  1  0.48188162  0.68399096  0.88722255  1
  Li  Li28  1  0.57562890  0.51017400  0.96765222  1
  Li  Li29  1  0.43744925  0.99085524  0.87485827  1
  Li  Li30  1  0.03321885  0.16297589  0.78585571  1
  Li  Li31  1  0.99918698  0.49032651  0.79577316  1
  Li  Li32  1  0.97221422  0.94650856  0.86538226  1
  Li  Li33  1  0.06466036  0.66503373  0.93469272  1
  Li  Li34  1  0.08809919  0.36287790  0.93395833  1
  Li  Li35  1  0.49719476  0.49160905  0.79119213  1
  Y  Y36  1  0.99822397  0.65255598  0.12640075  1
  Y  Y37  1  0.98259356  0.15026307  0.21082162  1
  Y  Y38  1  0.00202645  0.15255985  0.37362169  1
  Y  Y39  1  0.01745630  0.65021090  0.28917490  1
  Y  Y40  1  0.50131384  0.82254572  0.62682621  1
  Y  Y41  1  0.51776159  0.32514834  0.71056960  1
  Y  Y42  1  0.49837443  0.32223745  0.87318326  1
  Y  Y43  1  0.48199981  0.82512023  0.78944177  1
  Cl  Cl44  1  0.19109292  0.29656182  0.06289956  1
  Cl  Cl45  1  0.23481826  0.48895200  0.15684956  1
  Cl  Cl46  1  0.18317344  0.15338388  0.15047979  1
  Cl  Cl47  1  0.25908877  0.64534539  0.23387376  1
  Cl  Cl48  1  0.22331691  0.84686548  0.14223628  1
  Cl  Cl49  1  0.20210921  0.63174839  0.06760235  1
  Cl  Cl50  1  0.24601689  0.32277317  0.23402306  1
  Cl  Cl51  1  0.75109766  0.65293809  0.18335621  1
  Cl  Cl52  1  0.72441256  0.98391526  0.18024191  1
  Cl  Cl53  1  0.68073503  0.46554757  0.02441267  1
  Cl  Cl54  1  0.72755321  0.79634033  0.09505337  1
  Cl  Cl55  1  0.74135257  0.47123217  0.10758993  1
  Cl  Cl56  1  0.70674357  0.13483716  0.09803547  1
  Cl  Cl57  1  0.75173092  0.32550311  0.18563859  1
  Cl  Cl58  1  0.24838163  0.82544825  0.31436724  1
  Cl  Cl59  1  0.25893928  0.97114601  0.39242272  1
  Cl  Cl60  1  0.29341408  0.63472304  0.40199621  1
  Cl  Cl61  1  0.23894149  0.98599623  0.23717954  1
  Cl  Cl62  1  0.31934022  0.96564603  0.47562097  1
  Cl  Cl63  1  0.27253606  0.29639810  0.40496209  1
  Cl  Cl64  1  0.24900459  0.15292754  0.31665243  1
  Cl  Cl65  1  0.27575243  0.48390531  0.31977144  1
  Cl  Cl66  1  0.75407766  0.82277263  0.26599180  1
  Cl  Cl67  1  0.79799547  0.13175271  0.43240570  1
  Cl  Cl68  1  0.74101048  0.14530451  0.26612093  1
  Cl  Cl69  1  0.77682951  0.34681714  0.35775888  1
  Cl  Cl70  1  0.76112950  0.48598616  0.26280507  1
  Cl  Cl71  1  0.76566076  0.98892923  0.34315307  1
  Cl  Cl72  1  0.81693718  0.65337106  0.34952259  1
  Cl  Cl73  1  0.80909154  0.79657760  0.43708562  1
  Cl  Cl74  1  0.31149210  0.17842030  0.56293721  1
  Cl  Cl75  1  0.26598372  0.98655664  0.65729551  1
  Cl  Cl76  1  0.31776584  0.32109924  0.65039240  1
  Cl  Cl77  1  0.24116890  0.82988684  0.73407541  1
  Cl  Cl78  1  0.27577945  0.62803847  0.64249968  1
  Cl  Cl79  1  0.29706198  0.84353665  0.56801396  1
  Cl  Cl80  1  0.25445910  0.15310056  0.73419071  1
  Cl  Cl81  1  0.74944614  0.82269062  0.68362574  1
  Cl  Cl82  1  0.77608307  0.49158739  0.68022878  1
  Cl  Cl83  1  0.81972977  0.00934642  0.52456320  1
  Cl  Cl84  1  0.76980330  0.67809917  0.59511534  1
  Cl  Cl85  1  0.75928707  0.00308183  0.60779211  1
  Cl  Cl86  1  0.79329446  0.33959195  0.59795856  1
  Cl  Cl87  1  0.74954675  0.14987086  0.68571553  1
  Cl  Cl88  1  0.25047579  0.64972530  0.81428226  1
  Cl  Cl89  1  0.24017187  0.50271461  0.89218908  1
  Cl  Cl90  1  0.20655355  0.83934936  0.90204586  1
  Cl  Cl91  1  0.26119352  0.48971978  0.73700759  1
  Cl  Cl92  1  0.18007964  0.50930305  0.97543473  1
  Cl  Cl93  1  0.23017055  0.17776214  0.90494089  1
  Cl  Cl94  1  0.25082361  0.32234975  0.81632176  1
  Cl  Cl95  1  0.22350897  0.99128050  0.81980084  1
  Cl  Cl96  1  0.74538882  0.65310981  0.76579628  1
  Cl  Cl97  1  0.70275051  0.34327380  0.93200886  1
  Cl  Cl98  1  0.75863393  0.32988699  0.76589588  1
  Cl  Cl99  1  0.72420108  0.12776227  0.85756863  1
  Cl  Cl100  1  0.73828259  0.98963831  0.76294410  1
  Cl  Cl101  1  0.73366410  0.48623519  0.84268853  1
  Cl  Cl102  1  0.68215022  0.82097802  0.84961545  1
  Cl  Cl103  1  0.68817940  0.67806568  0.93696895  1
