# generated using pymatgen
data_Li9Y2Cl15
_symmetry_space_group_name_H-M   'P 1'
_cell_length_a   6.09758500
_cell_length_b   11.17729600
_cell_length_c   39.63105375
_cell_angle_alpha   90.00000000
_cell_angle_beta   90.00000000
_cell_angle_gamma   89.99868772
_symmetry_Int_Tables_number   1
_chemical_formula_structural   Li9Y2Cl15
_chemical_formula_sum   'Li36 Y8 Cl60'
_cell_volume   2701.03514572
_cell_formula_units_Z   4
loop_
 _symmetry_equiv_pos_site_id
 _symmetry_equiv_pos_as_xyz
  1  'x, y, z'
loop_
 _atom_site_type_symbol
 _atom_site_label
 _atom_site_symmetry_multiplicity
 _atom_site_fract_x
 _atom_site_fract_y
 _atom_site_fract_z
 _atom_site_occupancy
  Li  Li0  1  0.98419299  0.26321602  0.11267024  1
  Li  Li1  1  0.99646614  0.45527621  0.20790932  1
  Li  Li2  1  0.93996756  0.96001400  0.12517884  1
  Li  Li3  1  0.58786560  0.58559371  0.06641959  1
  Li  Li4  1  0.56847888  0.28393776  0.06532032  1
  Li  Li5  1  0.47365905  0.99997257  0.13421967  1
  Li  Li6  1  0.49953663  0.45756372  0.20370880  1
  Li  Li7  1  0.53189834  0.78758896  0.21417720  1
  Li  Li8  1  0.07734716  0.43778451  0.03199586  1
  Li  Li9  1  0.01588584  0.76322012  0.38736189  1
  Li  Li10  1  0.92518225  0.93953102  0.46771498  1
  Li  Li11  1  0.06001580  0.45990518  0.37481149  1
  Li  Li12  1  0.46823764  0.28775904  0.28578628  1
  Li  Li13  1  0.50033805  0.95728744  0.29607795  1
  Li  Li14  1  0.52623173  0.50000385  0.36578468  1
  Li  Li15  1  0.43144008  0.78425366  0.43481803  1
  Li  Li16  1  0.41246145  0.08605579  0.43341371  1
  Li  Li17  1  0.00351046  0.95528553  0.29208299  1
  Li  Li18  1  0.51476935  0.16308130  0.61264361  1
  Li  Li19  1  0.50237640  0.96805685  0.70804418  1
  Li  Li20  1  0.56248353  0.46763035  0.62549493  1
  Li  Li21  1  0.90896359  0.83865004  0.56586115  1
  Li  Li22  1  0.93107263  0.14199856  0.56544339  1
  Li  Li23  1  0.02749613  0.42538693  0.63480050  1
  Li  Li24  1  0.99991895  0.96737595  0.70355540  1
  Li  Li25  1  0.96342089  0.63946599  0.71403290  1
  Li  Li26  1  0.42494858  0.98653564  0.53225047  1
  Li  Li27  1  0.48391675  0.66229467  0.88749882  1
  Li  Li28  1  0.57794616  0.48660234  0.96776818  1
  Li  Li29  1  0.43736706  0.96751340  0.87453243  1
  Li  Li30  1  0.03627147  0.13947250  0.78599566  1
  Li  Li31  1  0.99994780  0.46742893  0.79647709  1
  Li  Li32  1  0.97246456  0.92524758  0.86515057  1
  Li  Li33  1  0.06858473  0.64221264  0.93458470  1
  Li  Li34  1  0.09100808  0.33870615  0.93411152  1
  Li  Li35  1  0.49731553  0.46812317  0.79202316  1
  Y  Y36  1  0.99847148  0.62564110  0.12676166  1
  Y  Y37  1  0.98336825  0.12195325  0.21072095  1
  Y  Y38  1  0.00161246  0.12604269  0.37313747  1
  Y  Y39  1  0.01650361  0.62202174  0.28929585  1
  Y  Y40  1  0.50008896  0.79938759  0.62654813  1
  Y  Y41  1  0.51701262  0.30197618  0.71089349  1
  Y  Y42  1  0.49970600  0.29933893  0.87344542  1
  Y  Y43  1  0.48276255  0.80193895  0.78919328  1
  Cl  Cl44  1  0.19122853  0.27018875  0.06295022  1
  Cl  Cl45  1  0.23462532  0.46105542  0.15699481  1
  Cl  Cl46  1  0.18396266  0.12625650  0.15028063  1
  Cl  Cl47  1  0.23984375  0.95725300  0.23708697  1
  Cl  Cl48  1  0.25763708  0.61718665  0.23402567  1
  Cl  Cl49  1  0.22451829  0.81990863  0.14239818  1
  Cl  Cl50  1  0.20274806  0.60447016  0.06797812  1
  Cl  Cl51  1  0.24545592  0.29446846  0.23411516  1
  Cl  Cl52  1  0.75064008  0.62496807  0.18363509  1
  Cl  Cl53  1  0.72516581  0.95627281  0.18002494  1
  Cl  Cl54  1  0.68157080  0.43978340  0.02452916  1
  Cl  Cl55  1  0.72922637  0.76947260  0.09510650  1
  Cl  Cl56  1  0.74083711  0.44449232  0.10784444  1
  Cl  Cl57  1  0.70789430  0.10845396  0.09780873  1
  Cl  Cl58  1  0.75106012  0.29695862  0.18566890  1
  Cl  Cl59  1  0.24867287  0.79710898  0.31435207  1
  Cl  Cl60  1  0.25899065  0.94498279  0.39216653  1
  Cl  Cl61  1  0.29210483  0.60886959  0.40222316  1
  Cl  Cl62  1  0.31955396  0.94100322  0.47546339  1
  Cl  Cl63  1  0.27074917  0.27005884  0.40480931  1
  Cl  Cl64  1  0.24931651  0.12535677  0.31630744  1
  Cl  Cl65  1  0.27483812  0.45656442  0.31998332  1
  Cl  Cl66  1  0.75444813  0.79465062  0.26587693  1
  Cl  Cl67  1  0.79730450  0.10564330  0.43192079  1
  Cl  Cl68  1  0.74225980  0.11724534  0.26596187  1
  Cl  Cl69  1  0.77520868  0.32024873  0.35749248  1
  Cl  Cl70  1  0.76011895  0.45735674  0.26294881  1
  Cl  Cl71  1  0.76523455  0.96143466  0.34297370  1
  Cl  Cl72  1  0.81598321  0.62651698  0.34972828  1
  Cl  Cl73  1  0.80921336  0.77145146  0.43705949  1
  Cl  Cl74  1  0.30855111  0.15428762  0.56299971  1
  Cl  Cl75  1  0.26439183  0.96328483  0.65699855  1
  Cl  Cl76  1  0.31645066  0.29890111  0.65053860  1
  Cl  Cl77  1  0.26117966  0.46632019  0.73727936  1
  Cl  Cl78  1  0.24081624  0.80688644  0.73392699  1
  Cl  Cl79  1  0.27475175  0.60533515  0.64246726  1
  Cl  Cl80  1  0.29528701  0.81951754  0.56780318  1
  Cl  Cl81  1  0.25361839  0.12948397  0.73409920  1
  Cl  Cl82  1  0.74820877  0.79940321  0.68344541  1
  Cl  Cl83  1  0.77480289  0.46847146  0.68031346  1
  Cl  Cl84  1  0.81912324  0.98565999  0.52438021  1
  Cl  Cl85  1  0.76922970  0.65466606  0.59506500  1
  Cl  Cl86  1  0.75769142  0.97990959  0.60758655  1
  Cl  Cl87  1  0.79230187  0.31697037  0.59806864  1
  Cl  Cl88  1  0.74759967  0.12681275  0.68556449  1
  Cl  Cl89  1  0.25180851  0.62689585  0.81450122  1
  Cl  Cl90  1  0.24197303  0.47988742  0.89237537  1
  Cl  Cl91  1  0.20718575  0.81695658  0.90198265  1
  Cl  Cl92  1  0.18206168  0.48557672  0.97552456  1
  Cl  Cl93  1  0.23049062  0.15478423  0.90496417  1
  Cl  Cl94  1  0.25153793  0.29940661  0.81657208  1
  Cl  Cl95  1  0.22486673  0.96842242  0.81974491  1
  Cl  Cl96  1  0.74615301  0.62948271  0.76599144  1
  Cl  Cl97  1  0.70490397  0.31955283  0.93219330  1
  Cl  Cl98  1  0.75909694  0.30687025  0.76614097  1
  Cl  Cl99  1  0.72496800  0.10528736  0.85754618  1
  Cl  Cl100  1  0.73858374  0.96635070  0.76281171  1
  Cl  Cl101  1  0.73523115  0.46333234  0.84302715  1
  Cl  Cl102  1  0.68281738  0.79860489  0.84958374  1
  Cl  Cl103  1  0.69139207  0.65466455  0.93707412  1
