# generated using pymatgen
data_Li3YCl6
_symmetry_space_group_name_H-M   'P 1'
_cell_length_a   6.09758500
_cell_length_b   11.17729600
_cell_length_c   41.71823703
_cell_angle_alpha   90.00000000
_cell_angle_beta   90.00000000
_cell_angle_gamma   89.99868772
_symmetry_Int_Tables_number   1
_chemical_formula_structural   Li3YCl6
_chemical_formula_sum   'Li36 Y12 Cl72'
_cell_volume   2843.28610392
_cell_formula_units_Z   12
loop_
 _symmetry_equiv_pos_site_id
 _symmetry_equiv_pos_as_xyz
  1  'x, y, z'
loop_
 _atom_site_type_symbol
 _atom_site_label
 _atom_site_symmetry_multiplicity
 _atom_site_fract_x
 _atom_site_fract_y
 _atom_site_fract_z
 _atom_site_occupancy
  Li  Li0  1  0.97755233  0.34456100  0.13311639  1
  Li  Li1  1  0.00215630  0.51679853  0.21017691  1
  Li  Li2  1  0.98445797  0.02401868  0.13403055  1
  Li  Li3  1  0.48250064  0.87728228  0.06641729  1
  Li  Li4  1  0.47422070  0.47760384  0.07486136  1
  Li  Li5  1  0.48532683  0.04025868  0.13630484  1
  Li  Li6  1  0.50430945  0.51532256  0.20827098  1
  Li  Li7  1  0.51997899  0.84975469  0.21114836  1
  Li  Li8  1  0.98832303  0.49235340  0.05206039  1
  Li  Li9  1  0.02238265  0.84451649  0.36684036  1
  Li  Li10  1  0.01131201  0.99225255  0.44802990  1
  Li  Li11  1  0.01476263  0.52375848  0.36586324  1
  Li  Li12  1  0.47983944  0.34985284  0.28881781  1
  Li  Li13  1  0.49533090  0.01551861  0.29168791  1
  Li  Li14  1  0.51426019  0.54025742  0.36366184  1
  Li  Li15  1  0.52549472  0.97753484  0.42517610  1
  Li  Li16  1  0.51742753  0.37658093  0.43338299  1
  Li  Li17  1  0.99769919  0.01680603  0.28981166  1
  Li  Li18  1  0.02417929  0.88082357  0.63284023  1
  Li  Li19  1  0.99942588  0.70580708  0.71028573  1
  Li  Li20  1  0.01555152  0.20172790  0.63363689  1
  Li  Li21  1  0.51612559  0.34849979  0.56608472  1
  Li  Li22  1  0.52624432  0.74713712  0.57365079  1
  Li  Li23  1  0.51512649  0.18492543  0.63618166  1
  Li  Li24  1  0.49657097  0.71077701  0.70794407  1
  Li  Li25  1  0.47679214  0.37500350  0.71213026  1
  Li  Li26  1  0.01200295  0.73188768  0.55190085  1
  Li  Li27  1  0.98150825  0.38034188  0.86743691  1
  Li  Li28  1  0.98795879  0.23192019  0.94810368  1
  Li  Li29  1  0.98479466  0.70167134  0.86641701  1
  Li  Li30  1  0.52312574  0.87493945  0.78788190  1
  Li  Li31  1  0.50324457  0.21072685  0.79180749  1
  Li  Li32  1  0.48579042  0.68489110  0.86396434  1
  Li  Li33  1  0.47405081  0.24713106  0.92638220  1
  Li  Li34  1  0.48419727  0.84883322  0.93390683  1
  Li  Li35  1  0.00061113  0.20610510  0.78987855  1
  Y  Y36  1  0.01705135  0.69531742  0.13384763  1
  Y  Y37  1  0.99444052  0.18226841  0.21415536  1
  Y  Y38  1  0.93951504  0.16789954  0.05139368  1
  Y  Y39  1  0.98256898  0.19522548  0.36610967  1
  Y  Y40  1  0.05961940  0.66770234  0.44849726  1
  Y  Y41  1  0.00508455  0.68230247  0.28578559  1
  Y  Y42  1  0.98346647  0.53009777  0.63356743  1
  Y  Y43  1  0.00597680  0.04296743  0.71400076  1
  Y  Y44  1  0.05951657  0.05698688  0.55122195  1
  Y  Y45  1  0.01683448  0.03001461  0.86644077  1
  Y  Y46  1  0.94018263  0.55726165  0.94885211  1
  Y  Y47  1  0.99364534  0.54283000  0.78610688  1
  Cl  Cl48  1  0.19090006  0.34103809  0.08179741  1
  Cl  Cl49  1  0.23642126  0.51708659  0.16023490  1
  Cl  Cl50  1  0.21801146  0.18338408  0.15958694  1
  Cl  Cl51  1  0.15097414  0.18055644  0.99823943  1
  Cl  Cl52  1  0.24989088  0.86835374  0.15937605  1
  Cl  Cl53  1  0.26164169  0.67663921  0.08043847  1
  Cl  Cl54  1  0.21787919  0.02039272  0.08400274  1
  Cl  Cl55  1  0.69783033  0.35994465  0.03941155  1
  Cl  Cl56  1  0.75295162  0.68000490  0.18542731  1
  Cl  Cl57  1  0.73886775  0.02060140  0.18543768  1
  Cl  Cl58  1  0.74484859  0.85871052  0.11093992  1
  Cl  Cl59  1  0.69503241  0.99629550  0.03127613  1
  Cl  Cl60  1  0.77482518  0.52681969  0.10742535  1
  Cl  Cl61  1  0.74072679  0.17686600  0.11028595  1
  Cl  Cl62  1  0.76624736  0.35666991  0.18627603  1
  Cl  Cl63  1  0.23325840  0.85672434  0.31366956  1
  Cl  Cl64  1  0.22491478  0.02698712  0.39262580  1
  Cl  Cl65  1  0.25813985  0.67684160  0.38960125  1
  Cl  Cl66  1  0.24438317  0.01748290  0.24071719  1
  Cl  Cl67  1  0.25471627  0.67859724  0.23393330  1
  Cl  Cl68  1  0.25447259  0.35889799  0.38889866  1
  Cl  Cl69  1  0.24672489  0.17996272  0.31453232  1
  Cl  Cl70  1  0.26085487  0.52068155  0.31449419  1
  Cl  Cl71  1  0.25411593  0.35690151  0.23577041  1
  Cl  Cl72  1  0.74551378  0.85701071  0.26418960  1
  Cl  Cl73  1  0.73741195  0.17692267  0.41951177  1
  Cl  Cl74  1  0.78118195  0.52037282  0.41584929  1
  Cl  Cl75  1  0.74494360  0.17858400  0.26602642  1
  Cl  Cl76  1  0.74961046  0.36820697  0.34057723  1
  Cl  Cl77  1  0.75513998  0.51746378  0.25922520  1
  Cl  Cl78  1  0.76332574  0.01706932  0.33973019  1
  Cl  Cl79  1  0.78128086  0.68343243  0.34030527  1
  Cl  Cl80  1  0.80849646  0.84124148  0.41813534  1
  Cl  Cl81  1  0.30449440  0.49622128  0.46853234  1
  Cl  Cl82  1  0.30132845  0.85962079  0.46057498  1
  Cl  Cl83  1  0.84903206  0.68054156  0.50171518  1
  Cl  Cl84  1  0.80834080  0.88346779  0.58146700  1
  Cl  Cl85  1  0.76461885  0.70802780  0.66006514  1
  Cl  Cl86  1  0.78246969  0.04174510  0.65946566  1
  Cl  Cl87  1  0.84957342  0.04593289  0.49793527  1
  Cl  Cl88  1  0.75094226  0.35704863  0.65902044  1
  Cl  Cl89  1  0.73952663  0.54835151  0.57999755  1
  Cl  Cl90  1  0.78137701  0.20457230  0.58383725  1
  Cl  Cl91  1  0.30111555  0.86513318  0.53878843  1
  Cl  Cl92  1  0.24615762  0.54531470  0.68536081  1
  Cl  Cl93  1  0.26194534  0.20439558  0.68540184  1
  Cl  Cl94  1  0.25551582  0.36623018  0.61081656  1
  Cl  Cl95  1  0.30508240  0.22817888  0.53117650  1
  Cl  Cl96  1  0.22663950  0.69824270  0.60694687  1
  Cl  Cl97  1  0.25873356  0.04770468  0.61011834  1
  Cl  Cl98  1  0.23413994  0.86832872  0.68628479  1
  Cl  Cl99  1  0.76602826  0.36820534  0.81381666  1
  Cl  Cl100  1  0.77450032  0.19817656  0.89320854  1
  Cl  Cl101  1  0.74216333  0.54762683  0.88992123  1
  Cl  Cl102  1  0.75521304  0.20719925  0.74069821  1
  Cl  Cl103  1  0.74507345  0.54631045  0.73406781  1
  Cl  Cl104  1  0.74533298  0.86609498  0.88924336  1
  Cl  Cl105  1  0.75392911  0.04528802  0.81468614  1
  Cl  Cl106  1  0.73824786  0.70450884  0.81468167  1
  Cl  Cl107  1  0.74721736  0.86767465  0.73570420  1
  Cl  Cl108  1  0.25268603  0.36762668  0.76433247  1
  Cl  Cl109  1  0.26175352  0.04834429  0.91992225  1
  Cl  Cl110  1  0.21908028  0.70465554  0.91626117  1
  Cl  Cl111  1  0.25476609  0.04621912  0.76600849  1
  Cl  Cl112  1  0.24949403  0.85704985  0.84101762  1
  Cl  Cl113  1  0.24445211  0.70702759  0.75935532  1
  Cl  Cl114  1  0.23582125  0.20811613  0.83998094  1
  Cl  Cl115  1  0.21829295  0.54182370  0.84057227  1
  Cl  Cl116  1  0.19243191  0.38362406  0.91872599  1
  Cl  Cl117  1  0.69491189  0.72851915  0.96889708  1
  Cl  Cl118  1  0.69913446  0.36514636  0.96127444  1
  Cl  Cl119  1  0.15036275  0.54590364  0.00209522  1
