# generated using pymatgen
data_Li23Y7Cl44
_symmetry_space_group_name_H-M   'P 1'
_cell_length_a   6.09758500
_cell_length_b   11.17729600
_cell_length_c   51.47323257
_cell_angle_alpha   90.00000000
_cell_angle_beta   90.00000000
_cell_angle_gamma   89.99868772
_symmetry_Int_Tables_number   1
_chemical_formula_structural   Li23Y7Cl44
_chemical_formula_sum   'Li46 Y14 Cl88'
_cell_volume   3508.13306896
_cell_formula_units_Z   2
loop_
 _symmetry_equiv_pos_site_id
 _symmetry_equiv_pos_as_xyz
  1  'x, y, z'
loop_
 _atom_site_type_symbol
 _atom_site_label
 _atom_site_symmetry_multiplicity
 _atom_site_fract_x
 _atom_site_fract_y
 _atom_site_fract_z
 _atom_site_occupancy
  Li  Li0  1  0.87593069  0.12717333  0.06169807  1
  Li  Li1  1  0.99869508  0.32864314  0.12350655  1
  Li  Li2  1  0.93978530  0.83650320  0.06244422  1
  Li  Li3  1  0.48811050  0.16398904  0.18712856  1
  Li  Li4  1  0.43488330  0.33134389  0.04186845  1
  Li  Li5  1  0.48313750  0.85150777  0.06747403  1
  Li  Li6  1  0.50086030  0.32926426  0.12316850  1
  Li  Li7  1  0.50159987  0.65620455  0.12324504  1
  Li  Li8  1  0.99830535  0.82829863  0.18775554  1
  Li  Li9  1  0.99996761  0.66415936  0.25000529  1
  Li  Li10  1  0.00111442  0.82826818  0.31246855  1
  Li  Li11  1  0.99972670  0.33361359  0.24999922  1
  Li  Li12  1  0.49826606  0.65619857  0.37682172  1
  Li  Li13  1  0.49987456  0.82449126  0.18974863  1
  Li  Li14  1  0.49949612  0.34350209  0.24998582  1
  Li  Li15  1  0.49994568  0.82450772  0.31025031  1
  Li  Li16  1  0.51235926  0.16472709  0.31245231  1
  Li  Li17  1  0.00140864  0.32886174  0.37647165  1
  Li  Li18  1  0.12572609  0.12744722  0.43834899  1
  Li  Li19  1  0.06258974  0.83833450  0.43800843  1
  Li  Li20  1  0.49886350  0.32871096  0.37681390  1
  Li  Li21  1  0.51884657  0.85234262  0.43260978  1
  Li  Li22  1  0.56529341  0.33178873  0.45795959  1
  Li  Li23  1  0.62676450  0.84793043  0.56199454  1
  Li  Li24  1  0.50130012  0.64473750  0.62384205  1
  Li  Li25  1  0.56456201  0.13748594  0.56230125  1
  Li  Li26  1  0.01221010  0.81240124  0.68727223  1
  Li  Li27  1  0.06807887  0.64512276  0.54137585  1
  Li  Li28  1  0.01975807  0.12500141  0.56705246  1
  Li  Li29  1  0.99965276  0.64383108  0.62298081  1
  Li  Li30  1  0.99958372  0.31822708  0.62266717  1
  Li  Li31  1  0.50258806  0.14697894  0.68771482  1
  Li  Li32  1  0.50051418  0.31199173  0.74999439  1
  Li  Li33  1  0.49739221  0.14692736  0.81227438  1
  Li  Li34  1  0.50047769  0.64125000  0.74999990  1
  Li  Li35  1  0.00042381  0.31820675  0.87731104  1
  Li  Li36  1  0.00064169  0.15221208  0.68959613  1
  Li  Li37  1  0.00011871  0.63291506  0.74999610  1
  Li  Li38  1  0.99924330  0.15211073  0.81017781  1
  Li  Li39  1  0.98786655  0.81231947  0.81270690  1
  Li  Li40  1  0.49880150  0.64475730  0.87615178  1
  Li  Li41  1  0.37333546  0.84790272  0.93800542  1
  Li  Li42  1  0.43543810  0.13741052  0.93765565  1
  Li  Li43  1  0.00053813  0.64389489  0.87707566  1
  Li  Li44  1  0.98027477  0.12500300  0.93295059  1
  Li  Li45  1  0.93187468  0.64307730  0.95909941  1
  Y  Y46  1  0.00294331  0.50680626  0.06035004  1
  Y  Y47  1  0.99625498  0.99182724  0.12644532  1
  Y  Y48  1  0.99843739  0.49327517  0.18574242  1
  Y  Y49  1  0.99950069  0.00567607  0.25000838  1
  Y  Y50  1  0.00133359  0.49340153  0.31426200  1
  Y  Y51  1  0.00391916  0.99197411  0.37360438  1
  Y  Y52  1  0.99700415  0.50757729  0.43957883  1
  Y  Y53  1  0.49865755  0.46834361  0.56018434  1
  Y  Y54  1  0.50476363  0.98276067  0.62645978  1
  Y  Y55  1  0.50208382  0.48171714  0.68581576  1
  Y  Y56  1  0.49986101  0.96949320  0.74995033  1
  Y  Y57  1  0.49801020  0.48172668  0.81415675  1
  Y  Y58  1  0.49510756  0.98272208  0.87349574  1
  Y  Y59  1  0.50077887  0.46805943  0.93974717  1
  Cl  Cl60  1  0.25300269  0.33136934  0.08337914  1
  Cl  Cl61  1  0.18609382  0.99527237  0.07946136  1
  Cl  Cl62  1  0.24475680  0.82774184  0.14797259  1
  Cl  Cl63  1  0.24822403  0.48830650  0.14344870  1
  Cl  Cl64  1  0.24856917  0.68142627  0.08146784  1
  Cl  Cl65  1  0.27034308  0.48815294  0.02236843  1
  Cl  Cl66  1  0.25016665  0.16731092  0.14416369  1
  Cl  Cl67  1  0.74286268  0.66721611  0.16762032  1
  Cl  Cl68  1  0.75104181  0.48794114  0.10394212  1
  Cl  Cl69  1  0.73143225  0.82904067  0.10497954  1
  Cl  Cl70  1  0.74899017  0.98930663  0.16852529  1
  Cl  Cl71  1  0.76758607  0.67304360  0.04115789  1
  Cl  Cl72  1  0.75027599  0.32701620  0.16419673  1
  Cl  Cl73  1  0.80528563  0.31090090  0.04063364  1
  Cl  Cl74  1  0.69638287  0.97488873  0.04191266  1
  Cl  Cl75  1  0.75599170  0.16668522  0.10575809  1
  Cl  Cl76  1  0.22998128  0.66736367  0.20761909  1
  Cl  Cl77  1  0.22988998  0.83065762  0.27172899  1
  Cl  Cl78  1  0.23059802  0.49363363  0.27039233  1
  Cl  Cl79  1  0.24963078  0.32711554  0.33572465  1
  Cl  Cl80  1  0.25063998  0.98936899  0.33150975  1
  Cl  Cl81  1  0.24877333  0.17568275  0.27000966  1
  Cl  Cl82  1  0.25518004  0.99158674  0.20790633  1
  Cl  Cl83  1  0.25452224  0.33212412  0.20920180  1
  Cl  Cl84  1  0.25689534  0.66727215  0.33240404  1
  Cl  Cl85  1  0.75000544  0.16728056  0.35582606  1
  Cl  Cl86  1  0.74392472  0.99181352  0.29210590  1
  Cl  Cl87  1  0.74483136  0.33230356  0.29074289  1
  Cl  Cl88  1  0.75153578  0.48819588  0.35650378  1
  Cl  Cl89  1  0.75048193  0.17559814  0.22997843  1
  Cl  Cl90  1  0.75502176  0.82795628  0.35209787  1
  Cl  Cl91  1  0.76925341  0.83037888  0.22833455  1
  Cl  Cl92  1  0.76882481  0.49348351  0.22957256  1
  Cl  Cl93  1  0.76973784  0.66758796  0.29241253  1
  Cl  Cl94  1  0.24443756  0.16692912  0.39425812  1
  Cl  Cl95  1  0.19487250  0.31172811  0.45938320  1
  Cl  Cl96  1  0.30676973  0.97596670  0.45828595  1
  Cl  Cl97  1  0.23199974  0.67367792  0.45895017  1
  Cl  Cl98  1  0.24921089  0.48811983  0.39601338  1
  Cl  Cl99  1  0.26884185  0.82958977  0.39518332  1
  Cl  Cl100  1  0.72894413  0.48897700  0.47748838  1
  Cl  Cl101  1  0.75123199  0.68204204  0.41847710  1
  Cl  Cl102  1  0.74754274  0.33163819  0.41657274  1
  Cl  Cl103  1  0.81529340  0.99604215  0.42071221  1
  Cl  Cl104  1  0.24776184  0.64314845  0.58320410  1
  Cl  Cl105  1  0.31642732  0.97965777  0.57935599  1
  Cl  Cl106  1  0.25654370  0.14691599  0.64796904  1
  Cl  Cl107  1  0.25243439  0.48601778  0.64345967  1
  Cl  Cl108  1  0.25382830  0.29370258  0.58146112  1
  Cl  Cl109  1  0.22977304  0.48588279  0.52232748  1
  Cl  Cl110  1  0.25050680  0.80737127  0.64412745  1
  Cl  Cl111  1  0.75709977  0.30780179  0.66754756  1
  Cl  Cl112  1  0.74942032  0.48659329  0.60388506  1
  Cl  Cl113  1  0.77062611  0.14531280  0.60483430  1
  Cl  Cl114  1  0.75177962  0.98555338  0.66855330  1
  Cl  Cl115  1  0.73444349  0.30172431  0.54107475  1
  Cl  Cl116  1  0.75020886  0.64763574  0.66424864  1
  Cl  Cl117  1  0.69618832  0.66429310  0.54046623  1
  Cl  Cl118  1  0.80774156  0.99931839  0.54179543  1
  Cl  Cl119  1  0.74518850  0.80791796  0.60585785  1
  Cl  Cl120  1  0.27018877  0.30768161  0.70761533  1
  Cl  Cl121  1  0.26950687  0.14470593  0.77162209  1
  Cl  Cl122  1  0.26901056  0.48129981  0.77029736  1
  Cl  Cl123  1  0.24974674  0.64751997  0.83572201  1
  Cl  Cl124  1  0.24811256  0.98557485  0.83138642  1
  Cl  Cl125  1  0.25109152  0.79929150  0.77003160  1
  Cl  Cl126  1  0.24423882  0.98373699  0.70788419  1
  Cl  Cl127  1  0.24589505  0.64287890  0.70924350  1
  Cl  Cl128  1  0.24264364  0.30785677  0.83231762  1
  Cl  Cl129  1  0.74964877  0.80726470  0.85589165  1
  Cl  Cl130  1  0.75536364  0.98362334  0.79203223  1
  Cl  Cl131  1  0.75481693  0.64274714  0.79074683  1
  Cl  Cl132  1  0.74738883  0.48610895  0.85655145  1
  Cl  Cl133  1  0.74906671  0.79925538  0.72994632  1
  Cl  Cl134  1  0.74332056  0.14685270  0.85198896  1
  Cl  Cl135  1  0.73071762  0.14456633  0.72829096  1
  Cl  Cl136  1  0.73142316  0.48118878  0.72966032  1
  Cl  Cl137  1  0.72997000  0.30764494  0.79234664  1
  Cl  Cl138  1  0.25488325  0.80773750  0.89410244  1
  Cl  Cl139  1  0.30312514  0.66397339  0.95946354  1
  Cl  Cl140  1  0.19265193  0.99932452  0.95820399  1
  Cl  Cl141  1  0.26405053  0.30148417  0.95874121  1
  Cl  Cl142  1  0.25010300  0.48651182  0.89607600  1
  Cl  Cl143  1  0.22907128  0.14516170  0.89511651  1
  Cl  Cl144  1  0.76772509  0.48435390  0.97785657  1
  Cl  Cl145  1  0.74569261  0.29358003  0.91849635  1
  Cl  Cl146  1  0.75228592  0.64290917  0.91698325  1
  Cl  Cl147  1  0.68353048  0.97964890  0.92060216  1
