# generated using pymatgen
data_Li7Y2Cl13
_symmetry_space_group_name_H-M   'P 1'
_cell_length_a   11.17729600
_cell_length_b   23.17126381
_cell_length_c   55.75023140
_cell_angle_alpha   90.00000000
_cell_angle_beta   90.00000000
_cell_angle_gamma   61.15997857
_symmetry_Int_Tables_number   1
_chemical_formula_structural   Li7Y2Cl13
_chemical_formula_sum   'Li168 Y48 Cl312'
_cell_volume   12648.01466687
_cell_formula_units_Z   24
loop_
 _symmetry_equiv_pos_site_id
 _symmetry_equiv_pos_as_xyz
  1  'x, y, z'
loop_
 _atom_site_type_symbol
 _atom_site_label
 _atom_site_symmetry_multiplicity
 _atom_site_fract_x
 _atom_site_fract_y
 _atom_site_fract_z
 _atom_site_occupancy
  Li  Li0  1  0.70649186  0.30749141  0.05196018  1
  Li  Li1  1  0.09255350  0.59090566  0.06562893  1
  Li  Li2  1  0.75513828  0.42903559  0.04576415  1
  Li  Li3  1  0.07435563  0.75241968  0.08642431  1
  Li  Li4  1  0.56543741  0.11066029  0.01139920  1
  Li  Li5  1  0.75254813  0.59695743  0.06580638  1
  Li  Li6  1  0.77753714  0.39685734  0.10566845  1
  Li  Li7  1  0.72751368  0.94260284  0.05947934  1
  Li  Li8  1  0.41727117  0.90859671  0.04217643  1
  Li  Li9  1  0.42152285  0.40747687  0.10084063  1
  Li  Li10  1  0.73596459  0.07096065  0.05593655  1
  Li  Li11  1  0.80340811  0.54303018  0.01227890  1
  Li  Li12  1  0.09233958  0.26876186  0.08598746  1
  Li  Li13  1  0.05660908  0.78020316  0.03631564  1
  Li  Li14  1  0.45774411  0.24612359  0.07480682  1
  Li  Li15  1  0.41015757  0.78128275  0.04059710  1
  Li  Li16  1  0.42562214  0.91091083  0.10067626  1
  Li  Li17  1  0.43197834  0.43300209  0.03910960  1
  Li  Li18  1  0.11257144  0.06304428  0.11777861  1
  Li  Li19  1  0.16215106  0.51497131  0.17174986  1
  Li  Li20  1  0.12727906  0.20911049  0.13692795  1
  Li  Li21  1  0.17301793  0.66595512  0.18888481  1
  Li  Li22  1  0.77164039  0.06831129  0.11636009  1
  Li  Li23  1  0.83253280  0.51275282  0.17244556  1
  Li  Li24  1  0.85586498  0.31889147  0.20561198  1
  Li  Li25  1  0.80423140  0.86550543  0.15485070  1
  Li  Li26  1  0.46213012  0.86976832  0.15456053  1
  Li  Li27  1  0.51343342  0.32300598  0.20798388  1
  Li  Li28  1  0.83433371  0.01657688  0.17021013  1
  Li  Li29  1  0.80025549  0.55358811  0.11911241  1
  Li  Li30  1  0.17172681  0.16159170  0.18910062  1
  Li  Li31  1  0.13290907  0.70432044  0.13658532  1
  Li  Li32  1  0.50556619  0.16691910  0.19059527  1
  Li  Li33  1  0.47521053  0.70276862  0.13928176  1
  Li  Li34  1  0.52163914  0.81858165  0.20601551  1
  Li  Li35  1  0.47252479  0.36462634  0.15482085  1
  Li  Li36  1  0.20186662  0.97067007  0.22329091  1
  Li  Li37  1  0.24887186  0.42450999  0.27661238  1
  Li  Li38  1  0.21826361  0.12024641  0.24173974  1
  Li  Li39  1  0.26383104  0.57575193  0.29304133  1
  Li  Li40  1  0.87161894  0.97088286  0.22304749  1
  Li  Li41  1  0.91767339  0.42398467  0.27698422  1
  Li  Li42  1  0.94548552  0.22744757  0.31070548  1
  Li  Li43  1  0.89845293  0.77484437  0.25766139  1
  Li  Li44  1  0.55167640  0.78112047  0.25931678  1
  Li  Li45  1  0.59936735  0.23421362  0.31327338  1
  Li  Li46  1  0.92675567  0.92449416  0.27524694  1
  Li  Li47  1  0.88634059  0.46887831  0.22482990  1
  Li  Li48  1  0.26486747  0.06948655  0.29330379  1
  Li  Li49  1  0.21858296  0.61652196  0.24059914  1
  Li  Li50  1  0.59487008  0.07770552  0.29594672  1
  Li  Li51  1  0.55509553  0.61976463  0.24258252  1
  Li  Li52  1  0.61204406  0.72934180  0.31081854  1
  Li  Li53  1  0.56610966  0.27373968  0.25987925  1
  Li  Li54  1  0.29652762  0.88067920  0.32814895  1
  Li  Li55  1  0.35015507  0.33271884  0.38140999  1
  Li  Li56  1  0.31194582  0.03001758  0.34642890  1
  Li  Li57  1  0.36504486  0.48543905  0.39642033  1
  Li  Li58  1  0.96341177  0.87818499  0.32798150  1
  Li  Li59  1  0.01390327  0.32561618  0.38359729  1
  Li  Li60  1  0.04352054  0.12284644  0.41322509  1
  Li  Li61  1  0.99078649  0.68676501  0.36077907  1
  Li  Li62  1  0.64333338  0.68929746  0.36403065  1
  Li  Li63  1  0.70712704  0.11786684  0.41856366  1
  Li  Li64  1  0.02462891  0.83505656  0.38076317  1
  Li  Li65  1  0.97590168  0.37610875  0.32939345  1
  Li  Li66  1  0.34405551  0.99012808  0.40113347  1
  Li  Li67  1  0.31081852  0.52562188  0.34437409  1
  Li  Li68  1  0.69362961  0.98160182  0.39963325  1
  Li  Li69  1  0.63935528  0.53136178  0.34662791  1
  Li  Li70  1  0.70390689  0.63526997  0.41796141  1
  Li  Li71  1  0.66433214  0.18414597  0.36668576  1
  Li  Li72  1  0.37844540  0.79865629  0.43021354  1
  Li  Li73  1  0.42518839  0.08500738  0.45462407  1
  Li  Li74  1  0.36976967  0.96132812  0.45590869  1
  Li  Li75  1  0.06028522  0.78939251  0.43362993  1
  Li  Li76  1  0.26982844  0.28196387  0.48441512  1
  Li  Li77  1  0.07216957  0.60360377  0.45288768  1
  Li  Li78  1  0.61533058  0.70924912  0.47490752  1
  Li  Li79  1  0.04463744  0.82404212  0.49082012  1
  Li  Li80  1  0.17057531  0.25438337  0.43814226  1
  Li  Li81  1  0.34490038  0.47562120  0.45024320  1
  Li  Li82  1  0.93422930  0.40450855  0.43999404  1
  Li  Li83  1  0.70985779  0.95365028  0.46535181  1
  Li  Li84  1  0.17001937  0.81762045  0.55179192  1
  Li  Li85  1  0.78376150  0.53282634  0.56561127  1
  Li  Li86  1  0.12106886  0.69595077  0.54593051  1
  Li  Li87  1  0.79961264  0.37225003  0.58658955  1
  Li  Li88  1  0.30746472  0.01523394  0.51115494  1
  Li  Li89  1  0.12382400  0.52654651  0.56571417  1
  Li  Li90  1  0.09746230  0.72755560  0.60537035  1
  Li  Li91  1  0.14680006  0.18210879  0.55952574  1
  Li  Li92  1  0.45864407  0.21542421  0.54224342  1
  Li  Li93  1  0.45461439  0.71742174  0.60087291  1
  Li  Li94  1  0.13785293  0.05369907  0.55608597  1
  Li  Li95  1  0.07324627  0.58287938  0.51242895  1
  Li  Li96  1  0.78451276  0.85621043  0.58597036  1
  Li  Li97  1  0.81972776  0.34461195  0.53641048  1
  Li  Li98  1  0.41831813  0.87810316  0.57382083  1
  Li  Li99  1  0.46679137  0.34297445  0.54021783  1
  Li  Li100  1  0.44996722  0.21268929  0.60095045  1
  Li  Li101  1  0.44468830  0.69149820  0.53912550  1
  Li  Li102  1  0.76224540  0.06152648  0.61843370  1
  Li  Li103  1  0.71318440  0.61061029  0.67173135  1
  Li  Li104  1  0.74939279  0.91578488  0.63673573  1
  Li  Li105  1  0.70173735  0.45933772  0.68938061  1
  Li  Li106  1  0.10472289  0.05565096  0.61611801  1
  Li  Li107  1  0.04297252  0.61174851  0.67200647  1
  Li  Li108  1  0.01947420  0.80598616  0.70488110  1
  Li  Li109  1  0.06890207  0.25994667  0.65490748  1
  Li  Li110  1  0.41180877  0.25560093  0.65453593  1
  Li  Li111  1  0.36148717  0.80256563  0.70817990  1
  Li  Li112  1  0.04020909  0.10893139  0.67029737  1
  Li  Li113  1  0.07650214  0.56974344  0.61908886  1
  Li  Li114  1  0.70375156  0.96298151  0.68936747  1
  Li  Li115  1  0.74161267  0.42175731  0.63708355  1
  Li  Li116  1  0.36714018  0.95855003  0.68967364  1
  Li  Li117  1  0.40155547  0.42115930  0.63946269  1
  Li  Li118  1  0.35434922  0.30508448  0.70624093  1
  Li  Li119  1  0.40304084  0.76027716  0.65479235  1
  Li  Li120  1  0.67179542  0.15452157  0.72349926  1
  Li  Li121  1  0.62618777  0.70080688  0.77673436  1
  Li  Li122  1  0.65577371  0.00518665  0.74175174  1
  Li  Li123  1  0.60975916  0.54972465  0.79296703  1
  Li  Li124  1  0.00161351  0.15459248  0.72312476  1
  Li  Li125  1  0.95666256  0.70074519  0.77684773  1
  Li  Li126  1  0.92969040  0.89652367  0.81082788  1
  Li  Li127  1  0.97648361  0.34902526  0.75756355  1
  Li  Li128  1  0.31730712  0.34571008  0.75929656  1
  Li  Li129  1  0.27358378  0.89147347  0.81344867  1
  Li  Li130  1  0.94474155  0.20056692  0.77540138  1
  Li  Li131  1  0.99106695  0.65456941  0.72457384  1
  Li  Li132  1  0.61202146  0.05366279  0.79349898  1
  Li  Li133  1  0.65639498  0.50973406  0.74062429  1
  Li  Li134  1  0.27891140  0.04787151  0.79623680  1
  Li  Li135  1  0.32042737  0.50573737  0.74266247  1
  Li  Li136  1  0.26273661  0.39558710  0.81089780  1
  Li  Li137  1  0.30916699  0.85145814  0.76022833  1
  Li  Li138  1  0.57655207  0.24577229  0.82823459  1
  Li  Li139  1  0.52654853  0.79124822  0.88123272  1
  Li  Li140  1  0.56002069  0.09676347  0.84621158  1
  Li  Li141  1  0.51109141  0.64018605  0.89658804  1
  Li  Li142  1  0.90997714  0.24625341  0.82800401  1
  Li  Li143  1  0.86023092  0.79971232  0.88343680  1
  Li  Li144  1  0.83203928  0.00207641  0.91270504  1
  Li  Li145  1  0.88275240  0.43927005  0.86082954  1
  Li  Li146  1  0.23070565  0.43560890  0.86419594  1
  Li  Li147  1  0.16853134  0.00534598  0.91856020  1
  Li  Li148  1  0.85117368  0.28982801  0.88072618  1
  Li  Li149  1  0.89821520  0.74908351  0.82927608  1
  Li  Li150  1  0.52993422  0.13513620  0.90108537  1
  Li  Li151  1  0.56287135  0.59966419  0.84454125  1
  Li  Li152  1  0.18099987  0.14253968  0.89979272  1
  Li  Li153  1  0.23467010  0.59391978  0.84584265  1
  Li  Li154  1  0.17192820  0.48993281  0.91826246  1
  Li  Li155  1  0.21064763  0.94153690  0.86662397  1
  Li  Li156  1  0.49698855  0.32659430  0.93075562  1
  Li  Li157  1  0.45191645  0.03875848  0.95456756  1
  Li  Li158  1  0.51080168  0.16194253  0.95588886  1
  Li  Li159  1  0.81534055  0.33632354  0.93338448  1
  Li  Li160  1  0.60548937  0.84088971  0.98439148  1
  Li  Li161  1  0.80183037  0.52267140  0.95287797  1
  Li  Li162  1  0.25469734  0.41717846  0.97490629  1
  Li  Li163  1  0.83225804  0.30236593  0.99067964  1
  Li  Li164  1  0.70491339  0.86956340  0.93820255  1
  Li  Li165  1  0.52997000  0.65239678  0.95015285  1
  Li  Li166  1  0.94131955  0.72008416  0.93955554  1
  Li  Li167  1  0.16794375  0.16953129  0.96526702  1
  Y  Y168  1  0.41809653  0.59646629  0.06820767  1
  Y  Y169  1  0.74752991  0.75145996  0.08522157  1
  Y  Y170  1  0.08671854  0.43499469  0.05086027  1
  Y  Y171  1  0.09190429  0.90430681  0.10093107  1
  Y  Y172  1  0.44574001  0.06050262  0.12020531  1
  Y  Y173  1  0.50354897  0.51386218  0.17212738  1
  Y  Y174  1  0.78601968  0.21356244  0.13801520  1
  Y  Y175  1  0.83381671  0.67008395  0.18946338  1
  Y  Y176  1  0.15204097  0.35799023  0.15603680  1
  Y  Y177  1  0.18790276  0.81481141  0.20514902  1
  Y  Y178  1  0.54508984  0.96987023  0.22351158  1
  Y  Y179  1  0.59151186  0.42441072  0.27631860  1
  Y  Y180  1  0.87616000  0.12504395  0.24219111  1
  Y  Y181  1  0.92272652  0.58057701  0.29378603  1
  Y  Y182  1  0.23445119  0.26848434  0.25917052  1
  Y  Y183  1  0.27959515  0.72466261  0.30985110  1
  Y  Y184  1  0.63573266  0.88021385  0.32824449  1
  Y  Y185  1  0.68396980  0.33381741  0.38250957  1
  Y  Y186  1  0.96752915  0.03449808  0.34527041  1
  Y  Y187  1  0.01055382  0.49236491  0.39329732  1
  Y  Y188  1  0.32889085  0.17768455  0.36411821  1
  Y  Y189  1  0.36860212  0.63591518  0.41475445  1
  Y  Y190  1  0.72367331  0.79306057  0.43113714  1
  Y  Y191  1  0.04972004  0.95410323  0.45093657  1
  Y  Y192  1  0.45789284  0.52815323  0.56831463  1
  Y  Y193  1  0.12862247  0.37267563  0.58527481  1
  Y  Y194  1  0.78954698  0.68971052  0.55090174  1
  Y  Y195  1  0.78311332  0.22041725  0.60095726  1
  Y  Y196  1  0.42990967  0.06405808  0.62021883  1
  Y  Y197  1  0.37166351  0.61126150  0.67209806  1
  Y  Y198  1  0.09015181  0.91106571  0.63783714  1
  Y  Y199  1  0.04153001  0.45472671  0.68952365  1
  Y  Y200  1  0.72334322  0.76703766  0.65599412  1
  Y  Y201  1  0.68593200  0.31047491  0.70530497  1
  Y  Y202  1  0.32917647  0.15491984  0.72359999  1
  Y  Y203  1  0.28271061  0.70101189  0.77623319  1
  Y  Y204  1  0.99847407  0.99973454  0.74209052  1
  Y  Y205  1  0.95159610  0.54461734  0.79385478  1
  Y  Y206  1  0.63995753  0.85664578  0.75908442  1
  Y  Y207  1  0.59452997  0.40083568  0.80986265  1
  Y  Y208  1  0.23743527  0.24535733  0.82804492  1
  Y  Y209  1  0.19107634  0.79136582  0.88247375  1
  Y  Y210  1  0.90622397  0.09062729  0.84521420  1
  Y  Y211  1  0.86545321  0.63247567  0.89304502  1
  Y  Y212  1  0.54540219  0.94769671  0.86410746  1
  Y  Y213  1  0.50634150  0.48964648  0.91490632  1
  Y  Y214  1  0.15226181  0.33170688  0.93108824  1
  Y  Y215  1  0.82653049  0.17095319  0.95108088  1
  Cl  Cl216  1  0.19790615  0.47965777  0.08178265  1
  Cl  Cl217  1  0.86879362  0.32654094  0.06943592  1
  Cl  Cl218  1  0.20524503  0.63519300  0.09689639  1
  Cl  Cl219  1  0.57165074  0.17188928  0.04410706  1
  Cl  Cl220  1  0.88015935  0.62726059  0.09696396  1
  Cl  Cl221  1  0.49693291  0.33757719  0.06643579  1
  Cl  Cl222  1  0.43721524  0.84512508  0.01016234  1
  Cl  Cl223  1  0.20810364  0.31023871  0.06186092  1
  Cl  Cl224  1  0.56008069  0.62746748  0.09885642  1
  Cl  Cl225  1  0.54573307  0.47189266  0.08173022  1
  Cl  Cl226  1  0.72054110  0.00208330  0.02648111  1
  Cl  Cl227  1  0.87529996  0.47492221  0.08195669  1
  Cl  Cl228  1  0.26294452  0.42073464  0.01656320  1
  Cl  Cl229  1  0.29253759  0.87823453  0.06852880  1
  Cl  Cl230  1  0.31106760  0.18159854  0.10423916  1
  Cl  Cl231  1  0.28794747  0.71961419  0.04615464  1
  Cl  Cl232  1  0.65786256  0.18388757  0.10533130  1
  Cl  Cl233  1  0.63732120  0.71388606  0.05178642  1
  Cl  Cl234  1  0.61626839  0.87674456  0.06636279  1
  Cl  Cl235  1  0.64622366  0.02947694  0.08875937  1
  Cl  Cl236  1  0.62155333  0.56117385  0.03845075  1
  Cl  Cl237  1  0.92669866  0.42580958  0.01778457  1
  Cl  Cl238  1  0.97439543  0.86662441  0.06573425  1
  Cl  Cl239  1  0.31280981  0.02668692  0.08862287  1
  Cl  Cl240  1  0.29088240  0.56090237  0.03754670  1
  Cl  Cl241  1  0.96045105  0.02625725  0.08456832  1
  Cl  Cl242  1  0.94921592  0.56415758  0.03724009  1
  Cl  Cl243  1  0.66063157  0.37784545  0.01914365  1
  Cl  Cl244  1  0.95340726  0.72400798  0.05363732  1
  Cl  Cl245  1  0.23555602  0.93617022  0.12965575  1
  Cl  Cl246  1  0.28795110  0.39329546  0.18605457  1
  Cl  Cl247  1  0.24401457  0.08973041  0.15031248  1
  Cl  Cl248  1  0.29473607  0.54808425  0.20184171  1
  Cl  Cl249  1  0.91621872  0.08407793  0.14706706  1
  Cl  Cl250  1  0.96082332  0.54433728  0.20181385  1
  Cl  Cl251  1  0.59370311  0.24493015  0.17108220  1
  Cl  Cl252  1  0.54572394  0.78995277  0.11547719  1
  Cl  Cl253  1  0.26598551  0.23284514  0.16929532  1
  Cl  Cl254  1  0.21525894  0.77874365  0.11333549  1
  Cl  Cl255  1  0.59813974  0.08464734  0.15052010  1
  Cl  Cl256  1  0.64594012  0.54140029  0.20350994  1
  Cl  Cl257  1  0.56303442  0.93265726  0.13327441  1
  Cl  Cl258  1  0.61342737  0.39024431  0.18770046  1
  Cl  Cl259  1  0.90200882  0.93497442  0.13341974  1
  Cl  Cl260  1  0.95133834  0.39316603  0.18858365  1
  Cl  Cl261  1  0.94229081  0.23459167  0.16992407  1
  Cl  Cl262  1  0.89491971  0.77997631  0.11560698  1
  Cl  Cl263  1  0.34106103  0.33902030  0.12486969  1
  Cl  Cl264  1  0.38417039  0.79330468  0.17297038  1
  Cl  Cl265  1  0.40619638  0.09450944  0.20884797  1
  Cl  Cl266  1  0.36431175  0.63900694  0.15608808  1
  Cl  Cl267  1  0.75286861  0.09118880  0.20806469  1
  Cl  Cl268  1  0.71094328  0.63476601  0.15587392  1
  Cl  Cl269  1  0.66154139  0.33821850  0.12458134  1
  Cl  Cl270  1  0.70435116  0.79395781  0.17418181  1
  Cl  Cl271  1  0.73969200  0.94392056  0.19130991  1
  Cl  Cl272  1  0.70080553  0.48708962  0.14062303  1
  Cl  Cl273  1  0.01430346  0.32807738  0.12426577  1
  Cl  Cl274  1  0.05447913  0.78386430  0.17275484  1
  Cl  Cl275  1  0.40319855  0.93752863  0.19310869  1
  Cl  Cl276  1  0.36107033  0.48313834  0.14208689  1
  Cl  Cl277  1  0.06075708  0.94123239  0.19307740  1
  Cl  Cl278  1  0.01960677  0.48427202  0.14297013  1
  Cl  Cl279  1  0.99105160  0.18245642  0.10771230  1
  Cl  Cl280  1  0.04076579  0.63825995  0.15923403  1
  Cl  Cl281  1  0.32994517  0.84706649  0.23509825  1
  Cl  Cl282  1  0.37637811  0.30092255  0.28927697  1
  Cl  Cl283  1  0.33977890  0.00105022  0.25365303  1
  Cl  Cl284  1  0.38362683  0.45753021  0.30620911  1
  Cl  Cl285  1  0.00458790  0.99769319  0.25313766  1
  Cl  Cl286  1  0.04880862  0.45425335  0.30607583  1
  Cl  Cl287  1  0.68260707  0.15506296  0.27451696  1
  Cl  Cl288  1  0.63659872  0.70154619  0.22096672  1
  Cl  Cl289  1  0.35422414  0.14418918  0.27322574  1
  Cl  Cl290  1  0.30813100  0.69122797  0.21968752  1
  Cl  Cl291  1  0.69037298  0.99531117  0.25455621  1
  Cl  Cl292  1  0.73464992  0.45007531  0.30787677  1
  Cl  Cl293  1  0.65612119  0.84493001  0.23833437  1
  Cl  Cl294  1  0.70029033  0.30024396  0.29219114  1
  Cl  Cl295  1  0.99371505  0.84838509  0.23827550  1
  Cl  Cl296  1  0.04091181  0.30234532  0.29276104  1
  Cl  Cl297  1  0.03177578  0.14503869  0.27411629  1
  Cl  Cl298  1  0.98665442  0.69229121  0.22089031  1
  Cl  Cl299  1  0.42977093  0.24762999  0.22750365  1
  Cl  Cl300  1  0.47457834  0.70396371  0.27797447  1
  Cl  Cl301  1  0.49755724  0.00498157  0.31315282  1
  Cl  Cl302  1  0.45249305  0.54921373  0.26079176  1
  Cl  Cl303  1  0.84037246  0.00120239  0.31224856  1
  Cl  Cl304  1  0.79651805  0.54604211  0.26064889  1
  Cl  Cl305  1  0.74957600  0.24928197  0.22838640  1
  Cl  Cl306  1  0.79442287  0.70441898  0.27907561  1
  Cl  Cl307  1  0.83108238  0.85407670  0.29618482  1
  Cl  Cl308  1  0.78817394  0.39798511  0.24507808  1
  Cl  Cl309  1  0.09892749  0.23846614  0.22721186  1
  Cl  Cl310  1  0.14466917  0.69396469  0.27791644  1
  Cl  Cl311  1  0.49412243  0.84799562  0.29778236  1
  Cl  Cl312  1  0.44827624  0.39191250  0.24667210  1
  Cl  Cl313  1  0.15216243  0.85104602  0.29797203  1
  Cl  Cl314  1  0.10788416  0.39519734  0.24731419  1
  Cl  Cl315  1  0.08344653  0.09325793  0.21217089  1
  Cl  Cl316  1  0.12952799  0.54827841  0.26373990  1
  Cl  Cl317  1  0.42219622  0.75629072  0.34002534  1
  Cl  Cl318  1  0.47305448  0.20762880  0.39471765  1
  Cl  Cl319  1  0.43126155  0.91113517  0.35809513  1
  Cl  Cl320  1  0.47333717  0.36887935  0.41188825  1
  Cl  Cl321  1  0.09595261  0.90807292  0.35728518  1
  Cl  Cl322  1  0.13532288  0.36892950  0.41154868  1
  Cl  Cl323  1  0.77773225  0.06358392  0.37839005  1
  Cl  Cl324  1  0.72692522  0.61122534  0.32572158  1
  Cl  Cl325  1  0.44670051  0.05351687  0.37752791  1
  Cl  Cl326  1  0.40090793  0.60036538  0.32415909  1
  Cl  Cl327  1  0.78144105  0.90499667  0.35974243  1
  Cl  Cl328  1  0.82862744  0.35803098  0.41363359  1
  Cl  Cl329  1  0.74691356  0.75541702  0.34297929  1
  Cl  Cl330  1  0.79335925  0.21059960  0.39804057  1
  Cl  Cl331  1  0.08533358  0.75890812  0.34322161  1
  Cl  Cl332  1  0.14095078  0.21205309  0.39932317  1
  Cl  Cl333  1  0.12187861  0.05512364  0.37697909  1
  Cl  Cl334  1  0.07666028  0.60223419  0.32542454  1
  Cl  Cl335  1  0.52078881  0.15816375  0.33195797  1
  Cl  Cl336  1  0.57210163  0.61138448  0.38411122  1
  Cl  Cl337  1  0.58495928  0.91716419  0.41874546  1
  Cl  Cl338  1  0.54528055  0.45826493  0.36571066  1
  Cl  Cl339  1  0.93996975  0.90968059  0.41693967  1
  Cl  Cl340  1  0.87981282  0.45551443  0.36353152  1
  Cl  Cl341  1  0.84019847  0.15954850  0.33250233  1
  Cl  Cl342  1  0.88131085  0.61835366  0.38321742  1
  Cl  Cl343  1  0.92484201  0.76332254  0.40071547  1
  Cl  Cl344  1  0.88063798  0.30584377  0.35062170  1
  Cl  Cl345  1  0.19177101  0.14884643  0.33194954  1
  Cl  Cl346  1  0.24251386  0.60594347  0.38094944  1
  Cl  Cl347  1  0.58344006  0.75751620  0.40234160  1
  Cl  Cl348  1  0.54301440  0.30062541  0.35215419  1
  Cl  Cl349  1  0.24667155  0.76210900  0.40217757  1
  Cl  Cl350  1  0.19834009  0.30497634  0.35318470  1
  Cl  Cl351  1  0.17639529  0.00283226  0.31585175  1
  Cl  Cl352  1  0.22734142  0.45417534  0.36564858  1
  Cl  Cl353  1  0.51149368  0.66683757  0.44597450  1
  Cl  Cl354  1  0.49210826  0.99572229  0.48355600  1
  Cl  Cl355  1  0.52430941  0.81987161  0.46220503  1
  Cl  Cl356  1  0.19158099  0.82301534  0.46073162  1
  Cl  Cl357  1  0.90038453  0.94798148  0.48708655  1
  Cl  Cl358  1  0.84230188  0.51677989  0.42960080  1
  Cl  Cl359  1  0.47905459  0.51426815  0.43090295  1
  Cl  Cl360  1  0.85875948  0.82307379  0.46337243  1
  Cl  Cl361  1  0.82649831  0.67108131  0.45047951  1
  Cl  Cl362  1  0.17422364  0.67185408  0.44718160  1
  Cl  Cl363  1  0.19160492  0.97611878  0.48263126  1
  Cl  Cl364  1  0.16183577  0.52023928  0.42246488  1
  Cl  Cl365  1  0.04434345  0.32990164  0.47010124  1
  Cl  Cl366  1  0.92264738  0.07936486  0.43846660  1
  Cl  Cl367  1  0.26199657  0.06632751  0.43396735  1
  Cl  Cl368  1  0.19075544  0.52036003  0.48100364  1
  Cl  Cl369  1  0.64404451  0.04428462  0.43641423  1
  Cl  Cl370  1  0.36675508  0.19463988  0.45913697  1
  Cl  Cl371  1  0.26086534  0.91864833  0.42143297  1
  Cl  Cl372  1  0.67769664  0.64488591  0.58162659  1
  Cl  Cl373  1  0.00770399  0.79856148  0.56943029  1
  Cl  Cl374  1  0.67043492  0.48960240  0.59707213  1
  Cl  Cl375  1  0.30203363  0.95316172  0.54374114  1
  Cl  Cl376  1  0.99585938  0.49710615  0.59687873  1
  Cl  Cl377  1  0.37948837  0.78694166  0.56631928  1
  Cl  Cl378  1  0.43735544  0.27896661  0.51019158  1
  Cl  Cl379  1  0.66818008  0.81472857  0.56175705  1
  Cl  Cl380  1  0.31569225  0.49730352  0.59895051  1
  Cl  Cl381  1  0.32965639  0.65304579  0.58151247  1
  Cl  Cl382  1  0.15283096  0.12295412  0.52653255  1
  Cl  Cl383  1  0.00035359  0.64993618  0.58205048  1
  Cl  Cl384  1  0.61315336  0.70411958  0.51655031  1
  Cl  Cl385  1  0.58314360  0.24626479  0.56847766  1
  Cl  Cl386  1  0.56547520  0.94303750  0.60434155  1
  Cl  Cl387  1  0.58827325  0.40488657  0.54626598  1
  Cl  Cl388  1  0.21822025  0.94052971  0.60511019  1
  Cl  Cl389  1  0.23971717  0.41016115  0.55193319  1
  Cl  Cl390  1  0.25896954  0.24764871  0.56634883  1
  Cl  Cl391  1  0.22996611  0.09468032  0.58872098  1
  Cl  Cl392  1  0.25463795  0.56319367  0.53861515  1
  Cl  Cl393  1  0.94947096  0.69965348  0.51798233  1
  Cl  Cl394  1  0.90101670  0.25837114  0.56587451  1
  Cl  Cl395  1  0.56306154  0.09771512  0.58864293  1
  Cl  Cl396  1  0.58534237  0.56337108  0.53755884  1
  Cl  Cl397  1  0.91588105  0.09861735  0.58442024  1
  Cl  Cl398  1  0.92718902  0.56072884  0.53715501  1
  Cl  Cl399  1  0.21558205  0.74727160  0.51908203  1
  Cl  Cl400  1  0.92199852  0.40110148  0.55374280  1
  Cl  Cl401  1  0.64012507  0.18819053  0.62971548  1
  Cl  Cl402  1  0.58698525  0.73193938  0.68602538  1
  Cl  Cl403  1  0.63132773  0.03522912  0.65037679  1
  Cl  Cl404  1  0.58044259  0.57731062  0.70187891  1
  Cl  Cl405  1  0.95976424  0.04055670  0.64698818  1
  Cl  Cl406  1  0.91510544  0.58063880  0.70175060  1
  Cl  Cl407  1  0.28177760  0.88026711  0.67099914  1
  Cl  Cl408  1  0.33046765  0.33412396  0.61556277  1
  Cl  Cl409  1  0.60929987  0.89212817  0.66925292  1
  Cl  Cl410  1  0.65941295  0.34596668  0.61340142  1
  Cl  Cl411  1  0.27690962  0.04020925  0.65057063  1
  Cl  Cl412  1  0.22927341  0.58342563  0.70341858  1
  Cl  Cl413  1  0.31220819  0.19193522  0.63325160  1
  Cl  Cl414  1  0.26198263  0.73489841  0.68763433  1
  Cl  Cl415  1  0.97300349  0.19020138  0.63345353  1
  Cl  Cl416  1  0.92421852  0.73163033  0.68844221  1
  Cl  Cl417  1  0.93346901  0.89021259  0.66975721  1
  Cl  Cl418  1  0.98026723  0.34498226  0.61568624  1
  Cl  Cl419  1  0.53449030  0.78587224  0.62482955  1
  Cl  Cl420  1  0.49059434  0.33175221  0.67302702  1
  Cl  Cl421  1  0.46826032  0.03074546  0.70879496  1
  Cl  Cl422  1  0.51062014  0.48595519  0.65628300  1
  Cl  Cl423  1  0.12150747  0.03405498  0.70806909  1
  Cl  Cl424  1  0.16462847  0.48969869  0.65580166  1
  Cl  Cl425  1  0.21437492  0.78644052  0.62447540  1
  Cl  Cl426  1  0.17058509  0.33098287  0.67423190  1
  Cl  Cl427  1  0.13397495  0.18149529  0.69137651  1
  Cl  Cl428  1  0.17505571  0.63755376  0.64053907  1
  Cl  Cl429  1  0.86151421  0.79671285  0.62424466  1
  Cl  Cl430  1  0.81955194  0.34153925  0.67291723  1
  Cl  Cl431  1  0.47089498  0.18750806  0.69314969  1
  Cl  Cl432  1  0.51447397  0.64186818  0.64207760  1
  Cl  Cl433  1  0.81314998  0.18406070  0.69316055  1
  Cl  Cl434  1  0.85573620  0.64053692  0.64292805  1
  Cl  Cl435  1  0.88483452  0.94243480  0.60762585  1
  Cl  Cl436  1  0.83407186  0.48703908  0.65938117  1
  Cl  Cl437  1  0.54384259  0.27828103  0.73522481  1
  Cl  Cl438  1  0.49861891  0.82439488  0.78943964  1
  Cl  Cl439  1  0.53442877  0.12403470  0.75369522  1
  Cl  Cl440  1  0.49041707  0.66774637  0.80620512  1
  Cl  Cl441  1  0.86917390  0.12713785  0.75315480  1
  Cl  Cl442  1  0.82575608  0.67094811  0.80615004  1
  Cl  Cl443  1  0.19132105  0.97009592  0.77454257  1
  Cl  Cl444  1  0.23818321  0.42340906  0.72106023  1
  Cl  Cl445  1  0.52041094  0.98090459  0.77326879  1
  Cl  Cl446  1  0.56680226  0.43408874  0.71990136  1
  Cl  Cl447  1  0.18327231  0.12994674  0.75459139  1
  Cl  Cl448  1  0.14001184  0.67509756  0.80785934  1
  Cl  Cl449  1  0.21811327  0.28010140  0.73837614  1
  Cl  Cl450  1  0.17427001  0.82497250  0.79225117  1
  Cl  Cl451  1  0.87982165  0.27672687  0.73848982  1
  Cl  Cl452  1  0.83416791  0.82255396  0.79265293  1
  Cl  Cl453  1  0.84302919  0.97969004  0.77402211  1
  Cl  Cl454  1  0.88836526  0.43287406  0.72100412  1
  Cl  Cl455  1  0.44418520  0.87775906  0.72754992  1
  Cl  Cl456  1  0.39902595  0.42169352  0.77808292  1
  Cl  Cl457  1  0.37652000  0.12044234  0.81309542  1
  Cl  Cl458  1  0.42214330  0.57622146  0.76065567  1
  Cl  Cl459  1  0.03293635  0.12422898  0.81217096  1
  Cl  Cl460  1  0.07827864  0.57893025  0.76075037  1
  Cl  Cl461  1  0.12514521  0.87552085  0.72835264  1
  Cl  Cl462  1  0.07944349  0.42079318  0.77913723  1
  Cl  Cl463  1  0.04203949  0.27148187  0.79602363  1
  Cl  Cl464  1  0.08660219  0.72672562  0.74503289  1
  Cl  Cl465  1  0.77536635  0.88674616  0.72711652  1
  Cl  Cl466  1  0.72929322  0.43160516  0.77796728  1
  Cl  Cl467  1  0.37972759  0.27752721  0.79774933  1
  Cl  Cl468  1  0.42651413  0.73342095  0.74674004  1
  Cl  Cl469  1  0.72102795  0.27437365  0.79797553  1
  Cl  Cl470  1  0.76681634  0.72998341  0.74727452  1
  Cl  Cl471  1  0.79094641  0.03178543  0.71209447  1
  Cl  Cl472  1  0.74481594  0.57733053  0.76375458  1
  Cl  Cl473  1  0.45216368  0.36904358  0.84009323  1
  Cl  Cl474  1  0.40145493  0.91756174  0.89467588  1
  Cl  Cl475  1  0.44159322  0.21460929  0.85800890  1
  Cl  Cl476  1  0.40158750  0.75664857  0.91200964  1
  Cl  Cl477  1  0.77794931  0.21697246  0.85733231  1
  Cl  Cl478  1  0.73995906  0.75602822  0.91122122  1
  Cl  Cl479  1  0.09573069  0.06160827  0.87843200  1
  Cl  Cl480  1  0.14728930  0.51403095  0.82577126  1
  Cl  Cl481  1  0.42712275  0.07189092  0.87744830  1
  Cl  Cl482  1  0.47303100  0.52518819  0.82423780  1
  Cl  Cl483  1  0.09200859  0.22014812  0.85944297  1
  Cl  Cl484  1  0.04616414  0.76720897  0.91353166  1
  Cl  Cl485  1  0.12725785  0.37002038  0.84288204  1
  Cl  Cl486  1  0.08139632  0.91467282  0.89806316  1
  Cl  Cl487  1  0.78820825  0.36648022  0.84323896  1
  Cl  Cl488  1  0.73341993  0.91278920  0.89927128  1
  Cl  Cl489  1  0.75149432  0.07038726  0.87683066  1
  Cl  Cl490  1  0.79714431  0.52346962  0.82546857  1
  Cl  Cl491  1  0.35240087  0.96755353  0.83206943  1
  Cl  Cl492  1  0.30326676  0.51387314  0.88427046  1
  Cl  Cl493  1  0.28975891  0.20758260  0.91871927  1
  Cl  Cl494  1  0.32945684  0.66717362  0.86583001  1
  Cl  Cl495  1  0.93586764  0.21512543  0.91694864  1
  Cl  Cl496  1  0.99533249  0.66990928  0.86336641  1
  Cl  Cl497  1  0.03408064  0.96543148  0.83254445  1
  Cl  Cl498  1  0.99367764  0.50656282  0.88311691  1
  Cl  Cl499  1  0.95102023  0.36165848  0.90060738  1
  Cl  Cl500  1  0.99412923  0.81949193  0.85055149  1
  Cl  Cl501  1  0.68216764  0.97644399  0.83183086  1
  Cl  Cl502  1  0.63306737  0.51947511  0.88104180  1
  Cl  Cl503  1  0.29211418  0.36776776  0.90243142  1
  Cl  Cl504  1  0.33199321  0.82459855  0.85220784  1
  Cl  Cl505  1  0.62909723  0.36330280  0.90235180  1
  Cl  Cl506  1  0.67562262  0.82047880  0.85296914  1
  Cl  Cl507  1  0.69766484  0.12240700  0.81574984  1
  Cl  Cl508  1  0.64768249  0.67110920  0.86558553  1
  Cl  Cl509  1  0.36373882  0.45857787  0.94620225  1
  Cl  Cl510  1  0.38524000  0.12873124  0.98331976  1
  Cl  Cl511  1  0.35035031  0.30605848  0.96225299  1
  Cl  Cl512  1  0.68504907  0.30199253  0.96084900  1
  Cl  Cl513  1  0.97684363  0.17690016  0.98702791  1
  Cl  Cl514  1  0.03288338  0.60807778  0.92947559  1
  Cl  Cl515  1  0.39761560  0.61127516  0.93108455  1
  Cl  Cl516  1  0.01677612  0.30212005  0.96329739  1
  Cl  Cl517  1  0.04749805  0.45429512  0.95034744  1
  Cl  Cl518  1  0.70175170  0.45359565  0.94719487  1
  Cl  Cl519  1  0.68543267  0.14872427  0.98293453  1
  Cl  Cl520  1  0.71358635  0.60564640  0.92242891  1
  Cl  Cl521  1  0.83060378  0.79346759  0.96994134  1
  Cl  Cl522  1  0.95190252  0.04589148  0.93829062  1
  Cl  Cl523  1  0.61385367  0.05814626  0.93373883  1
  Cl  Cl524  1  0.68399346  0.60608193  0.98099892  1
  Cl  Cl525  1  0.23229731  0.07935844  0.93636486  1
  Cl  Cl526  1  0.50899435  0.92924710  0.95929371  1
  Cl  Cl527  1  0.61412688  0.20630795  0.92178133  1
