# generated using pymatgen
data_Li81Y25Cl156
_symmetry_space_group_name_H-M   'P 1'
_cell_length_a   11.17729600
_cell_length_b   23.17126381
_cell_length_c   54.23474358
_cell_angle_alpha   90.00000000
_cell_angle_beta   90.00000000
_cell_angle_gamma   61.15997857
_symmetry_Int_Tables_number   1
_chemical_formula_structural   Li81Y25Cl156
_chemical_formula_sum   'Li162 Y50 Cl312'
_cell_volume   12304.19704190
_cell_formula_units_Z   2
loop_
 _symmetry_equiv_pos_site_id
 _symmetry_equiv_pos_as_xyz
  1  'x, y, z'
loop_
 _atom_site_type_symbol
 _atom_site_label
 _atom_site_symmetry_multiplicity
 _atom_site_fract_x
 _atom_site_fract_y
 _atom_site_fract_z
 _atom_site_occupancy
  Li  Li0  1  0.07480618  0.08992854  0.09299413  1
  Li  Li1  1  0.03746967  0.65407400  0.04050974  1
  Li  Li2  1  0.09147498  0.24347621  0.10683371  1
  Li  Li3  1  0.07680136  0.79226296  0.04513416  1
  Li  Li4  1  0.72648594  0.10396704  0.08343480  1
  Li  Li5  1  0.69332764  0.62306226  0.02783562  1
  Li  Li6  1  0.72149324  0.47354399  0.06985461  1
  Li  Li7  1  0.72274247  0.94418572  0.06630459  1
  Li  Li8  1  0.35506283  0.98223802  0.01843552  1
  Li  Li9  1  0.41126189  0.43978401  0.06900940  1
  Li  Li10  1  0.92353741  0.14357902  0.02618677  1
  Li  Li11  1  0.76496664  0.59172849  0.08275635  1
  Li  Li12  1  0.01699332  0.27469257  0.05509780  1
  Li  Li13  1  0.08212021  0.74589499  0.10416041  1
  Li  Li14  1  0.63107068  0.30659906  0.04739986  1
  Li  Li15  1  0.41898378  0.74783790  0.11051283  1
  Li  Li16  1  0.38556947  0.94173850  0.07247051  1
  Li  Li17  1  0.27048070  0.47874482  0.01248102  1
  Li  Li18  1  0.15598524  0.00543265  0.19619568  1
  Li  Li19  1  0.11447344  0.55105082  0.14116856  1
  Li  Li20  1  0.17048922  0.15655781  0.21425484  1
  Li  Li21  1  0.13216526  0.70040205  0.15964268  1
  Li  Li22  1  0.82749130  0.00563605  0.19613156  1
  Li  Li23  1  0.78184366  0.55418695  0.14111923  1
  Li  Li24  1  0.80639991  0.35964784  0.17501206  1
  Li  Li25  1  0.77164597  0.89318495  0.12808411  1
  Li  Li26  1  0.42320204  0.90385359  0.12667235  1
  Li  Li27  1  0.45559162  0.36334170  0.17868018  1
  Li  Li28  1  0.77430145  0.05323481  0.14111141  1
  Li  Li29  1  0.84127777  0.50448518  0.19468245  1
  Li  Li30  1  0.12708545  0.19681467  0.16022918  1
  Li  Li31  1  0.17228371  0.65145361  0.21316329  1
  Li  Li32  1  0.45919017  0.20134981  0.16140426  1
  Li  Li33  1  0.50904940  0.65490853  0.21422175  1
  Li  Li34  1  0.47504069  0.85486165  0.17971734  1
  Li  Li35  1  0.41001058  0.40340146  0.12419552  1
  Li  Li36  1  0.25069928  0.91319014  0.30481299  1
  Li  Li37  1  0.20337386  0.46017463  0.24955788  1
  Li  Li38  1  0.26537622  0.06397404  0.32156988  1
  Li  Li39  1  0.21991612  0.61094292  0.26733596  1
  Li  Li40  1  0.91810747  0.91526512  0.30405884  1
  Li  Li41  1  0.87228834  0.46116845  0.24897560  1
  Li  Li42  1  0.89607745  0.26731818  0.28322144  1
  Li  Li43  1  0.85354914  0.80965001  0.23066716  1
  Li  Li44  1  0.51155656  0.81287644  0.23348393  1
  Li  Li45  1  0.55325060  0.26799245  0.28581132  1
  Li  Li46  1  0.88556144  0.96072896  0.25034763  1
  Li  Li47  1  0.92691601  0.41587357  0.30282360  1
  Li  Li48  1  0.21666079  0.10652260  0.26735060  1
  Li  Li49  1  0.26379565  0.55857752  0.32012632  1
  Li  Li50  1  0.55120445  0.11025727  0.26898939  1
  Li  Li51  1  0.60402686  0.56255794  0.32217124  1
  Li  Li52  1  0.56445192  0.76295809  0.28626301  1
  Li  Li53  1  0.51930790  0.30966613  0.23149215  1
  Li  Li54  1  0.34285424  0.82536925  0.41244486  1
  Li  Li55  1  0.29449421  0.37114894  0.35648632  1
  Li  Li56  1  0.35709896  0.97655954  0.42985568  1
  Li  Li57  1  0.30571386  0.51946592  0.37453754  1
  Li  Li58  1  0.00589853  0.82968269  0.41003688  1
  Li  Li59  1  0.96657451  0.36884636  0.35564742  1
  Li  Li60  1  0.98007467  0.18115430  0.39201272  1
  Li  Li61  1  0.94747345  0.71523093  0.33737458  1
  Li  Li62  1  0.60445214  0.72134971  0.34073985  1
  Li  Li63  1  0.65231383  0.16963736  0.39487849  1
  Li  Li64  1  0.97293948  0.86759168  0.35651848  1
  Li  Li65  1  0.01587886  0.33256463  0.41061745  1
  Li  Li66  1  0.29912245  0.02216252  0.37616515  1
  Li  Li67  1  0.35072499  0.49044241  0.42915092  1
  Li  Li68  1  0.63360524  0.02503256  0.37191127  1
  Li  Li69  1  0.72525128  0.46200926  0.42340712  1
  Li  Li70  1  0.65873377  0.67165286  0.39545387  1
  Li  Li71  1  0.60946548  0.21927679  0.33983314  1
  Li  Li72  1  0.40570526  0.26634799  0.46315795  1
  Li  Li73  1  0.42822358  0.45450824  0.48919320  1
  Li  Li74  1  0.99636365  0.31085138  0.46221646  1
  Li  Li75  1  0.15682683  0.64798432  0.46625324  1
  Li  Li76  1  0.66336678  0.65062194  0.45317500  1
  Li  Li77  1  0.06074960  0.79548276  0.46026465  1
  Li  Li78  1  0.39232270  0.93820230  0.48120561  1
  Li  Li79  1  0.69236211  0.98016488  0.43409510  1
  Li  Li80  1  0.71034697  0.13032651  0.45790557  1
  Li  Li81  1  0.12502180  0.13477866  0.59289099  1
  Li  Li82  1  0.16286818  0.57142436  0.54053412  1
  Li  Li83  1  0.11032440  0.98104103  0.60672367  1
  Li  Li84  1  0.12269196  0.43288716  0.54473034  1
  Li  Li85  1  0.47333205  0.12220171  0.58384417  1
  Li  Li86  1  0.50425481  0.60300676  0.52789020  1
  Li  Li87  1  0.47754314  0.75259389  0.57025488  1
  Li  Li88  1  0.47705735  0.28155615  0.56623354  1
  Li  Li89  1  0.84704629  0.24390440  0.51852794  1
  Li  Li90  1  0.79020555  0.78465960  0.56914921  1
  Li  Li91  1  0.28030889  0.08114575  0.52580588  1
  Li  Li92  1  0.43546694  0.63396621  0.58278357  1
  Li  Li93  1  0.18439487  0.95031152  0.55484505  1
  Li  Li94  1  0.11735631  0.47982355  0.60422454  1
  Li  Li95  1  0.57308036  0.91904383  0.54726216  1
  Li  Li96  1  0.78165986  0.47664474  0.61022382  1
  Li  Li97  1  0.81429842  0.28265582  0.57251633  1
  Li  Li98  1  0.93358799  0.74711840  0.51235900  1
  Li  Li99  1  0.04313340  0.21934924  0.69654893  1
  Li  Li100  1  0.08476179  0.67465187  0.64113168  1
  Li  Li101  1  0.02972232  0.06801184  0.71431296  1
  Li  Li102  1  0.06684396  0.52432200  0.65962208  1
  Li  Li103  1  0.37256918  0.21861222  0.69612046  1
  Li  Li104  1  0.41790546  0.67011968  0.64104943  1
  Li  Li105  1  0.39448241  0.86618872  0.67527496  1
  Li  Li106  1  0.42922543  0.33202847  0.62807409  1
  Li  Li107  1  0.77746372  0.32108742  0.62656695  1
  Li  Li108  1  0.74529934  0.86181194  0.67848525  1
  Li  Li109  1  0.42501469  0.17270493  0.64121372  1
  Li  Li110  1  0.35921598  0.72043136  0.69456836  1
  Li  Li111  1  0.07311608  0.02741219  0.65999981  1
  Li  Li112  1  0.02657220  0.57521235  0.71279121  1
  Li  Li113  1  0.74059921  0.02394500  0.66172505  1
  Li  Li114  1  0.69051349  0.57004363  0.71420851  1
  Li  Li115  1  0.72496100  0.36971864  0.67966849  1
  Li  Li116  1  0.78886164  0.82258541  0.62392399  1
  Li  Li117  1  0.94809789  0.31151667  0.80480448  1
  Li  Li118  1  0.99543451  0.76474559  0.74908237  1
  Li  Li119  1  0.93439152  0.16078563  0.82166116  1
  Li  Li120  1  0.98051731  0.61390598  0.76722134  1
  Li  Li121  1  0.28152540  0.30960430  0.80366684  1
  Li  Li122  1  0.32687553  0.76381620  0.74873808  1
  Li  Li123  1  0.30339584  0.95780179  0.78343231  1
  Li  Li124  1  0.34344110  0.41683688  0.73019415  1
  Li  Li125  1  0.68818253  0.41135497  0.73324800  1
  Li  Li126  1  0.64488542  0.95739678  0.78588112  1
  Li  Li127  1  0.31622342  0.26506840  0.75021865  1
  Li  Li128  1  0.27049519  0.80939242  0.80278329  1
  Li  Li129  1  0.98305601  0.11822283  0.76746448  1
  Li  Li130  1  0.93544561  0.66704754  0.81983376  1
  Li  Li131  1  0.64794381  0.11423272  0.76885322  1
  Li  Li132  1  0.59767337  0.66112548  0.82221511  1
  Li  Li133  1  0.63484256  0.46134105  0.78634892  1
  Li  Li134  1  0.67916949  0.91505616  0.73162127  1
  Li  Li135  1  0.85707690  0.39867926  0.91242367  1
  Li  Li136  1  0.90378497  0.85365095  0.85635441  1
  Li  Li137  1  0.84480403  0.24850311  0.92971110  1
  Li  Li138  1  0.89766003  0.70407486  0.87476819  1
  Li  Li139  1  0.19206406  0.39578061  0.91022838  1
  Li  Li140  1  0.23391154  0.85556151  0.85553515  1
  Li  Li141  1  0.22137772  0.04348237  0.89185541  1
  Li  Li142  1  0.25113031  0.50931687  0.83712437  1
  Li  Li143  1  0.59361846  0.50342802  0.84082940  1
  Li  Li144  1  0.54899873  0.05569807  0.89512422  1
  Li  Li145  1  0.22608698  0.35716533  0.85638730  1
  Li  Li146  1  0.18550884  0.89198141  0.91047159  1
  Li  Li147  1  0.89956010  0.20323884  0.87590219  1
  Li  Li148  1  0.85075046  0.73348033  0.92952370  1
  Li  Li149  1  0.56592000  0.19998456  0.87185247  1
  Li  Li150  1  0.47363908  0.76326059  0.92369528  1
  Li  Li151  1  0.54036251  0.55399318  0.89575609  1
  Li  Li152  1  0.59079588  0.00514803  0.83992964  1
  Li  Li153  1  0.79624677  0.95907450  0.96322820  1
  Li  Li154  1  0.77152210  0.77066115  0.98925830  1
  Li  Li155  1  0.20278676  0.91628649  0.96178884  1
  Li  Li156  1  0.03795560  0.57543702  0.96579300  1
  Li  Li157  1  0.53815124  0.57201512  0.95368595  1
  Li  Li158  1  0.14420650  0.42745185  0.96087355  1
  Li  Li159  1  0.80971891  0.28636448  0.98121676  1
  Li  Li160  1  0.50784575  0.24591225  0.93432169  1
  Li  Li161  1  0.49357037  0.09455149  0.95784004  1
  Y  Y162  1  0.40288824  0.09889570  0.08796486  1
  Y  Y163  1  0.37720959  0.63200197  0.03356787  1
  Y  Y164  1  0.73889992  0.24728941  0.10999442  1
  Y  Y165  1  0.70364575  0.78385775  0.05624208  1
  Y  Y166  1  0.06138079  0.93886493  0.07327468  1
  Y  Y167  1  0.49845008  0.00623318  0.19712971  1
  Y  Y168  1  0.45618730  0.55086456  0.14211108  1
  Y  Y169  1  0.82905394  0.16148191  0.21448054  1
  Y  Y170  1  0.78814106  0.70574238  0.16115854  1
  Y  Y171  1  0.09601428  0.39614639  0.12143220  1
  Y  Y172  1  0.14347511  0.84992487  0.17907941  1
  Y  Y173  1  0.59090597  0.91384350  0.30430751  1
  Y  Y174  1  0.54632753  0.46007290  0.24905909  1
  Y  Y175  1  0.92310138  0.07024218  0.32241347  1
  Y  Y176  1  0.87656274  0.61552373  0.26798488  1
  Y  Y177  1  0.18762910  0.30448096  0.23110088  1
  Y  Y178  1  0.23340117  0.75915496  0.28549455  1
  Y  Y179  1  0.68755409  0.81915209  0.41362478  1
  Y  Y180  1  0.63392687  0.36925461  0.35492004  1
  Y  Y181  1  0.02021686  0.98663962  0.42955107  1
  Y  Y182  1  0.96970040  0.52514581  0.37587849  1
  Y  Y183  1  0.27886049  0.21402715  0.33866977  1
  Y  Y184  1  0.31870810  0.67262752  0.39164379  1
  Y  Y185  1  0.69515972  0.29460227  0.45741168  1
  Y  Y186  1  0.35487368  0.12733511  0.45158939  1
  Y  Y187  1  0.79757487  0.12577987  0.58789881  1
  Y  Y188  1  0.82184493  0.59400774  0.53345917  1
  Y  Y189  1  0.46092173  0.97827240  0.61001243  1
  Y  Y190  1  0.49625290  0.44141740  0.55616747  1
  Y  Y191  1  0.13865847  0.28619958  0.57322585  1
  Y  Y192  1  0.70106788  0.21872008  0.69706614  1
  Y  Y193  1  0.74318108  0.67448976  0.64209299  1
  Y  Y194  1  0.36996371  0.06353957  0.71449552  1
  Y  Y195  1  0.41146356  0.51917450  0.66099092  1
  Y  Y196  1  0.10473676  0.82902269  0.62150277  1
  Y  Y197  1  0.05652439  0.37485560  0.67893878  1
  Y  Y198  1  0.60877269  0.31068725  0.80426094  1
  Y  Y199  1  0.65289898  0.76467480  0.74913629  1
  Y  Y200  1  0.27667782  0.15469781  0.82240577  1
  Y  Y201  1  0.32325880  0.60941172  0.76793522  1
  Y  Y202  1  0.01156988  0.92038273  0.73111906  1
  Y  Y203  1  0.96561286  0.46578074  0.78534548  1
  Y  Y204  1  0.51293603  0.40566084  0.91344685  1
  Y  Y205  1  0.56631861  0.85495325  0.85489323  1
  Y  Y206  1  0.18118304  0.23815263  0.92945962  1
  Y  Y207  1  0.23048687  0.69990499  0.87585273  1
  Y  Y208  1  0.92112274  0.01060923  0.83869289  1
  Y  Y209  1  0.88061485  0.55212540  0.89162056  1
  Y  Y210  1  0.50591050  0.93064297  0.95736359  1
  Y  Y211  1  0.84614272  0.09819470  0.95166883  1
  Cl  Cl212  1  0.19795655  0.97292788  0.10535290  1
  Cl  Cl213  1  0.18024801  0.67110866  0.06787284  1
  Cl  Cl214  1  0.86284023  0.65983970  0.06777341  1
  Cl  Cl215  1  0.42683841  0.38563873  0.03105508  1
  Cl  Cl216  1  0.50438721  0.82130635  0.08896862  1
  Cl  Cl217  1  0.18149661  0.81370104  0.08607077  1
  Cl  Cl218  1  0.84441536  0.26411633  0.02363203  1
  Cl  Cl219  1  0.52628687  0.66398401  0.06252154  1
  Cl  Cl220  1  0.52276176  0.97178219  0.10368779  1
  Cl  Cl221  1  0.50338389  0.50908000  0.05195287  1
  Cl  Cl222  1  0.84951999  0.97300904  0.10435509  1
  Cl  Cl223  1  0.82746740  0.52172931  0.04837737  1
  Cl  Cl224  1  0.83860100  0.82309195  0.08801339  1
  Cl  Cl225  1  0.29023410  0.38105209  0.09155171  1
  Cl  Cl226  1  0.25264102  0.91908408  0.04317974  1
  Cl  Cl227  1  0.25209678  0.21816432  0.07029916  1
  Cl  Cl228  1  0.24758037  0.74788468  0.01548854  1
  Cl  Cl229  1  0.62909158  0.21963471  0.07175739  1
  Cl  Cl230  1  0.63710739  0.73960409  0.01675422  1
  Cl  Cl231  1  0.63153465  0.36422081  0.08806553  1
  Cl  Cl232  1  0.57839613  0.91005795  0.04209321  1
  Cl  Cl233  1  0.60481453  0.06425416  0.05734294  1
  Cl  Cl234  1  0.55752068  0.59656910  0.99625092  1
  Cl  Cl235  1  0.96300249  0.36460934  0.08732850  1
  Cl  Cl236  1  0.92519947  0.91178314  0.04073863  1
  Cl  Cl237  1  0.26964466  0.06108033  0.05698560  1
  Cl  Cl238  1  0.21765637  0.58977135  0.01170255  1
  Cl  Cl239  1  0.93738315  0.06708602  0.05895874  1
  Cl  Cl240  1  0.95558274  0.20968640  0.08024844  1
  Cl  Cl241  1  0.91030554  0.76448338  0.02668910  1
  Cl  Cl242  1  0.28503823  0.88248150  0.20992719  1
  Cl  Cl243  1  0.23197513  0.42900998  0.15461956  1
  Cl  Cl244  1  0.20841210  0.12527272  0.12140276  1
  Cl  Cl245  1  0.24986160  0.58214654  0.17295349  1
  Cl  Cl246  1  0.86460774  0.12075040  0.12046133  1
  Cl  Cl247  1  0.91549439  0.57926586  0.17270712  1
  Cl  Cl248  1  0.53636686  0.28369939  0.14075388  1
  Cl  Cl249  1  0.59354531  0.73641852  0.19458165  1
  Cl  Cl250  1  0.21325691  0.27271163  0.13765335  1
  Cl  Cl251  1  0.26411497  0.72521739  0.19312075  1
  Cl  Cl252  1  0.54609044  0.12677963  0.12031122  1
  Cl  Cl253  1  0.60018630  0.57657849  0.17477685  1
  Cl  Cl254  1  0.60958735  0.88154565  0.21281626  1
  Cl  Cl255  1  0.56479878  0.42495781  0.15660108  1
  Cl  Cl256  1  0.94706445  0.88420307  0.21290621  1
  Cl  Cl257  1  0.90291694  0.42983131  0.15684398  1
  Cl  Cl258  1  0.89441674  0.27287803  0.14047803  1
  Cl  Cl259  1  0.94176042  0.72723063  0.19391680  1
  Cl  Cl260  1  0.38176258  0.28409063  0.19840634  1
  Cl  Cl261  1  0.34062067  0.82878120  0.14685422  1
  Cl  Cl262  1  0.36029425  0.13049724  0.18114644  1
  Cl  Cl263  1  0.31929146  0.67587348  0.12749034  1
  Cl  Cl264  1  0.70315183  0.12663742  0.18038476  1
  Cl  Cl265  1  0.66210297  0.67392904  0.12678436  1
  Cl  Cl266  1  0.70096659  0.28459560  0.19959470  1
  Cl  Cl267  1  0.65845810  0.83146996  0.14749852  1
  Cl  Cl268  1  0.69283045  0.98003370  0.16403543  1
  Cl  Cl269  1  0.65224038  0.52752182  0.11008132  1
  Cl  Cl270  1  0.05295901  0.27407672  0.19835003  1
  Cl  Cl271  1  0.01090876  0.81995298  0.14546879  1
  Cl  Cl272  1  0.35788645  0.97323913  0.16619889  1
  Cl  Cl273  1  0.31854447  0.51836464  0.11050002  1
  Cl  Cl274  1  0.01535762  0.97551409  0.16606964  1
  Cl  Cl275  1  0.97084947  0.52364420  0.11114777  1
  Cl  Cl276  1  0.03767769  0.12835698  0.18391387  1
  Cl  Cl277  1  0.99414238  0.67572657  0.13025190  1
  Cl  Cl278  1  0.37597820  0.79075286  0.31679558  1
  Cl  Cl279  1  0.33029558  0.33681305  0.26191692  1
  Cl  Cl280  1  0.29144224  0.03790591  0.22772409  1
  Cl  Cl281  1  0.33958461  0.49197718  0.28000874  1
  Cl  Cl282  1  0.95714507  0.03456730  0.22700843  1
  Cl  Cl283  1  0.00426254  0.48884259  0.27990311  1
  Cl  Cl284  1  0.63473046  0.19099994  0.24753677  1
  Cl  Cl285  1  0.68357829  0.64531704  0.30157001  1
  Cl  Cl286  1  0.30613202  0.18079552  0.24659050  1
  Cl  Cl287  1  0.35294301  0.63539814  0.29992477  1
  Cl  Cl288  1  0.64366379  0.03153541  0.22934002  1
  Cl  Cl289  1  0.68939674  0.48657724  0.28148300  1
  Cl  Cl290  1  0.70117740  0.78963312  0.32038065  1
  Cl  Cl291  1  0.65475923  0.33557060  0.26482078  1
  Cl  Cl292  1  0.03731032  0.79356962  0.31981368  1
  Cl  Cl293  1  0.99245529  0.33933933  0.26508077  1
  Cl  Cl294  1  0.98397051  0.18182362  0.24737348  1
  Cl  Cl295  1  0.03114485  0.63629140  0.30065914  1
  Cl  Cl296  1  0.47637583  0.19077669  0.30615424  1
  Cl  Cl297  1  0.42984758  0.73807935  0.25312979  1
  Cl  Cl298  1  0.45234010  0.03833809  0.28868083  1
  Cl  Cl299  1  0.40640284  0.58498259  0.23397458  1
  Cl  Cl300  1  0.79720423  0.03538680  0.28847852  1
  Cl  Cl301  1  0.75201371  0.58178379  0.23349962  1
  Cl  Cl302  1  0.79306989  0.19296792  0.30722598  1
  Cl  Cl303  1  0.74812135  0.74033433  0.25416567  1
  Cl  Cl304  1  0.78634598  0.88915994  0.27216239  1
  Cl  Cl305  1  0.74072745  0.43455299  0.21641111  1
  Cl  Cl306  1  0.14591211  0.18155855  0.30615556  1
  Cl  Cl307  1  0.09851452  0.72957242  0.25248253  1
  Cl  Cl308  1  0.44812079  0.88210477  0.27369139  1
  Cl  Cl309  1  0.40138433  0.42870585  0.21839969  1
  Cl  Cl310  1  0.10741050  0.88628781  0.27380020  1
  Cl  Cl311  1  0.06175614  0.43121977  0.21876384  1
  Cl  Cl312  1  0.13026234  0.03650459  0.29178212  1
  Cl  Cl313  1  0.08350264  0.58407062  0.23723821  1
  Cl  Cl314  1  0.46186336  0.70064171  0.42544044  1
  Cl  Cl315  1  0.42364399  0.24376988  0.36960755  1
  Cl  Cl316  1  0.38604612  0.94661355  0.33573483  1
  Cl  Cl317  1  0.43317247  0.40076306  0.38633799  1
  Cl  Cl318  1  0.04775365  0.94353732  0.33526895  1
  Cl  Cl319  1  0.10068892  0.39699201  0.38568578  1
  Cl  Cl320  1  0.72785699  0.09847696  0.35596514  1
  Cl  Cl321  1  0.77540506  0.55695680  0.40954059  1
  Cl  Cl322  1  0.39751860  0.08928811  0.35483397  1
  Cl  Cl323  1  0.44189071  0.55009254  0.40523415  1
  Cl  Cl324  1  0.73413014  0.94024208  0.33740924  1
  Cl  Cl325  1  0.78207475  0.39590310  0.38581616  1
  Cl  Cl326  1  0.78114358  0.70097241  0.43252732  1
  Cl  Cl327  1  0.74459898  0.24553844  0.37150108  1
  Cl  Cl328  1  0.13039032  0.70799445  0.42749959  1
  Cl  Cl329  1  0.08892189  0.24841286  0.37328435  1
  Cl  Cl330  1  0.07518475  0.09197369  0.35523533  1
  Cl  Cl331  1  0.12990268  0.54167122  0.40620224  1
  Cl  Cl332  1  0.55919039  0.09529137  0.41716703  1
  Cl  Cl333  1  0.51962893  0.65043761  0.36068704  1
  Cl  Cl334  1  0.55553925  0.94684581  0.39958775  1
  Cl  Cl335  1  0.49605447  0.49505610  0.34026387  1
  Cl  Cl336  1  0.88016019  0.95035503  0.39790085  1
  Cl  Cl337  1  0.84311483  0.49191485  0.34045168  1
  Cl  Cl338  1  0.88669895  0.10881554  0.41511867  1
  Cl  Cl339  1  0.83822553  0.65113310  0.36228053  1
  Cl  Cl340  1  0.87640874  0.79950709  0.38045940  1
  Cl  Cl341  1  0.83319883  0.34270257  0.32281553  1
  Cl  Cl342  1  0.23512267  0.09525231  0.41568778  1
  Cl  Cl343  1  0.18493548  0.64202623  0.35907540  1
  Cl  Cl344  1  0.54021698  0.79208200  0.38272899  1
  Cl  Cl345  1  0.48992025  0.33660254  0.32478168  1
  Cl  Cl346  1  0.19467896  0.80046968  0.38064561  1
  Cl  Cl347  1  0.15439102  0.33917826  0.32534809  1
  Cl  Cl348  1  0.23076825  0.94763891  0.39859047  1
  Cl  Cl349  1  0.17212197  0.49416994  0.34331069  1
  Cl  Cl350  1  0.50488695  0.15785743  0.48041436  1
  Cl  Cl351  1  0.48107088  0.85679217  0.44569576  1
  Cl  Cl352  1  0.45967695  0.34226994  0.48146239  1
  Cl  Cl353  1  0.14602513  0.85790934  0.44164782  1
  Cl  Cl354  1  0.82874639  0.01062439  0.46174439  1
  Cl  Cl355  1  0.49846152  0.99954865  0.46297522  1
  Cl  Cl356  1  0.82711995  0.85378478  0.44471116  1
  Cl  Cl357  1  0.82337645  0.32733599  0.48950237  1
  Cl  Cl358  1  0.80063455  0.18529747  0.48408254  1
  Cl  Cl359  1  0.19855384  0.14160920  0.48924873  1
  Cl  Cl360  1  0.17494049  0.99980147  0.46237573  1
  Cl  Cl361  1  0.58558898  0.41964646  0.44362837  1
  Cl  Cl362  1  0.93326944  0.40804253  0.44307367  1
  Cl  Cl363  1  0.12930596  0.73061325  0.49318699  1
  Cl  Cl364  1  0.91422306  0.25737276  0.42909984  1
  Cl  Cl365  1  0.26429292  0.53870810  0.46661943  1
  Cl  Cl366  1  0.57465765  0.24114705  0.43067587  1
  Cl  Cl367  1  0.22591948  0.25606834  0.44256541  1
  Cl  Cl368  1  0.00205694  0.25203353  0.60524650  1
  Cl  Cl369  1  0.01902183  0.55447819  0.56774547  1
  Cl  Cl370  1  0.33768431  0.56548842  0.56777935  1
  Cl  Cl371  1  0.77613992  0.83889423  0.53121293  1
  Cl  Cl372  1  0.69553668  0.40381208  0.58885603  1
  Cl  Cl373  1  0.01875581  0.41150869  0.58595244  1
  Cl  Cl374  1  0.35885182  0.96093967  0.52358515  1
  Cl  Cl375  1  0.67330338  0.56162964  0.56239987  1
  Cl  Cl376  1  0.67763938  0.25303868  0.60369304  1
  Cl  Cl377  1  0.69542349  0.71665298  0.55202773  1
  Cl  Cl378  1  0.34980838  0.25228400  0.60436270  1
  Cl  Cl379  1  0.37234169  0.70427071  0.54849699  1
  Cl  Cl380  1  0.36157629  0.40212452  0.58797179  1
  Cl  Cl381  1  0.91076904  0.84434744  0.59154439  1
  Cl  Cl382  1  0.94712927  0.30600981  0.54316777  1
  Cl  Cl383  1  0.94907730  0.00662140  0.57011747  1
  Cl  Cl384  1  0.95149105  0.47810618  0.51526210  1
  Cl  Cl385  1  0.57075653  0.00628587  0.57186846  1
  Cl  Cl386  1  0.56136257  0.48622376  0.51663159  1
  Cl  Cl387  1  0.57014689  0.86116692  0.58821417  1
  Cl  Cl388  1  0.62197876  0.31518623  0.54205966  1
  Cl  Cl389  1  0.59516827  0.16107816  0.55737571  1
  Cl  Cl390  1  0.64188879  0.62909147  0.49613627  1
  Cl  Cl391  1  0.23865801  0.86035997  0.58741682  1
  Cl  Cl392  1  0.27465993  0.31331973  0.54063762  1
  Cl  Cl393  1  0.93076497  0.16382369  0.55700547  1
  Cl  Cl394  1  0.98259666  0.63625252  0.51170138  1
  Cl  Cl395  1  0.26300597  0.15815822  0.55891898  1
  Cl  Cl396  1  0.24513165  0.01522213  0.58016375  1
  Cl  Cl397  1  0.28907996  0.46092619  0.52672252  1
  Cl  Cl398  1  0.91458273  0.34239465  0.70980228  1
  Cl  Cl399  1  0.96764134  0.79622954  0.65450200  1
  Cl  Cl400  1  0.99179782  0.09946252  0.62135333  1
  Cl  Cl401  1  0.94994239  0.64320450  0.67282429  1
  Cl  Cl402  1  0.33390271  0.10471984  0.62057482  1
  Cl  Cl403  1  0.28449676  0.64556395  0.67270906  1
  Cl  Cl404  1  0.66322548  0.94182526  0.64082157  1
  Cl  Cl405  1  0.60594655  0.48843383  0.69440285  1
  Cl  Cl406  1  0.98640666  0.95261554  0.63752791  1
  Cl  Cl407  1  0.93608047  0.49951556  0.69302400  1
  Cl  Cl408  1  0.65322227  0.09847250  0.62022951  1
  Cl  Cl409  1  0.59949219  0.64855450  0.67476502  1
  Cl  Cl410  1  0.58932932  0.34360611  0.71264539  1
  Cl  Cl411  1  0.63492831  0.80032524  0.65658135  1
  Cl  Cl412  1  0.25266305  0.34085503  0.71280623  1
  Cl  Cl413  1  0.29690319  0.79552868  0.65698403  1
  Cl  Cl414  1  0.30597582  0.95193712  0.64042621  1
  Cl  Cl415  1  0.25721088  0.49813171  0.69379811  1
  Cl  Cl416  1  0.81706002  0.94093443  0.69843327  1
  Cl  Cl417  1  0.85937046  0.39606319  0.64671168  1
  Cl  Cl418  1  0.83885687  0.09455104  0.68106139  1
  Cl  Cl419  1  0.88028789  0.54933556  0.62753146  1
  Cl  Cl420  1  0.49620537  0.09830295  0.68043060  1
  Cl  Cl421  1  0.53727916  0.55110235  0.62668030  1
  Cl  Cl422  1  0.49787695  0.94036710  0.69959291  1
  Cl  Cl423  1  0.54147624  0.39353051  0.64727016  1
  Cl  Cl424  1  0.50626918  0.24504212  0.66403835  1
  Cl  Cl425  1  0.54742688  0.69722071  0.61011596  1
  Cl  Cl426  1  0.14562207  0.95103737  0.69829845  1
  Cl  Cl427  1  0.18931643  0.40501021  0.64542042  1
  Cl  Cl428  1  0.84152946  0.25160768  0.66613044  1
  Cl  Cl429  1  0.88033699  0.70730022  0.61043541  1
  Cl  Cl430  1  0.18452258  0.24915954  0.66609774  1
  Cl  Cl431  1  0.22909256  0.70156549  0.61114249  1
  Cl  Cl432  1  0.16159485  0.09656084  0.68392374  1
  Cl  Cl433  1  0.20522934  0.54932416  0.63012658  1
  Cl  Cl434  1  0.82361869  0.43390922  0.81671231  1
  Cl  Cl435  1  0.86912053  0.88796911  0.76188414  1
  Cl  Cl436  1  0.90796585  0.18697461  0.72768800  1
  Cl  Cl437  1  0.86041496  0.73274629  0.77988562  1
  Cl  Cl438  1  0.24234684  0.19026476  0.72707645  1
  Cl  Cl439  1  0.19437541  0.73619256  0.77972600  1
  Cl  Cl440  1  0.56466385  0.03386699  0.74755293  1
  Cl  Cl441  1  0.51608982  0.57920502  0.80154891  1
  Cl  Cl442  1  0.89327542  0.04407865  0.74654670  1
  Cl  Cl443  1  0.84634387  0.58957236  0.79980767  1
  Cl  Cl444  1  0.55590357  0.19326110  0.72928350  1
  Cl  Cl445  1  0.51006007  0.73804793  0.78142298  1
  Cl  Cl446  1  0.49841810  0.43505873  0.82027535  1
  Cl  Cl447  1  0.54475578  0.88925301  0.76487952  1
  Cl  Cl448  1  0.16117550  0.43152036  0.81979326  1
  Cl  Cl449  1  0.20672621  0.88562896  0.76509130  1
  Cl  Cl450  1  0.21536885  0.04302248  0.74741252  1
  Cl  Cl451  1  0.16838582  0.58860579  0.80058466  1
  Cl  Cl452  1  0.72329948  0.03403673  0.80619108  1
  Cl  Cl453  1  0.76979781  0.48619078  0.75297749  1
  Cl  Cl454  1  0.74759373  0.18632990  0.78867365  1
  Cl  Cl455  1  0.79329188  0.63995449  0.73378240  1
  Cl  Cl456  1  0.40249609  0.18940645  0.78840517  1
  Cl  Cl457  1  0.44814932  0.64308853  0.73348213  1
  Cl  Cl458  1  0.40651617  0.03185065  0.80726684  1
  Cl  Cl459  1  0.45104846  0.48465271  0.75402337  1
  Cl  Cl460  1  0.41322820  0.33570950  0.77210058  1
  Cl  Cl461  1  0.45847748  0.79059357  0.71646722  1
  Cl  Cl462  1  0.05409137  0.04306408  0.80617090  1
  Cl  Cl463  1  0.10070673  0.49552724  0.75243515  1
  Cl  Cl464  1  0.75167922  0.34222444  0.77361023  1
  Cl  Cl465  1  0.79732321  0.79632329  0.71835567  1
  Cl  Cl466  1  0.09248307  0.33864927  0.77368172  1
  Cl  Cl467  1  0.13762832  0.79374282  0.71861218  1
  Cl  Cl468  1  0.06922050  0.18841102  0.79179742  1
  Cl  Cl469  1  0.11628578  0.64096505  0.73710065  1
  Cl  Cl470  1  0.73778224  0.52439676  0.92560621  1
  Cl  Cl471  1  0.77645540  0.98097751  0.86964442  1
  Cl  Cl472  1  0.81349703  0.27804296  0.83578343  1
  Cl  Cl473  1  0.76750607  0.82353356  0.88617309  1
  Cl  Cl474  1  0.15189183  0.28138510  0.83516729  1
  Cl  Cl475  1  0.09879401  0.82795469  0.88571002  1
  Cl  Cl476  1  0.47207011  0.12634920  0.85592813  1
  Cl  Cl477  1  0.42429233  0.66863887  0.90948540  1
  Cl  Cl478  1  0.80163104  0.13552368  0.85474390  1
  Cl  Cl479  1  0.75922117  0.67444068  0.90542457  1
  Cl  Cl480  1  0.46504687  0.28484473  0.83734961  1
  Cl  Cl481  1  0.41820746  0.82844079  0.88585408  1
  Cl  Cl482  1  0.41893805  0.52381054  0.93245438  1
  Cl  Cl483  1  0.45632633  0.97866087  0.87147640  1
  Cl  Cl484  1  0.06957826  0.51586827  0.92753399  1
  Cl  Cl485  1  0.11181570  0.97627981  0.87316022  1
  Cl  Cl486  1  0.12452531  0.13275791  0.85515239  1
  Cl  Cl487  1  0.07105120  0.68308483  0.90639118  1
  Cl  Cl488  1  0.64085615  0.12989528  0.91738770  1
  Cl  Cl489  1  0.67975061  0.57464808  0.86064872  1
  Cl  Cl490  1  0.64569747  0.27793655  0.89959375  1
  Cl  Cl491  1  0.70430798  0.72927051  0.84019217  1
  Cl  Cl492  1  0.32029916  0.27495964  0.89786746  1
  Cl  Cl493  1  0.35701899  0.73285151  0.84038523  1
  Cl  Cl494  1  0.31398686  0.11626700  0.91471803  1
  Cl  Cl495  1  0.36134327  0.57378904  0.86238162  1
  Cl  Cl496  1  0.32337559  0.42536591  0.88052312  1
  Cl  Cl497  1  0.36651724  0.88191678  0.82279543  1
  Cl  Cl498  1  0.96502522  0.13001258  0.91560802  1
  Cl  Cl499  1  0.01516489  0.58256448  0.85918137  1
  Cl  Cl500  1  0.66021246  0.43303285  0.88269824  1
  Cl  Cl501  1  0.70967655  0.88801968  0.82473326  1
  Cl  Cl502  1  0.00478989  0.42432953  0.88061338  1
  Cl  Cl503  1  0.04511996  0.88544981  0.82533293  1
  Cl  Cl504  1  0.97087160  0.27718946  0.89842398  1
  Cl  Cl505  1  0.02818584  0.73035467  0.84331685  1
  Cl  Cl506  1  0.69724078  0.06730970  0.98064676  1
  Cl  Cl507  1  0.72002289  0.36811917  0.94551815  1
  Cl  Cl508  1  0.74126629  0.88287018  0.98140941  1
  Cl  Cl509  1  0.05495977  0.36692582  0.94171265  1
  Cl  Cl510  1  0.37211414  0.21442859  0.96171706  1
  Cl  Cl511  1  0.70221589  0.22580535  0.96308968  1
  Cl  Cl512  1  0.37512128  0.37064427  0.94479870  1
  Cl  Cl513  1  0.37564682  0.89911193  0.98939995  1
  Cl  Cl514  1  0.40112552  0.04025790  0.98391295  1
  Cl  Cl515  1  0.00318615  0.08386271  0.98924697  1
  Cl  Cl516  1  0.02634645  0.22483330  0.96222703  1
  Cl  Cl517  1  0.61482241  0.80554595  0.94365250  1
  Cl  Cl518  1  0.26582445  0.81797806  0.94332439  1
  Cl  Cl519  1  0.07503209  0.49307855  0.99353017  1
  Cl  Cl520  1  0.28697036  0.96784648  0.92894388  1
  Cl  Cl521  1  0.93457070  0.68480857  0.96700030  1
  Cl  Cl522  1  0.62681344  0.98418290  0.93077715  1
  Cl  Cl523  1  0.97391188  0.96974969  0.94224496  1
