# generated using pymatgen
data_Li44Y13Cl83
_symmetry_space_group_name_H-M   'P 1'
_cell_length_a   11.17729600
_cell_length_b   23.17126381
_cell_length_c   58.16336257
_cell_angle_alpha   90.00000000
_cell_angle_beta   90.00000000
_cell_angle_gamma   61.15997857
_symmetry_Int_Tables_number   1
_chemical_formula_structural   Li44Y13Cl83
_chemical_formula_sum   'Li176 Y52 Cl332'
_cell_volume   13195.47998968
_cell_formula_units_Z   4
loop_
 _symmetry_equiv_pos_site_id
 _symmetry_equiv_pos_as_xyz
  1  'x, y, z'
loop_
 _atom_site_type_symbol
 _atom_site_label
 _atom_site_symmetry_multiplicity
 _atom_site_fract_x
 _atom_site_fract_y
 _atom_site_fract_z
 _atom_site_occupancy
  Li  Li0  1  0.07058262  0.10297970  0.07543031  1
  Li  Li1  1  0.04674352  0.64322728  0.02122616  1
  Li  Li2  1  0.07486403  0.25532284  0.09397227  1
  Li  Li3  1  0.01305353  0.79836734  0.03917600  1
  Li  Li4  1  0.73219421  0.11151889  0.06977163  1
  Li  Li5  1  0.73612190  0.63705307  0.01794724  1
  Li  Li6  1  0.64090324  0.49751113  0.05714041  1
  Li  Li7  1  0.77780064  0.90124508  0.10586007  1
  Li  Li8  1  0.34666036  0.99320158  0.01662790  1
  Li  Li9  1  0.26477670  0.56642143  0.05540280  1
  Li  Li10  1  0.79298467  0.02535004  0.01957949  1
  Li  Li11  1  0.79431374  0.59640663  0.07052563  1
  Li  Li12  1  0.04729046  0.28949392  0.04739584  1
  Li  Li13  1  0.09420933  0.73299247  0.08481628  1
  Li  Li14  1  0.39051596  0.29387778  0.05142369  1
  Li  Li15  1  0.40215618  0.75867397  0.09828915  1
  Li  Li16  1  0.38671803  0.94920163  0.06021780  1
  Li  Li17  1  0.33406715  0.45021254  0.02544337  1
  Li  Li18  1  0.15468803  0.01489148  0.17538725  1
  Li  Li19  1  0.10930088  0.55961856  0.12513109  1
  Li  Li20  1  0.16884339  0.16533554  0.19228193  1
  Li  Li21  1  0.11763385  0.71313010  0.14047737  1
  Li  Li22  1  0.82117153  0.01665010  0.17446758  1
  Li  Li23  1  0.77556029  0.56130726  0.12367342  1
  Li  Li24  1  0.80363387  0.36468829  0.15678754  1
  Li  Li25  1  0.84798003  0.81764786  0.20691589  1
  Li  Li26  1  0.42020125  0.91517222  0.11025299  1
  Li  Li27  1  0.46024020  0.36844015  0.15751867  1
  Li  Li28  1  0.79642770  0.05605168  0.12247130  1
  Li  Li29  1  0.83374614  0.51439446  0.17447768  1
  Li  Li30  1  0.12832651  0.20353441  0.14205197  1
  Li  Li31  1  0.16753370  0.66163468  0.19077546  1
  Li  Li32  1  0.46725648  0.20949833  0.14354973  1
  Li  Li33  1  0.50531116  0.66433711  0.19362732  1
  Li  Li34  1  0.47167087  0.86477458  0.15926191  1
  Li  Li35  1  0.42390056  0.41090878  0.10368849  1
  Li  Li36  1  0.24372567  0.92365694  0.27569270  1
  Li  Li37  1  0.20011797  0.46925413  0.22471530  1
  Li  Li38  1  0.25908732  0.07395194  0.29232372  1
  Li  Li39  1  0.21505395  0.61983751  0.24127389  1
  Li  Li40  1  0.91403144  0.92289394  0.27589469  1
  Li  Li41  1  0.86954014  0.46868924  0.22476098  1
  Li  Li42  1  0.89311949  0.27414042  0.25674891  1
  Li  Li43  1  0.94145802  0.72754645  0.30737902  1
  Li  Li44  1  0.50295985  0.82471231  0.20939318  1
  Li  Li45  1  0.55012025  0.27915321  0.25878476  1
  Li  Li46  1  0.87954317  0.96841002  0.22542878  1
  Li  Li47  1  0.92540483  0.42337165  0.27468761  1
  Li  Li48  1  0.21489233  0.11348218  0.24139914  1
  Li  Li49  1  0.25755884  0.56807916  0.29073591  1
  Li  Li50  1  0.54925229  0.11856216  0.24335375  1
  Li  Li51  1  0.59066656  0.57523329  0.29268496  1
  Li  Li52  1  0.56056611  0.77402255  0.25877353  1
  Li  Li53  1  0.51578672  0.31891671  0.20818205  1
  Li  Li54  1  0.33372124  0.83298599  0.37460177  1
  Li  Li55  1  0.28981606  0.37860072  0.32481384  1
  Li  Li56  1  0.35178850  0.98453695  0.39660117  1
  Li  Li57  1  0.30538679  0.52730806  0.34090719  1
  Li  Li58  1  0.01214799  0.82151203  0.38049249  1
  Li  Li59  1  0.96004658  0.37574206  0.32487704  1
  Li  Li60  1  0.98798753  0.18475060  0.35598575  1
  Li  Li61  1  0.03054371  0.63113145  0.40126650  1
  Li  Li62  1  0.59579195  0.73158997  0.30918517  1
  Li  Li63  1  0.63998085  0.19078425  0.35791597  1
  Li  Li64  1  0.96860898  0.87825433  0.32713063  1
  Li  Li65  1  0.01103365  0.33768344  0.37554847  1
  Li  Li66  1  0.30542359  0.02438320  0.34255969  1
  Li  Li67  1  0.35079793  0.48006409  0.39077854  1
  Li  Li68  1  0.63974672  0.02659466  0.34254587  1
  Li  Li69  1  0.67824231  0.49546398  0.39619096  1
  Li  Li70  1  0.65076698  0.68019217  0.35914314  1
  Li  Li71  1  0.60546962  0.22782422  0.30795825  1
  Li  Li72  1  0.49073841  0.74736934  0.48044433  1
  Li  Li73  1  0.37565237  0.29637755  0.42547542  1
  Li  Li74  1  0.35376885  0.94189013  0.47483577  1
  Li  Li75  1  0.39118264  0.44967407  0.44149721  1
  Li  Li76  1  0.07207120  0.74864261  0.46690882  1
  Li  Li77  1  0.04541423  0.29569335  0.42570292  1
  Li  Li78  1  0.08849885  0.10003892  0.44824437  1
  Li  Li79  1  0.66083339  0.65903179  0.41366535  1
  Li  Li80  1  0.73746801  0.10847396  0.45091826  1
  Li  Li81  1  0.15058989  0.84246735  0.44540480  1
  Li  Li82  1  0.08018127  0.26743626  0.47462649  1
  Li  Li83  1  0.52387228  0.82828140  0.44378635  1
  Li  Li84  1  0.42307507  0.39780549  0.48729749  1
  Li  Li85  1  0.75036061  0.89779797  0.44438088  1
  Li  Li86  1  0.72012551  0.59714809  0.45984427  1
  Li  Li87  1  0.68740700  0.13921114  0.40513961  1
  Li  Li88  1  0.83088906  0.99663416  0.57475499  1
  Li  Li89  1  0.85344365  0.45702876  0.52119529  1
  Li  Li90  1  0.82346930  0.84530254  0.59371118  1
  Li  Li91  1  0.88446005  0.30229434  0.53920975  1
  Li  Li92  1  0.17012352  0.98855574  0.56960411  1
  Li  Li93  1  0.16246405  0.46433477  0.51777308  1
  Li  Li94  1  0.25930841  0.60316847  0.55712080  1
  Li  Li95  1  0.12171321  0.19862587  0.60567523  1
  Li  Li96  1  0.55383022  0.10827718  0.51640011  1
  Li  Li97  1  0.63542954  0.53475271  0.55509708  1
  Li  Li98  1  0.10739878  0.07472073  0.51928638  1
  Li  Li99  1  0.11244694  0.50290611  0.57110534  1
  Li  Li100  1  0.85252634  0.81038099  0.54726293  1
  Li  Li101  1  0.80608747  0.36902960  0.58465337  1
  Li  Li102  1  0.50957180  0.80616853  0.55140323  1
  Li  Li103  1  0.49892173  0.34100158  0.59878304  1
  Li  Li104  1  0.51465071  0.15161692  0.56010644  1
  Li  Li105  1  0.56686062  0.65036040  0.52543189  1
  Li  Li106  1  0.74561698  0.08489855  0.67530927  1
  Li  Li107  1  0.79089566  0.54049934  0.62526614  1
  Li  Li108  1  0.72917326  0.93550524  0.69209440  1
  Li  Li109  1  0.78234220  0.38641174  0.64048240  1
  Li  Li110  1  0.07855200  0.08306984  0.67444979  1
  Li  Li111  1  0.12634603  0.53855594  0.62392770  1
  Li  Li112  1  0.09740581  0.73504653  0.65647047  1
  Li  Li113  1  0.05125456  0.28160278  0.70722447  1
  Li  Li114  1  0.47964604  0.18500232  0.61014957  1
  Li  Li115  1  0.44119310  0.73065705  0.65751973  1
  Li  Li116  1  0.10377679  0.04319095  0.62266758  1
  Li  Li117  1  0.06469881  0.58652359  0.67444838  1
  Li  Li118  1  0.77096901  0.89604936  0.64200343  1
  Li  Li119  1  0.73645898  0.43827397  0.69071956  1
  Li  Li120  1  0.43479518  0.88945144  0.64315980  1
  Li  Li121  1  0.39640992  0.43584473  0.69363820  1
  Li  Li122  1  0.42926743  0.23458620  0.65906954  1
  Li  Li123  1  0.47563114  0.68868674  0.60354848  1
  Li  Li124  1  0.65467469  0.17634496  0.77533489  1
  Li  Li125  1  0.70060742  0.63128789  0.72464492  1
  Li  Li126  1  0.63856962  0.02592393  0.79238308  1
  Li  Li127  1  0.68698805  0.48045410  0.74104944  1
  Li  Li128  1  0.98575516  0.17622158  0.77558154  1
  Li  Li129  1  0.03283995  0.63121572  0.72468996  1
  Li  Li130  1  0.00634051  0.82579132  0.75687968  1
  Li  Li131  1  0.95855199  0.37168938  0.80709108  1
  Li  Li132  1  0.39803278  0.27515742  0.70924848  1
  Li  Li133  1  0.34956905  0.82135067  0.75852270  1
  Li  Li134  1  0.01939451  0.13049978  0.72521503  1
  Li  Li135  1  0.97504938  0.67649414  0.77435291  1
  Li  Li136  1  0.68279747  0.98576571  0.74144584  1
  Li  Li137  1  0.64383190  0.53119785  0.79050560  1
  Li  Li138  1  0.34855924  0.98122283  0.74317384  1
  Li  Li139  1  0.30922395  0.52500729  0.79271627  1
  Li  Li140  1  0.33984382  0.32639257  0.75873635  1
  Li  Li141  1  0.38394143  0.78098895  0.70781139  1
  Li  Li142  1  0.56517298  0.26728680  0.87491451  1
  Li  Li143  1  0.60911370  0.72142877  0.82433750  1
  Li  Li144  1  0.54693620  0.11571879  0.89661026  1
  Li  Li145  1  0.59483836  0.57210807  0.84075369  1
  Li  Li146  1  0.88630383  0.27825272  0.88037840  1
  Li  Li147  1  0.93984034  0.72403516  0.82465529  1
  Li  Li148  1  0.91234308  0.91539816  0.85596375  1
  Li  Li149  1  0.86995472  0.46825551  0.90109761  1
  Li  Li150  1  0.30494823  0.36776977  0.80927626  1
  Li  Li151  1  0.25849844  0.91015341  0.85776618  1
  Li  Li152  1  0.93088606  0.22123280  0.82713558  1
  Li  Li153  1  0.88843320  0.76213243  0.87524487  1
  Li  Li154  1  0.59312400  0.07647373  0.84256293  1
  Li  Li155  1  0.55025342  0.62020008  0.89068702  1
  Li  Li156  1  0.25874032  0.07250155  0.84197805  1
  Li  Li157  1  0.22151331  0.60360776  0.89569183  1
  Li  Li158  1  0.24781256  0.41957866  0.85896892  1
  Li  Li159  1  0.29328389  0.87207113  0.80776545  1
  Li  Li160  1  0.40893872  0.35296971  0.98061137  1
  Li  Li161  1  0.52578090  0.80321990  0.92539731  1
  Li  Li162  1  0.54654648  0.15723936  0.97508783  1
  Li  Li163  1  0.50519820  0.65119986  0.94107721  1
  Li  Li164  1  0.82568735  0.35117529  0.96700677  1
  Li  Li165  1  0.85574247  0.80402053  0.92537998  1
  Li  Li166  1  0.81214487  0.99989794  0.94827055  1
  Li  Li167  1  0.23735788  0.44001200  0.91379947  1
  Li  Li168  1  0.16239584  0.99249529  0.95103681  1
  Li  Li169  1  0.74876531  0.25651871  0.94585350  1
  Li  Li170  1  0.82073137  0.83331006  0.97425776  1
  Li  Li171  1  0.37474434  0.27154706  0.94421026  1
  Li  Li172  1  0.47632006  0.70131827  0.98704989  1
  Li  Li173  1  0.14990132  0.20003883  0.94442261  1
  Li  Li174  1  0.17851614  0.50327062  0.95980306  1
  Li  Li175  1  0.21260734  0.96065096  0.90529600  1
  Y  Y176  1  0.41448918  0.10240139  0.07505632  1
  Y  Y177  1  0.73914632  0.25912058  0.09270482  1
  Y  Y178  1  0.68070074  0.79919003  0.04113286  1
  Y  Y179  1  0.06635188  0.94013313  0.05855062  1
  Y  Y180  1  0.49880870  0.01481256  0.17519135  1
  Y  Y181  1  0.44914400  0.55976704  0.12653117  1
  Y  Y182  1  0.82793289  0.17015736  0.19216619  1
  Y  Y183  1  0.77942646  0.71573822  0.14117071  1
  Y  Y184  1  0.09812319  0.40154449  0.10832117  1
  Y  Y185  1  0.13456116  0.85994297  0.15840931  1
  Y  Y186  1  0.58648087  0.92366296  0.27542342  1
  Y  Y187  1  0.54159089  0.46934231  0.22472694  1
  Y  Y188  1  0.91792127  0.07918373  0.29246324  1
  Y  Y189  1  0.87264508  0.62488334  0.24193739  1
  Y  Y190  1  0.18533987  0.31332055  0.20795547  1
  Y  Y191  1  0.22806870  0.76851729  0.25799421  1
  Y  Y192  1  0.67497115  0.83301025  0.37401730  1
  Y  Y193  1  0.63314441  0.37870529  0.32477817  1
  Y  Y194  1  0.00553072  0.99286293  0.39107410  1
  Y  Y195  1  0.95882918  0.53292472  0.34121889  1
  Y  Y196  1  0.27573101  0.22213780  0.30799018  1
  Y  Y197  1  0.31709299  0.67643151  0.35770318  1
  Y  Y198  1  0.72214758  0.29448310  0.42595919  1
  Y  Y199  1  0.04250475  0.45276766  0.44366341  1
  Y  Y200  1  0.36115759  0.13693641  0.40848837  1
  Y  Y201  1  0.37419147  0.60196590  0.45841955  1
  Y  Y202  1  0.48600775  0.99826977  0.57483033  1
  Y  Y203  1  0.16087145  0.84092855  0.59258830  1
  Y  Y204  1  0.21799412  0.30177620  0.54138757  1
  Y  Y205  1  0.83483847  0.16016683  0.55856732  1
  Y  Y206  1  0.40082004  0.08524333  0.67512603  1
  Y  Y207  1  0.45198948  0.54003089  0.62648503  1
  Y  Y208  1  0.07134353  0.92955669  0.69205774  1
  Y  Y209  1  0.12097311  0.38420457  0.64129332  1
  Y  Y210  1  0.80264894  0.69819292  0.60820123  1
  Y  Y211  1  0.76585802  0.23988934  0.65848929  1
  Y  Y212  1  0.31275605  0.17636999  0.77535916  1
  Y  Y213  1  0.35950257  0.63061145  0.72453175  1
  Y  Y214  1  0.98036627  0.02068894  0.79231563  1
  Y  Y215  1  0.02878102  0.47510338  0.74181374  1
  Y  Y216  1  0.71449666  0.78687442  0.70785297  1
  Y  Y217  1  0.67246340  0.33143374  0.75792753  1
  Y  Y218  1  0.22434930  0.26662756  0.87411056  1
  Y  Y219  1  0.26684163  0.72117532  0.82469981  1
  Y  Y220  1  0.89395012  0.10724525  0.89111361  1
  Y  Y221  1  0.94083089  0.56699645  0.84099500  1
  Y  Y222  1  0.62336866  0.87759836  0.80793382  1
  Y  Y223  1  0.58226501  0.42331504  0.85764204  1
  Y  Y224  1  0.17809323  0.80591574  0.92558495  1
  Y  Y225  1  0.85749308  0.64745956  0.94369319  1
  Y  Y226  1  0.53841447  0.96317858  0.90835932  1
  Y  Y227  1  0.52533043  0.49791221  0.95811891  1
  Cl  Cl228  1  0.19654145  0.98119726  0.08690195  1
  Cl  Cl229  1  0.12352434  0.53760826  0.03449043  1
  Cl  Cl230  1  0.20495265  0.13491156  0.10314124  1
  Cl  Cl231  1  0.16122494  0.68312160  0.04735585  1
  Cl  Cl232  1  0.87404594  0.12798322  0.10089696  1
  Cl  Cl233  1  0.83791363  0.67364007  0.04926221  1
  Cl  Cl234  1  0.34041997  0.34861121  0.01745623  1
  Cl  Cl235  1  0.49742587  0.83400230  0.07376591  1
  Cl  Cl236  1  0.18647973  0.81549762  0.07018773  1
  Cl  Cl237  1  0.55745540  0.12952849  0.10412759  1
  Cl  Cl238  1  0.52144996  0.97744668  0.08821904  1
  Cl  Cl239  1  0.46756512  0.49806406  0.03816264  1
  Cl  Cl240  1  0.86291858  0.97612414  0.08860575  1
  Cl  Cl241  1  0.73206622  0.55657202  0.03965136  1
  Cl  Cl242  1  0.84535053  0.82067872  0.06994300  1
  Cl  Cl243  1  0.28893859  0.38206938  0.07864337  1
  Cl  Cl244  1  0.25100761  0.92910880  0.02728711  1
  Cl  Cl245  1  0.27617100  0.22595924  0.05802681  1
  Cl  Cl246  1  0.62526134  0.22642590  0.05935676  1
  Cl  Cl247  1  0.54446250  0.75210873  0.01700391  1
  Cl  Cl248  1  0.62470538  0.37893468  0.08056209  1
  Cl  Cl249  1  0.56860241  0.92118060  0.02538287  1
  Cl  Cl250  1  0.59595652  0.07989858  0.04359143  1
  Cl  Cl251  1  0.63923298  0.53576699  0.09609456  1
  Cl  Cl252  1  0.97158932  0.36997467  0.07616502  1
  Cl  Cl253  1  0.94590244  0.90978911  0.02539477  1
  Cl  Cl254  1  0.26691245  0.07300972  0.04506431  1
  Cl  Cl255  1  0.30214202  0.53313715  0.09671970  1
  Cl  Cl256  1  0.92700442  0.06338011  0.04278952  1
  Cl  Cl257  1  0.97043403  0.52875365  0.09652659  1
  Cl  Cl258  1  0.95100682  0.22645535  0.06265966  1
  Cl  Cl259  1  0.87697435  0.77609232  0.00999996  1
  Cl  Cl260  1  0.27988214  0.89209909  0.18687858  1
  Cl  Cl261  1  0.23763177  0.43690278  0.13644199  1
  Cl  Cl262  1  0.29145854  0.04631959  0.20397646  1
  Cl  Cl263  1  0.23779350  0.59399337  0.15424853  1
  Cl  Cl264  1  0.95477093  0.04337933  0.20348423  1
  Cl  Cl265  1  0.90684525  0.58931762  0.15261556  1
  Cl  Cl266  1  0.54509954  0.28730587  0.12329086  1
  Cl  Cl267  1  0.58679411  0.74641128  0.17227167  1
  Cl  Cl268  1  0.21702573  0.27735457  0.12176839  1
  Cl  Cl269  1  0.25688306  0.73557329  0.17128291  1
  Cl  Cl270  1  0.64058062  0.04128589  0.20553737  1
  Cl  Cl271  1  0.59359321  0.58843226  0.15552098  1
  Cl  Cl272  1  0.60614304  0.89006372  0.18976781  1
  Cl  Cl273  1  0.56061935  0.43544124  0.14004987  1
  Cl  Cl274  1  0.94201224  0.89352933  0.19015564  1
  Cl  Cl275  1  0.89847151  0.43769256  0.13963688  1
  Cl  Cl276  1  0.89989923  0.27656583  0.12328303  1
  Cl  Cl277  1  0.93313439  0.73712744  0.17166497  1
  Cl  Cl278  1  0.38040599  0.29268518  0.17745506  1
  Cl  Cl279  1  0.33325611  0.84045764  0.12818495  1
  Cl  Cl280  1  0.35982059  0.13909472  0.16059598  1
  Cl  Cl281  1  0.31012665  0.68376905  0.10969876  1
  Cl  Cl282  1  0.70629052  0.13551202  0.15961067  1
  Cl  Cl283  1  0.65691358  0.68239310  0.10807417  1
  Cl  Cl284  1  0.70063769  0.29383137  0.17826875  1
  Cl  Cl285  1  0.65518450  0.84038581  0.12799854  1
  Cl  Cl286  1  0.69194220  0.98931418  0.14472197  1
  Cl  Cl287  1  0.73703477  0.44382366  0.19451156  1
  Cl  Cl288  1  0.05075334  0.28264873  0.17746428  1
  Cl  Cl289  1  0.00527945  0.83005914  0.12684863  1
  Cl  Cl290  1  0.35516406  0.98280971  0.14638678  1
  Cl  Cl291  1  0.39900351  0.43707660  0.19610395  1
  Cl  Cl292  1  0.01260620  0.98601184  0.14636053  1
  Cl  Cl293  1  0.05823776  0.43993331  0.19633977  1
  Cl  Cl294  1  0.03727975  0.13703849  0.16366145  1
  Cl  Cl295  1  0.98759207  0.68346262  0.11232440  1
  Cl  Cl296  1  0.37134331  0.80027832  0.28677044  1
  Cl  Cl297  1  0.32703928  0.34597653  0.23673929  1
  Cl  Cl298  1  0.37988196  0.95571165  0.30427603  1
  Cl  Cl299  1  0.33394648  0.50149672  0.25342747  1
  Cl  Cl300  1  0.04393481  0.95277684  0.30419074  1
  Cl  Cl301  1  0.99998251  0.49802091  0.25316508  1
  Cl  Cl302  1  0.63267028  0.20059259  0.22277067  1
  Cl  Cl303  1  0.67707352  0.65517610  0.27258139  1
  Cl  Cl304  1  0.30385140  0.18964936  0.22206896  1
  Cl  Cl305  1  0.34875575  0.64441468  0.27141888  1
  Cl  Cl306  1  0.72966717  0.94950648  0.30588395  1
  Cl  Cl307  1  0.68541233  0.49494935  0.25497142  1
  Cl  Cl308  1  0.69676270  0.79890479  0.28974947  1
  Cl  Cl309  1  0.65179374  0.34464836  0.23943862  1
  Cl  Cl310  1  0.03617606  0.80227245  0.29028482  1
  Cl  Cl311  1  0.98986183  0.34770509  0.23972417  1
  Cl  Cl312  1  0.98279806  0.19015722  0.22284437  1
  Cl  Cl313  1  0.02670864  0.64547931  0.27235741  1
  Cl  Cl314  1  0.47076959  0.20181548  0.27753652  1
  Cl  Cl315  1  0.42376418  0.74837352  0.22737871  1
  Cl  Cl316  1  0.44757433  0.04845444  0.26095542  1
  Cl  Cl317  1  0.40226860  0.59430717  0.21035707  1
  Cl  Cl318  1  0.79214113  0.04493166  0.26061802  1
  Cl  Cl319  1  0.74742565  0.59073797  0.20987881  1
  Cl  Cl320  1  0.79033117  0.20277458  0.27836806  1
  Cl  Cl321  1  0.74385462  0.74902537  0.22818849  1
  Cl  Cl322  1  0.78207634  0.89805156  0.24524795  1
  Cl  Cl323  1  0.82901029  0.35094358  0.29436008  1
  Cl  Cl324  1  0.14055644  0.19155385  0.27768107  1
  Cl  Cl325  1  0.09376420  0.73864986  0.22699112  1
  Cl  Cl326  1  0.44327981  0.89215677  0.24651547  1
  Cl  Cl327  1  0.48984385  0.34603909  0.29611665  1
  Cl  Cl328  1  0.10201681  0.89545407  0.24696545  1
  Cl  Cl329  1  0.14891877  0.34847432  0.29642186  1
  Cl  Cl330  1  0.12537483  0.04652880  0.26380085  1
  Cl  Cl331  1  0.07909952  0.59330376  0.21308935  1
  Cl  Cl332  1  0.45771480  0.71066515  0.38660345  1
  Cl  Cl333  1  0.41730984  0.25579053  0.33665399  1
  Cl  Cl334  1  0.47209052  0.86240913  0.40394861  1
  Cl  Cl335  1  0.42695484  0.40951697  0.35371361  1
  Cl  Cl336  1  0.12906122  0.86763189  0.40465732  1
  Cl  Cl337  1  0.09012640  0.40659922  0.35322375  1
  Cl  Cl338  1  0.72180616  0.11027732  0.32308940  1
  Cl  Cl339  1  0.76893518  0.56291549  0.37243782  1
  Cl  Cl340  1  0.39460541  0.09872092  0.32249923  1
  Cl  Cl341  1  0.44130916  0.55240027  0.37122664  1
  Cl  Cl342  1  0.81334352  0.85440588  0.40605033  1
  Cl  Cl343  1  0.77840581  0.40290143  0.35479494  1
  Cl  Cl344  1  0.78301328  0.70835289  0.38930411  1
  Cl  Cl345  1  0.74342560  0.25408762  0.33955630  1
  Cl  Cl346  1  0.12246169  0.70443876  0.38774415  1
  Cl  Cl347  1  0.08314646  0.25661473  0.34034684  1
  Cl  Cl348  1  0.07262434  0.09983299  0.32313561  1
  Cl  Cl349  1  0.12037858  0.55021183  0.37123234  1
  Cl  Cl350  1  0.55439706  0.11736489  0.37778936  1
  Cl  Cl351  1  0.51426430  0.65628316  0.32721310  1
  Cl  Cl352  1  0.53599724  0.95918529  0.36147860  1
  Cl  Cl353  1  0.49216716  0.50269197  0.31002339  1
  Cl  Cl354  1  0.87443159  0.95791204  0.36092633  1
  Cl  Cl355  1  0.83533907  0.49870664  0.30935111  1
  Cl  Cl356  1  0.87522479  0.11788347  0.37839451  1
  Cl  Cl357  1  0.83387263  0.65764434  0.32835261  1
  Cl  Cl358  1  0.87262171  0.80691480  0.34478175  1
  Cl  Cl359  1  0.91960363  0.26496682  0.39609632  1
  Cl  Cl360  1  0.22435688  0.10677319  0.37862630  1
  Cl  Cl361  1  0.18581255  0.64580289  0.32634035  1
  Cl  Cl362  1  0.52995879  0.80109154  0.34591409  1
  Cl  Cl363  1  0.58145123  0.25855971  0.39800228  1
  Cl  Cl364  1  0.18796854  0.80511525  0.34839197  1
  Cl  Cl365  1  0.23701701  0.26531291  0.39793943  1
  Cl  Cl366  1  0.21730479  0.95733607  0.36375113  1
  Cl  Cl367  1  0.16935364  0.50025229  0.31278003  1
  Cl  Cl368  1  0.52301960  0.63532743  0.48468932  1
  Cl  Cl369  1  0.51120906  0.16718113  0.43857102  1
  Cl  Cl370  1  0.51788732  0.32378145  0.45544373  1
  Cl  Cl371  1  0.18054533  0.32391140  0.45485369  1
  Cl  Cl372  1  0.81621137  0.02596636  0.42379114  1
  Cl  Cl373  1  0.85965568  0.48570397  0.47580773  1
  Cl  Cl374  1  0.47731466  0.01812914  0.42269264  1
  Cl  Cl375  1  0.49315030  0.47832583  0.47358780  1
  Cl  Cl376  1  0.86445175  0.31921606  0.45586878  1
  Cl  Cl377  1  0.84145719  0.17044999  0.44394892  1
  Cl  Cl378  1  0.15968552  0.64861408  0.48443569  1
  Cl  Cl379  1  0.17795237  0.17532864  0.44337106  1
  Cl  Cl380  1  0.15611546  0.01172251  0.42190196  1
  Cl  Cl381  1  0.19163137  0.47208271  0.47540243  1
  Cl  Cl382  1  0.59182477  0.57508421  0.42886167  1
  Cl  Cl383  1  0.58406541  0.89378446  0.46627413  1
  Cl  Cl384  1  0.58101535  0.41787307  0.41163260  1
  Cl  Cl385  1  0.95204467  0.86088692  0.46527014  1
  Cl  Cl386  1  0.92329659  0.41494788  0.41139270  1
  Cl  Cl387  1  0.92249390  0.57385747  0.42904621  1
  Cl  Cl388  1  0.16970090  0.04340391  0.48240495  1
  Cl  Cl389  1  0.26406242  0.56230089  0.42573781  1
  Cl  Cl390  1  0.64904114  0.71417363  0.44890734  1
  Cl  Cl391  1  0.25479125  0.72325341  0.44183759  1
  Cl  Cl392  1  0.32092590  0.85220040  0.46551510  1
  Cl  Cl393  1  0.25879239  0.41628734  0.41547782  1
  Cl  Cl394  1  0.70435852  0.11885633  0.58672956  1
  Cl  Cl395  1  0.77730512  0.56287890  0.53426281  1
  Cl  Cl396  1  0.69566643  0.96537729  0.60286657  1
  Cl  Cl397  1  0.73747548  0.41809094  0.54734090  1
  Cl  Cl398  1  0.02678134  0.97188365  0.60075668  1
  Cl  Cl399  1  0.06240933  0.42721516  0.54967980  1
  Cl  Cl400  1  0.56033365  0.75199534  0.51728543  1
  Cl  Cl401  1  0.40305635  0.26643581  0.57377171  1
  Cl  Cl402  1  0.71473478  0.28479543  0.57010618  1
  Cl  Cl403  1  0.34342391  0.97080885  0.60389554  1
  Cl  Cl404  1  0.37810816  0.12323921  0.58798958  1
  Cl  Cl405  1  0.43252810  0.60260708  0.53803371  1
  Cl  Cl406  1  0.03753640  0.12395596  0.58873492  1
  Cl  Cl407  1  0.16907750  0.54366736  0.53971352  1
  Cl  Cl408  1  0.05348967  0.28001746  0.57005380  1
  Cl  Cl409  1  0.61137177  0.71783679  0.57861152  1
  Cl  Cl410  1  0.64998777  0.17188895  0.52723610  1
  Cl  Cl411  1  0.62426554  0.87429113  0.55803273  1
  Cl  Cl412  1  0.27523230  0.87356846  0.55927208  1
  Cl  Cl413  1  0.35406397  0.34882357  0.51718392  1
  Cl  Cl414  1  0.27527225  0.72108448  0.58035809  1
  Cl  Cl415  1  0.33146874  0.18015352  0.52514793  1
  Cl  Cl416  1  0.30527578  0.01994974  0.54330432  1
  Cl  Cl417  1  0.26226502  0.56348035  0.59599206  1
  Cl  Cl418  1  0.92880030  0.73008734  0.57609860  1
  Cl  Cl419  1  0.95622081  0.19026626  0.52544698  1
  Cl  Cl420  1  0.63308104  0.02786586  0.54474173  1
  Cl  Cl421  1  0.59824524  0.56694849  0.59660736  1
  Cl  Cl422  1  0.97359119  0.03689541  0.54284255  1
  Cl  Cl423  1  0.93144340  0.57108699  0.59653826  1
  Cl  Cl424  1  0.94952627  0.87336350  0.56244102  1
  Cl  Cl425  1  0.02147510  0.32539617  0.51023102  1
  Cl  Cl426  1  0.62032820  0.20769620  0.68688502  1
  Cl  Cl427  1  0.66316083  0.66300943  0.63639710  1
  Cl  Cl428  1  0.60844304  0.05362967  0.70389922  1
  Cl  Cl429  1  0.66297599  0.50619479  0.65418270  1
  Cl  Cl430  1  0.94510017  0.05637307  0.70344986  1
  Cl  Cl431  1  0.99363431  0.51065288  0.65271463  1
  Cl  Cl432  1  0.35484861  0.81256789  0.62320863  1
  Cl  Cl433  1  0.31410633  0.35327975  0.67225038  1
  Cl  Cl434  1  0.68287091  0.82266683  0.62172945  1
  Cl  Cl435  1  0.64381759  0.36432355  0.67126710  1
  Cl  Cl436  1  0.25918039  0.05874801  0.70549370  1
  Cl  Cl437  1  0.30711527  0.51176918  0.65548143  1
  Cl  Cl438  1  0.29397312  0.20983260  0.68969413  1
  Cl  Cl439  1  0.34003474  0.66452304  0.63987790  1
  Cl  Cl440  1  0.95790082  0.20602546  0.69027439  1
  Cl  Cl441  1  0.00251801  0.66227340  0.63954974  1
  Cl  Cl442  1  0.00005653  0.82337481  0.62308558  1
  Cl  Cl443  1  0.96738443  0.36272479  0.67174769  1
  Cl  Cl444  1  0.51963242  0.80701556  0.67733633  1
  Cl  Cl445  1  0.56777907  0.25876870  0.62821419  1
  Cl  Cl446  1  0.53998018  0.96091343  0.66049748  1
  Cl  Cl447  1  0.59105396  0.41593419  0.60979122  1
  Cl  Cl448  1  0.19371998  0.96409524  0.65957212  1
  Cl  Cl449  1  0.24454899  0.41744025  0.60829144  1
  Cl  Cl450  1  0.19914911  0.80599438  0.67814819  1
  Cl  Cl451  1  0.24476258  0.25973868  0.62798640  1
  Cl  Cl452  1  0.20772469  0.11042580  0.64472595  1
  Cl  Cl453  1  0.16309728  0.65673611  0.69441511  1
  Cl  Cl454  1  0.84851021  0.81772003  0.67736949  1
  Cl  Cl455  1  0.89568280  0.26972783  0.62710765  1
  Cl  Cl456  1  0.54485510  0.11683562  0.64624754  1
  Cl  Cl457  1  0.50214836  0.66282886  0.69587412  1
  Cl  Cl458  1  0.88731191  0.11385115  0.64638154  1
  Cl  Cl459  1  0.84241671  0.66017513  0.69629207  1
  Cl  Cl460  1  0.86220216  0.96306947  0.66350425  1
  Cl  Cl461  1  0.91270439  0.41693539  0.61240783  1
  Cl  Cl462  1  0.52911601  0.29939676  0.78667438  1
  Cl  Cl463  1  0.57293589  0.75393114  0.73655012  1
  Cl  Cl464  1  0.51890400  0.14419545  0.80427999  1
  Cl  Cl465  1  0.56665423  0.59863103  0.75331754  1
  Cl  Cl466  1  0.85540022  0.14691981  0.80406250  1
  Cl  Cl467  1  0.90088460  0.60202693  0.75301972  1
  Cl  Cl468  1  0.26683906  0.89946356  0.72265756  1
  Cl  Cl469  1  0.22351356  0.44497390  0.77254501  1
  Cl  Cl470  1  0.59470690  0.91057087  0.72196921  1
  Cl  Cl471  1  0.55197158  0.45569284  0.77109600  1
  Cl  Cl472  1  0.16989146  0.15016262  0.80580148  1
  Cl  Cl473  1  0.21566082  0.60497712  0.75477314  1
  Cl  Cl474  1  0.20321697  0.30110494  0.78965298  1
  Cl  Cl475  1  0.24842865  0.75518980  0.73921808  1
  Cl  Cl476  1  0.86410140  0.29728225  0.79024931  1
  Cl  Cl477  1  0.90966783  0.75257996  0.73967609  1
  Cl  Cl478  1  0.91672049  0.90975123  0.72278017  1
  Cl  Cl479  1  0.87440440  0.45419887  0.77212962  1
  Cl  Cl480  1  0.42846432  0.89804027  0.77735125  1
  Cl  Cl481  1  0.47701049  0.35178084  0.72729245  1
  Cl  Cl482  1  0.45086610  0.05157205  0.76090549  1
  Cl  Cl483  1  0.49952423  0.50576348  0.71004548  1
  Cl  Cl484  1  0.10680459  0.05490844  0.76048621  1
  Cl  Cl485  1  0.15363716  0.50947526  0.70976907  1
  Cl  Cl486  1  0.10894262  0.89701458  0.77818722  1
  Cl  Cl487  1  0.15750612  0.35103111  0.72808631  1
  Cl  Cl488  1  0.11773402  0.20196997  0.74511916  1
  Cl  Cl489  1  0.07109674  0.74871072  0.79422682  1
  Cl  Cl490  1  0.75758566  0.90852054  0.77753645  1
  Cl  Cl491  1  0.80768527  0.36098272  0.72692674  1
  Cl  Cl492  1  0.45637136  0.20789673  0.74652864  1
  Cl  Cl493  1  0.40948923  0.75395132  0.79592747  1
  Cl  Cl494  1  0.79762472  0.20443494  0.74684188  1
  Cl  Cl495  1  0.75107577  0.75135791  0.79625725  1
  Cl  Cl496  1  0.77305841  0.05341726  0.76373523  1
  Cl  Cl497  1  0.82230325  0.50689961  0.71292310  1
  Cl  Cl498  1  0.44114355  0.38934780  0.88652608  1
  Cl  Cl499  1  0.48174297  0.84416609  0.83654691  1
  Cl  Cl500  1  0.42683045  0.23773348  0.90415442  1
  Cl  Cl501  1  0.47346261  0.69026865  0.85349575  1
  Cl  Cl502  1  0.77000519  0.23233841  0.90481768  1
  Cl  Cl503  1  0.80946641  0.69331511  0.85296042  1
  Cl  Cl504  1  0.17718077  0.98977396  0.82287755  1
  Cl  Cl505  1  0.13051201  0.53695911  0.87221830  1
  Cl  Cl506  1  0.50442184  0.00099655  0.82246063  1
  Cl  Cl507  1  0.45832039  0.54744216  0.87107472  1
  Cl  Cl508  1  0.08570065  0.24560578  0.90612296  1
  Cl  Cl509  1  0.12133986  0.69699492  0.85464746  1
  Cl  Cl510  1  0.11614911  0.39159579  0.88936852  1
  Cl  Cl511  1  0.15636262  0.84594995  0.83943491  1
  Cl  Cl512  1  0.77663226  0.39532070  0.88772496  1
  Cl  Cl513  1  0.81649439  0.84331589  0.84013035  1
  Cl  Cl514  1  0.82644792  0.00005351  0.82305112  1
  Cl  Cl515  1  0.77985456  0.54952141  0.87111174  1
  Cl  Cl516  1  0.34468372  0.98290714  0.87771622  1
  Cl  Cl517  1  0.38568474  0.44304049  0.82708837  1
  Cl  Cl518  1  0.36339742  0.14068900  0.86160767  1
  Cl  Cl519  1  0.40816734  0.59727091  0.80984120  1
  Cl  Cl520  1  0.02532991  0.14183685  0.86093879  1
  Cl  Cl521  1  0.06459058  0.60111342  0.80912380  1
  Cl  Cl522  1  0.02410804  0.98218369  0.87842572  1
  Cl  Cl523  1  0.06572225  0.44221078  0.82822541  1
  Cl  Cl524  1  0.02701706  0.29289687  0.84478036  1
  Cl  Cl525  1  0.98047330  0.83518001  0.89576596  1
  Cl  Cl526  1  0.67460038  0.99338189  0.87844140  1
  Cl  Cl527  1  0.71398892  0.45369766  0.82624160  1
  Cl  Cl528  1  0.36926721  0.29862180  0.84595627  1
  Cl  Cl529  1  0.31920507  0.84157990  0.89772591  1
  Cl  Cl530  1  0.71141798  0.29456782  0.84838601  1
  Cl  Cl531  1  0.66292393  0.83489973  0.89774848  1
  Cl  Cl532  1  0.68217332  0.14286052  0.86378116  1
  Cl  Cl533  1  0.73052026  0.59941152  0.81255611  1
  Cl  Cl534  1  0.37589815  0.46544187  0.98461650  1
  Cl  Cl535  1  0.38889251  0.93283812  0.93849719  1
  Cl  Cl536  1  0.38213334  0.77584171  0.95522097  1
  Cl  Cl537  1  0.72015748  0.77645241  0.95462412  1
  Cl  Cl538  1  0.08343682  0.07482778  0.92383530  1
  Cl  Cl539  1  0.04055851  0.61490015  0.97577133  1
  Cl  Cl540  1  0.42217790  0.08190859  0.92271349  1
  Cl  Cl541  1  0.40623998  0.62168386  0.97327845  1
  Cl  Cl542  1  0.03578099  0.78141299  0.95555597  1
  Cl  Cl543  1  0.05956707  0.93003254  0.94350862  1
  Cl  Cl544  1  0.73915875  0.45150895  0.98429368  1
  Cl  Cl545  1  0.72245209  0.92501261  0.94312114  1
  Cl  Cl546  1  0.74375305  0.08806278  0.92188711  1
  Cl  Cl547  1  0.70850898  0.62854045  0.97550788  1
  Cl  Cl548  1  0.30828886  0.52442385  0.92861204  1
  Cl  Cl549  1  0.31561212  0.20513483  0.96647618  1
  Cl  Cl550  1  0.31850790  0.68256783  0.91120982  1
  Cl  Cl551  1  0.94745486  0.23870825  0.96537783  1
  Cl  Cl552  1  0.97638406  0.68491618  0.91118274  1
  Cl  Cl553  1  0.97832185  0.52619324  0.92916498  1
  Cl  Cl554  1  0.73151608  0.05602030  0.98254753  1
  Cl  Cl555  1  0.63580157  0.53787672  0.92555588  1
  Cl  Cl556  1  0.25075426  0.38553981  0.94913281  1
  Cl  Cl557  1  0.64400608  0.37617537  0.94193412  1
  Cl  Cl558  1  0.57806854  0.24738110  0.96596808  1
  Cl  Cl559  1  0.64163482  0.68374859  0.91540945  1
