# generated using pymatgen
data_Li81Y23Cl150
_symmetry_space_group_name_H-M   'P 1'
_cell_length_a   11.17729600
_cell_length_b   23.17126381
_cell_length_c   52.67572351
_cell_angle_alpha   90.00000000
_cell_angle_beta   90.00000000
_cell_angle_gamma   61.15997857
_symmetry_Int_Tables_number   1
_chemical_formula_structural   Li81Y23Cl150
_chemical_formula_sum   'Li162 Y46 Cl300'
_cell_volume   11950.50328779
_cell_formula_units_Z   2
loop_
 _symmetry_equiv_pos_site_id
 _symmetry_equiv_pos_as_xyz
  1  'x, y, z'
loop_
 _atom_site_type_symbol
 _atom_site_label
 _atom_site_symmetry_multiplicity
 _atom_site_fract_x
 _atom_site_fract_y
 _atom_site_fract_z
 _atom_site_occupancy
  Li  Li0  1  0.06557854  0.09895034  0.08379798  1
  Li  Li1  1  0.08930890  0.58223957  0.05117899  1
  Li  Li2  1  0.05030470  0.26052943  0.10663251  1
  Li  Li3  1  0.01532561  0.78303226  0.04582446  1
  Li  Li4  1  0.72543563  0.11159169  0.07906598  1
  Li  Li5  1  0.77952280  0.59703595  0.02980220  1
  Li  Li6  1  0.39480590  0.58697606  0.04832910  1
  Li  Li7  1  0.70953796  0.94325804  0.06063625  1
  Li  Li8  1  0.31798741  0.99371190  0.01656415  1
  Li  Li9  1  0.45538723  0.38969964  0.05714862  1
  Li  Li10  1  0.80489878  0.03944844  0.01962731  1
  Li  Li11  1  0.71853319  0.59799235  0.08516045  1
  Li  Li12  1  0.04674658  0.28430609  0.05274316  1
  Li  Li13  1  0.12226255  0.71983338  0.09809060  1
  Li  Li14  1  0.61756248  0.24602108  0.99509479  1
  Li  Li15  1  0.41569752  0.75651676  0.11020732  1
  Li  Li16  1  0.38163310  0.94250433  0.06609913  1
  Li  Li17  1  0.23331921  0.45692106  0.01817573  1
  Li  Li18  1  0.15520020  0.01216823  0.19381101  1
  Li  Li19  1  0.11687303  0.55585407  0.14113069  1
  Li  Li20  1  0.16978396  0.16208217  0.21289446  1
  Li  Li21  1  0.12550357  0.70825552  0.15872290  1
  Li  Li22  1  0.82346509  0.01259277  0.19380073  1
  Li  Li23  1  0.78307254  0.55325344  0.14035390  1
  Li  Li24  1  0.80446381  0.36296478  0.17518381  1
  Li  Li25  1  0.78537600  0.89582767  0.12630084  1
  Li  Li26  1  0.42249290  0.90813810  0.12135484  1
  Li  Li27  1  0.45810448  0.36701956  0.17683698  1
  Li  Li28  1  0.78504013  0.05637528  0.13706237  1
  Li  Li29  1  0.83697461  0.50939408  0.19587153  1
  Li  Li30  1  0.12508030  0.20461572  0.15823492  1
  Li  Li31  1  0.17003591  0.65589973  0.21371149  1
  Li  Li32  1  0.45421097  0.21180851  0.16006517  1
  Li  Li33  1  0.50994903  0.65657326  0.21646396  1
  Li  Li34  1  0.47313168  0.86134674  0.17686995  1
  Li  Li35  1  0.41849175  0.41102814  0.11843744  1
  Li  Li36  1  0.24705615  0.91977872  0.30505053  1
  Li  Li37  1  0.20278317  0.46461331  0.25166177  1
  Li  Li38  1  0.26349670  0.07007573  0.32221397  1
  Li  Li39  1  0.21755308  0.61459639  0.26994852  1
  Li  Li40  1  0.91691693  0.91947893  0.30487569  1
  Li  Li41  1  0.87267979  0.46312925  0.25209221  1
  Li  Li42  1  0.89935431  0.26662987  0.28399317  1
  Li  Li43  1  0.85205055  0.81386336  0.23106740  1
  Li  Li44  1  0.51042561  0.81914430  0.23200459  1
  Li  Li45  1  0.55246858  0.27588040  0.28864156  1
  Li  Li46  1  0.88197808  0.96584927  0.24948656  1
  Li  Li47  1  0.92279299  0.41961582  0.30961427  1
  Li  Li48  1  0.21693963  0.11117484  0.26717547  1
  Li  Li49  1  0.26210774  0.56206747  0.32597679  1
  Li  Li50  1  0.54818640  0.11864618  0.27029652  1
  Li  Li51  1  0.59751147  0.56799602  0.32651138  1
  Li  Li52  1  0.56462631  0.76858090  0.28632060  1
  Li  Li53  1  0.51882936  0.31490661  0.23214960  1
  Li  Li54  1  0.33864781  0.83969370  0.40809674  1
  Li  Li55  1  0.29533996  0.37446832  0.36224606  1
  Li  Li56  1  0.35143988  0.98706394  0.43614640  1
  Li  Li57  1  0.30037829  0.52350540  0.38773589  1
  Li  Li58  1  0.00255265  0.83178717  0.41886519  1
  Li  Li59  1  0.96844192  0.36337589  0.36855763  1
  Li  Li60  1  0.99618184  0.17271412  0.38973185  1
  Li  Li61  1  0.94205922  0.72488397  0.33997322  1
  Li  Li62  1  0.60148480  0.73009299  0.34216381  1
  Li  Li63  1  0.62502717  0.20513391  0.40301558  1
  Li  Li64  1  0.95990408  0.87559510  0.36061010  1
  Li  Li65  1  0.12262528  0.38272894  0.43934537  1
  Li  Li66  1  0.31628033  0.02366117  0.37807301  1
  Li  Li67  1  0.39528190  0.47519575  0.49731061  1
  Li  Li68  1  0.63536708  0.03882414  0.37700933  1
  Li  Li69  1  0.76055169  0.40453071  0.44602717  1
  Li  Li70  1  0.66995059  0.68501067  0.39971632  1
  Li  Li71  1  0.61238023  0.22500672  0.34342466  1
  Li  Li72  1  0.47262779  0.36710494  0.44530794  1
  Li  Li73  1  0.10411051  0.54648276  0.46021556  1
  Li  Li74  1  0.13636672  0.28521509  0.48176888  1
  Li  Li75  1  0.34396188  0.60748873  0.45470217  1
  Li  Li76  1  0.72006611  0.62833218  0.45636548  1
  Li  Li77  1  0.29816164  0.74766624  0.45553391  1
  Li  Li78  1  0.26059659  0.90795072  0.47792385  1
  Li  Li79  1  0.68352599  0.98690437  0.44323465  1
  Li  Li80  1  0.67761499  0.14420622  0.45357192  1
  Li  Li81  1  0.63405785  0.57615831  0.58374826  1
  Li  Li82  1  0.61576610  0.09007286  0.55105900  1
  Li  Li83  1  0.64831181  0.41539059  0.60650629  1
  Li  Li84  1  0.68614292  0.89112344  0.54504036  1
  Li  Li85  1  0.97371829  0.56402421  0.57904793  1
  Li  Li86  1  0.92376443  0.07496384  0.52993996  1
  Li  Li87  1  0.30686076  0.08620843  0.54873212  1
  Li  Li88  1  0.98819957  0.73201410  0.56102299  1
  Li  Li89  1  0.37918766  0.68221351  0.51679676  1
  Li  Li90  1  0.24793549  0.28237865  0.55709844  1
  Li  Li91  1  0.89210978  0.63648710  0.51950466  1
  Li  Li92  1  0.98321807  0.07590515  0.58556566  1
  Li  Li93  1  0.64978818  0.39147030  0.55261425  1
  Li  Li94  1  0.58170490  0.95267978  0.59815370  1
  Li  Li95  1  0.08369744  0.42669826  0.49556677  1
  Li  Li96  1  0.28935547  0.91773306  0.60963039  1
  Li  Li97  1  0.31537883  0.73266956  0.56650205  1
  Li  Li98  1  0.46976812  0.21696886  0.51822013  1
  Li  Li99  1  0.54716832  0.66219905  0.69379592  1
  Li  Li100  1  0.58527665  0.11906199  0.64112701  1
  Li  Li101  1  0.53154871  0.51282752  0.71272216  1
  Li  Li102  1  0.57638075  0.96752209  0.65873624  1
  Li  Li103  1  0.87844869  0.66101197  0.69367936  1
  Li  Li104  1  0.91804757  0.12204572  0.64053710  1
  Li  Li105  1  0.89667558  0.31147799  0.67473714  1
  Li  Li106  1  0.91653714  0.77845347  0.62662778  1
  Li  Li107  1  0.27797873  0.76797471  0.62181028  1
  Li  Li108  1  0.23927838  0.30887076  0.67669254  1
  Li  Li109  1  0.91502544  0.61836700  0.63691910  1
  Li  Li110  1  0.86280746  0.16605434  0.69583269  1
  Li  Li111  1  0.57618492  0.47043881  0.65816796  1
  Li  Li112  1  0.53032030  0.01812148  0.71379206  1
  Li  Li113  1  0.24654433  0.46256612  0.66041218  1
  Li  Li114  1  0.18904508  0.01845666  0.71608741  1
  Li  Li115  1  0.22907075  0.81259841  0.67700310  1
  Li  Li116  1  0.28444033  0.26373787  0.61807896  1
  Li  Li117  1  0.45347831  0.75500849  0.80511931  1
  Li  Li118  1  0.49740161  0.21047672  0.75153842  1
  Li  Li119  1  0.43578788  0.60485829  0.82247508  1
  Li  Li120  1  0.48274889  0.06055301  0.76991768  1
  Li  Li121  1  0.78166104  0.75610339  0.80490853  1
  Li  Li122  1  0.82895070  0.21090929  0.75215076  1
  Li  Li123  1  0.80208582  0.40794512  0.78446806  1
  Li  Li124  1  0.84977761  0.86083978  0.73097203  1
  Li  Li125  1  0.19336344  0.85517988  0.73226733  1
  Li  Li126  1  0.15169098  0.39715067  0.78901924  1
  Li  Li127  1  0.81962543  0.70881742  0.74941634  1
  Li  Li128  1  0.77706717  0.25399021  0.80966547  1
  Li  Li129  1  0.48318768  0.56375804  0.76727554  1
  Li  Li130  1  0.43804864  0.11280554  0.82592611  1
  Li  Li131  1  0.15132524  0.55644698  0.76984141  1
  Li  Li132  1  0.10478256  0.10508420  0.82608074  1
  Li  Li133  1  0.13673164  0.90587342  0.78647059  1
  Li  Li134  1  0.18379286  0.36022243  0.73195659  1
  Li  Li135  1  0.36044314  0.83552135  0.90818960  1
  Li  Li136  1  0.40705507  0.30047943  0.86253287  1
  Li  Li137  1  0.34671970  0.68839321  0.93602738  1
  Li  Li138  1  0.39673148  0.15254384  0.88764941  1
  Li  Li139  1  0.69556930  0.84350393  0.91918032  1
  Li  Li140  1  0.73230378  0.31112995  0.86803310  1
  Li  Li141  1  0.70333698  0.50234424  0.88955204  1
  Li  Li142  1  0.75596571  0.94991085  0.83938862  1
  Li  Li143  1  0.09610765  0.94551303  0.84259444  1
  Li  Li144  1  0.07632335  0.46816906  0.90345063  1
  Li  Li145  1  0.74146094  0.79765852  0.86124124  1
  Li  Li146  1  0.57346595  0.29306077  0.93937342  1
  Li  Li147  1  0.38080656  0.65265853  0.87813549  1
  Li  Li148  1  0.29987635  0.19880670  0.99801202  1
  Li  Li149  1  0.06285141  0.63748951  0.87745742  1
  Li  Li150  1  0.93856042  0.26918913  0.94567374  1
  Li  Li151  1  0.02914670  0.98976565  0.90009764  1
  Li  Li152  1  0.08976263  0.45037236  0.84341354  1
  Li  Li153  1  0.22461802  0.30786670  0.94555159  1
  Li  Li154  1  0.59032085  0.13000506  0.96011180  1
  Li  Li155  1  0.56223183  0.38950918  0.98198443  1
  Li  Li156  1  0.35318400  0.06798805  0.95466398  1
  Li  Li157  1  0.97534939  0.04880232  0.95657971  1
  Li  Li158  1  0.39936014  0.92787576  0.95538622  1
  Li  Li159  1  0.43631585  0.76861926  0.97798311  1
  Li  Li160  1  0.01446032  0.68842349  0.94377853  1
  Li  Li161  1  0.02244341  0.53110418  0.95367105  1
  Y  Y162  1  0.39901745  0.10671052  0.07907470  1
  Y  Y163  1  0.73034999  0.25499913  0.10302977  1
  Y  Y164  1  0.68723222  0.78897141  0.04580302  1
  Y  Y165  1  0.06223194  0.93585558  0.06711536  1
  Y  Y166  1  0.49732933  0.01199068  0.19412956  1
  Y  Y167  1  0.45638265  0.55524013  0.14268539  1
  Y  Y168  1  0.82725068  0.16662279  0.21279600  1
  Y  Y169  1  0.78552225  0.71161381  0.15838615  1
  Y  Y170  1  0.10005029  0.40107163  0.11987905  1
  Y  Y171  1  0.13973589  0.85620005  0.17728181  1
  Y  Y172  1  0.58996037  0.92008947  0.30456337  1
  Y  Y173  1  0.54420199  0.46508546  0.25145266  1
  Y  Y174  1  0.91989453  0.07600839  0.32212933  1
  Y  Y175  1  0.87675912  0.62000975  0.26967773  1
  Y  Y176  1  0.18487421  0.31032335  0.23200241  1
  Y  Y177  1  0.23229349  0.76404943  0.28637876  1
  Y  Y178  1  0.67739525  0.83274196  0.41723215  1
  Y  Y179  1  0.63191999  0.37755905  0.36357110  1
  Y  Y180  1  0.00961662  0.99804081  0.43084059  1
  Y  Y181  1  0.95749821  0.53534982  0.38118299  1
  Y  Y182  1  0.27513853  0.22060630  0.34157423  1
  Y  Y183  1  0.31526722  0.68151812  0.39211941  1
  Y  Y184  1  0.34121907  0.14280153  0.45015215  1
  Y  Y185  1  0.29931498  0.56881005  0.57886078  1
  Y  Y186  1  0.96981645  0.41994044  0.60270153  1
  Y  Y187  1  0.01194001  0.88599150  0.54587939  1
  Y  Y188  1  0.63471407  0.73975069  0.56740913  1
  Y  Y189  1  0.20396660  0.66287054  0.69416124  1
  Y  Y190  1  0.24549445  0.11955175  0.64269293  1
  Y  Y191  1  0.87369945  0.50794045  0.71290651  1
  Y  Y192  1  0.91649251  0.96350693  0.65838705  1
  Y  Y193  1  0.60073911  0.27396728  0.61976167  1
  Y  Y194  1  0.56180705  0.81874806  0.67721552  1
  Y  Y195  1  0.11007943  0.75489115  0.80462895  1
  Y  Y196  1  0.15615584  0.21010162  0.75138050  1
  Y  Y197  1  0.78069053  0.59891211  0.82219961  1
  Y  Y198  1  0.82373720  0.05466485  0.76953433  1
  Y  Y199  1  0.51728375  0.36463876  0.73200965  1
  Y  Y200  1  0.46772920  0.91091526  0.78639261  1
  Y  Y201  1  0.02073952  0.84289414  0.91740597  1
  Y  Y202  1  0.06834560  0.29769523  0.86340669  1
  Y  Y203  1  0.68894812  0.67696136  0.93103177  1
  Y  Y204  1  0.74195605  0.13997372  0.88120618  1
  Y  Y205  1  0.42517432  0.45468093  0.84162943  1
  Y  Y206  1  0.38502877  0.99346326  0.89202370  1
  Y  Y207  1  0.35753540  0.53288776  0.95045449  1
  Cl  Cl208  1  0.19363554  0.97626569  0.09825041  1
  Cl  Cl209  1  0.00429179  0.51341509  0.03314949  1
  Cl  Cl210  1  0.15987955  0.66904618  0.05822071  1
  Cl  Cl211  1  0.81833975  0.66490580  0.06154053  1
  Cl  Cl212  1  0.46547880  0.35149242  0.01464332  1
  Cl  Cl213  1  0.49631166  0.82845995  0.08363701  1
  Cl  Cl214  1  0.17408261  0.80984462  0.07737846  1
  Cl  Cl215  1  0.78810723  0.10720146  0.98507316  1
  Cl  Cl216  1  0.51509695  0.98116369  0.09515553  1
  Cl  Cl217  1  0.33237756  0.50325506  0.04575114  1
  Cl  Cl218  1  0.85369813  0.97070239  0.09959815  1
  Cl  Cl219  1  0.59217548  0.59824114  0.04897343  1
  Cl  Cl220  1  0.82810699  0.82720916  0.07825403  1
  Cl  Cl221  1  0.29248104  0.38067030  0.08744723  1
  Cl  Cl222  1  0.24419343  0.91984225  0.03298418  1
  Cl  Cl223  1  0.27826563  0.21299180  0.04684773  1
  Cl  Cl224  1  0.62190261  0.22407421  0.06591174  1
  Cl  Cl225  1  0.53693888  0.76090303  0.01708461  1
  Cl  Cl226  1  0.61530160  0.37758189  0.08878036  1
  Cl  Cl227  1  0.55709444  0.91863316  0.03197053  1
  Cl  Cl228  1  0.61183345  0.06548388  0.04876285  1
  Cl  Cl229  1  0.64999648  0.52898681  0.11033274  1
  Cl  Cl230  1  0.98400109  0.36259247  0.08464387  1
  Cl  Cl231  1  0.90937547  0.92136430  0.03173318  1
  Cl  Cl232  1  0.25260686  0.06810676  0.05078229  1
  Cl  Cl233  1  0.30717455  0.53004390  0.11136427  1
  Cl  Cl234  1  0.93104835  0.06261574  0.05183876  1
  Cl  Cl235  1  0.96549083  0.52717764  0.10773430  1
  Cl  Cl236  1  0.94172281  0.22662451  0.07058301  1
  Cl  Cl237  1  0.87922708  0.76995813  0.01505081  1
  Cl  Cl238  1  0.28292675  0.89003745  0.20797424  1
  Cl  Cl239  1  0.23811067  0.43306066  0.15278627  1
  Cl  Cl240  1  0.20060226  0.13940694  0.11222275  1
  Cl  Cl241  1  0.24359330  0.59091363  0.17373495  1
  Cl  Cl242  1  0.86746482  0.12589830  0.11382007  1
  Cl  Cl243  1  0.91223351  0.58550240  0.17100807  1
  Cl  Cl244  1  0.54054811  0.28544316  0.13772979  1
  Cl  Cl245  1  0.58967285  0.74405531  0.19206486  1
  Cl  Cl246  1  0.21287596  0.27620188  0.13556463  1
  Cl  Cl247  1  0.26026135  0.73255209  0.19199921  1
  Cl  Cl248  1  0.54459063  0.12971754  0.11253638  1
  Cl  Cl249  1  0.59954848  0.58284575  0.17608359  1
  Cl  Cl250  1  0.60767542  0.88771603  0.21032457  1
  Cl  Cl251  1  0.56547201  0.43013648  0.15724170  1
  Cl  Cl252  1  0.94233065  0.89056247  0.21117394  1
  Cl  Cl253  1  0.90706042  0.43289012  0.15645145  1
  Cl  Cl254  1  0.88795818  0.27546544  0.13766652  1
  Cl  Cl255  1  0.93636501  0.73366498  0.19223990  1
  Cl  Cl256  1  0.37893909  0.29064955  0.19801116  1
  Cl  Cl257  1  0.33500195  0.83740114  0.14336355  1
  Cl  Cl258  1  0.35834778  0.13647814  0.17767013  1
  Cl  Cl259  1  0.32299928  0.68032114  0.12450544  1
  Cl  Cl260  1  0.70295088  0.13270620  0.17691214  1
  Cl  Cl261  1  0.65440106  0.67909272  0.12354889  1
  Cl  Cl262  1  0.70014522  0.29077461  0.19879467  1
  Cl  Cl263  1  0.65934930  0.83667838  0.14267551  1
  Cl  Cl264  1  0.69125378  0.98663314  0.15985229  1
  Cl  Cl265  1  0.74101265  0.43828886  0.21823029  1
  Cl  Cl266  1  0.05148928  0.28016873  0.19756095  1
  Cl  Cl267  1  0.01365153  0.82410650  0.14238422  1
  Cl  Cl268  1  0.35730724  0.97946732  0.16175222  1
  Cl  Cl269  1  0.40154424  0.43360502  0.21952955  1
  Cl  Cl270  1  0.01265805  0.98171380  0.16273193  1
  Cl  Cl271  1  0.05919059  0.43691024  0.21990392  1
  Cl  Cl272  1  0.03644472  0.13460317  0.18121591  1
  Cl  Cl273  1  0.99349426  0.68038460  0.12672427  1
  Cl  Cl274  1  0.37368909  0.79797885  0.31775933  1
  Cl  Cl275  1  0.32936159  0.34175107  0.26365589  1
  Cl  Cl276  1  0.29103107  0.04350350  0.22562650  1
  Cl  Cl277  1  0.33850141  0.49626704  0.28353677  1
  Cl  Cl278  1  0.95611978  0.03997494  0.22526418  1
  Cl  Cl279  1  0.00159303  0.49394536  0.28306301  1
  Cl  Cl280  1  0.63518072  0.19633125  0.24721344  1
  Cl  Cl281  1  0.67909598  0.65231736  0.30286783  1
  Cl  Cl282  1  0.30690240  0.18540679  0.24601469  1
  Cl  Cl283  1  0.34977844  0.64107143  0.30225144  1
  Cl  Cl284  1  0.64136418  0.03800196  0.22694256  1
  Cl  Cl285  1  0.68769707  0.48977801  0.28546834  1
  Cl  Cl286  1  0.70255434  0.79537757  0.32040291  1
  Cl  Cl287  1  0.65479139  0.34006205  0.26705756  1
  Cl  Cl288  1  0.03586289  0.79915214  0.32135634  1
  Cl  Cl289  1  0.99429484  0.34285991  0.26794118  1
  Cl  Cl290  1  0.98365879  0.18650671  0.24654401  1
  Cl  Cl291  1  0.03066745  0.64005526  0.30340352  1
  Cl  Cl292  1  0.47221906  0.20088975  0.30794849  1
  Cl  Cl293  1  0.42737154  0.74357746  0.25251029  1
  Cl  Cl294  1  0.45103349  0.04470461  0.28825988  1
  Cl  Cl295  1  0.40512374  0.58954188  0.23545693  1
  Cl  Cl296  1  0.79252930  0.04202719  0.28739582  1
  Cl  Cl297  1  0.75073880  0.58535962  0.23486865  1
  Cl  Cl298  1  0.79249403  0.20158015  0.30846027  1
  Cl  Cl299  1  0.74836988  0.74376466  0.25331617  1
  Cl  Cl300  1  0.78518396  0.89425800  0.27112984  1
  Cl  Cl301  1  0.82979070  0.35147422  0.33127488  1
  Cl  Cl302  1  0.14469553  0.18951481  0.30682565  1
  Cl  Cl303  1  0.09589288  0.73380483  0.25279879  1
  Cl  Cl304  1  0.44806734  0.88744481  0.27290379  1
  Cl  Cl305  1  0.49093254  0.34583585  0.33095923  1
  Cl  Cl306  1  0.10563967  0.89060488  0.27331485  1
  Cl  Cl307  1  0.14670240  0.34881221  0.33237032  1
  Cl  Cl308  1  0.12937477  0.04259032  0.29067762  1
  Cl  Cl309  1  0.08437914  0.58741165  0.23811059  1
  Cl  Cl310  1  0.45307284  0.72289294  0.42211995  1
  Cl  Cl311  1  0.41933063  0.25207957  0.37382643  1
  Cl  Cl312  1  0.38445641  0.95251852  0.33634533  1
  Cl  Cl313  1  0.43225762  0.40425585  0.39715667  1
  Cl  Cl314  1  0.04488631  0.95021952  0.33569543  1
  Cl  Cl315  1  0.08699728  0.40899783  0.39553718  1
  Cl  Cl316  1  0.72919741  0.10608791  0.35639511  1
  Cl  Cl317  1  0.76592985  0.56909571  0.41594919  1
  Cl  Cl318  1  0.40256664  0.09477111  0.35543044  1
  Cl  Cl319  1  0.42931895  0.56482405  0.41379952  1
  Cl  Cl320  1  0.73312629  0.94618146  0.33822452  1
  Cl  Cl321  1  0.77640513  0.39340051  0.40005599  1
  Cl  Cl322  1  0.77034545  0.71368706  0.43586588  1
  Cl  Cl323  1  0.74592647  0.25061212  0.37622772  1
  Cl  Cl324  1  0.15677872  0.71348601  0.43432169  1
  Cl  Cl325  1  0.08973854  0.24646557  0.37654691  1
  Cl  Cl326  1  0.07963108  0.09468835  0.35494548  1
  Cl  Cl327  1  0.10206343  0.55977756  0.41497414  1
  Cl  Cl328  1  0.56208296  0.11011087  0.41794885  1
  Cl  Cl329  1  0.51797861  0.65570584  0.36111047  1
  Cl  Cl330  1  0.54556891  0.95885020  0.40135717  1
  Cl  Cl331  1  0.49174223  0.50212544  0.34815513  1
  Cl  Cl332  1  0.87660655  0.95663290  0.40018506  1
  Cl  Cl333  1  0.83332001  0.49898846  0.34691394  1
  Cl  Cl334  1  0.88610431  0.11957341  0.41693219  1
  Cl  Cl335  1  0.83506067  0.65818277  0.36468085  1
  Cl  Cl336  1  0.87800868  0.80356171  0.38435443  1
  Cl  Cl337  1  0.22573894  0.10347562  0.41503467  1
  Cl  Cl338  1  0.17396259  0.64786600  0.36261884  1
  Cl  Cl339  1  0.54419056  0.80461171  0.38166610  1
  Cl  Cl340  1  0.60361847  0.25477275  0.44198664  1
  Cl  Cl341  1  0.18129021  0.81039562  0.38292614  1
  Cl  Cl342  1  0.24067612  0.26790258  0.43906679  1
  Cl  Cl343  1  0.22208756  0.95695108  0.39969091  1
  Cl  Cl344  1  0.17578153  0.49791651  0.35157890  1
  Cl  Cl345  1  0.50386704  0.15743725  0.48176607  1
  Cl  Cl346  1  0.46364762  0.86725330  0.44821450  1
  Cl  Cl347  1  0.14848894  0.86736492  0.44813669  1
  Cl  Cl348  1  0.82285382  0.02596668  0.46523462  1
  Cl  Cl349  1  0.47473178  0.01856763  0.46528848  1
  Cl  Cl350  1  0.81351898  0.86613446  0.44829585  1
  Cl  Cl351  1  0.14713644  0.18265070  0.48317868  1
  Cl  Cl352  1  0.15667223  0.01685287  0.46494082  1
  Cl  Cl353  1  0.57858802  0.41549392  0.47037757  1
  Cl  Cl354  1  0.95069959  0.39408602  0.46930148  1
  Cl  Cl355  1  0.46783368  0.65279368  0.47700378  1
  Cl  Cl356  1  0.23695155  0.57810785  0.48461366  1
  Cl  Cl357  1  0.23840075  0.42765226  0.46424079  1
  Cl  Cl358  1  0.50447908  0.69859121  0.59846700  1
  Cl  Cl359  1  0.69915845  0.15928594  0.53258699  1
  Cl  Cl360  1  0.54162382  0.00395180  0.55819385  1
  Cl  Cl361  1  0.88036236  0.00960865  0.56207615  1
  Cl  Cl362  1  0.23476180  0.32195242  0.51474051  1
  Cl  Cl363  1  0.20234784  0.84657083  0.58365022  1
  Cl  Cl364  1  0.52032062  0.86545514  0.57837830  1
  Cl  Cl365  1  0.90592477  0.57039700  0.48492495  1
  Cl  Cl366  1  0.18281487  0.69434819  0.59519150  1
  Cl  Cl367  1  0.37170766  0.16945990  0.54563700  1
  Cl  Cl368  1  0.84477445  0.70477240  0.59963400  1
  Cl  Cl369  1  0.10949516  0.07507028  0.54931806  1
  Cl  Cl370  1  0.86927906  0.84830175  0.57817885  1
  Cl  Cl371  1  0.40944444  0.29357606  0.58709642  1
  Cl  Cl372  1  0.45312070  0.75617826  0.53313317  1
  Cl  Cl373  1  0.41870382  0.46264300  0.54671487  1
  Cl  Cl374  1  0.07664588  0.45170195  0.56557633  1
  Cl  Cl375  1  0.15868051  0.91616148  0.51702168  1
  Cl  Cl376  1  0.08622259  0.29719301  0.58857346  1
  Cl  Cl377  1  0.14091539  0.75663205  0.53199539  1
  Cl  Cl378  1  0.08563801  0.61066489  0.54865155  1
  Cl  Cl379  1  0.05189931  0.14586950  0.61033449  1
  Cl  Cl380  1  0.71541325  0.31294077  0.58446755  1
  Cl  Cl381  1  0.78603812  0.75566042  0.53205730  1
  Cl  Cl382  1  0.44601941  0.60740154  0.55072630  1
  Cl  Cl383  1  0.39459258  0.14479308  0.61139124  1
  Cl  Cl384  1  0.76695718  0.61329307  0.55195986  1
  Cl  Cl385  1  0.73616294  0.14782146  0.60772086  1
  Cl  Cl386  1  0.75710694  0.44867044  0.57048125  1
  Cl  Cl387  1  0.82115834  0.90562355  0.51472415  1
  Cl  Cl388  1  0.41897106  0.78473516  0.70797374  1
  Cl  Cl389  1  0.46227860  0.24235132  0.65265689  1
  Cl  Cl390  1  0.49790964  0.53600600  0.61200964  1
  Cl  Cl391  1  0.45782451  0.08410691  0.67391242  1
  Cl  Cl392  1  0.83203814  0.54890852  0.61380346  1
  Cl  Cl393  1  0.78870586  0.08969377  0.67102339  1
  Cl  Cl394  1  0.15972000  0.38983797  0.63742505  1
  Cl  Cl395  1  0.11190746  0.93090667  0.69216303  1
  Cl  Cl396  1  0.48748347  0.39886508  0.63539036  1
  Cl  Cl397  1  0.44123934  0.94229306  0.69206551  1
  Cl  Cl398  1  0.15377869  0.54597112  0.61232552  1
  Cl  Cl399  1  0.10101443  0.09249904  0.67605671  1
  Cl  Cl400  1  0.09397870  0.78719191  0.71030425  1
  Cl  Cl401  1  0.13545668  0.24480849  0.65721002  1
  Cl  Cl402  1  0.75940468  0.78400982  0.71104761  1
  Cl  Cl403  1  0.79386086  0.24200271  0.65633476  1
  Cl  Cl404  1  0.81236563  0.39951750  0.63740078  1
  Cl  Cl405  1  0.76490246  0.94167089  0.69223746  1
  Cl  Cl406  1  0.32284195  0.38423181  0.69797213  1
  Cl  Cl407  1  0.36553797  0.83804065  0.64341906  1
  Cl  Cl408  1  0.34287045  0.53859097  0.67752962  1
  Cl  Cl409  1  0.37974460  0.99462072  0.62466504  1
  Cl  Cl410  1  0.99828988  0.54173729  0.67691612  1
  Cl  Cl411  1  0.04819591  0.99565732  0.62353120  1
  Cl  Cl412  1  0.00150932  0.38404568  0.69861901  1
  Cl  Cl413  1  0.04180647  0.83834455  0.64277418  1
  Cl  Cl414  1  0.01011393  0.68812323  0.65988221  1
  Cl  Cl415  1  0.95924117  0.23687487  0.71816568  1
  Cl  Cl416  1  0.64983288  0.39499219  0.69746996  1
  Cl  Cl417  1  0.68818920  0.85098640  0.64242855  1
  Cl  Cl418  1  0.34408162  0.69541089  0.66178977  1
  Cl  Cl419  1  0.29942293  0.24159569  0.71954337  1
  Cl  Cl420  1  0.68847453  0.69310477  0.66262285  1
  Cl  Cl421  1  0.64182466  0.23804583  0.71990525  1
  Cl  Cl422  1  0.66500270  0.54025310  0.68112126  1
  Cl  Cl423  1  0.70888298  0.99455162  0.62669711  1
  Cl  Cl424  1  0.32616576  0.87708449  0.81776419  1
  Cl  Cl425  1  0.37234119  0.33329895  0.76360858  1
  Cl  Cl426  1  0.41040728  0.63142935  0.72559808  1
  Cl  Cl427  1  0.36175403  0.17875374  0.78351821  1
  Cl  Cl428  1  0.74532824  0.63470665  0.72522201  1
  Cl  Cl429  1  0.69918665  0.18076930  0.78304960  1
  Cl  Cl430  1  0.06615786  0.47846487  0.74712452  1
  Cl  Cl431  1  0.02045808  0.02288755  0.80290673  1
  Cl  Cl432  1  0.39430906  0.48964233  0.74590098  1
  Cl  Cl433  1  0.35029547  0.03395361  0.80232509  1
  Cl  Cl434  1  0.05985636  0.63671661  0.72694301  1
  Cl  Cl435  1  0.01317696  0.18466824  0.78532718  1
  Cl  Cl436  1  0.99714732  0.87970482  0.82044901  1
  Cl  Cl437  1  0.04605180  0.33501087  0.76710023  1
  Cl  Cl438  1  0.66369879  0.87551793  0.82144007  1
  Cl  Cl439  1  0.70704729  0.33205451  0.76798429  1
  Cl  Cl440  1  0.71708692  0.48831354  0.74658383  1
  Cl  Cl441  1  0.66959263  0.03495336  0.80338142  1
  Cl  Cl442  1  0.22890011  0.47392343  0.80793772  1
  Cl  Cl443  1  0.27259005  0.93158165  0.75255944  1
  Cl  Cl444  1  0.24904551  0.63024963  0.78835299  1
  Cl  Cl445  1  0.29488223  0.08548768  0.73558091  1
  Cl  Cl446  1  0.90782050  0.63315127  0.78742250  1
  Cl  Cl447  1  0.94970647  0.08940460  0.73472367  1
  Cl  Cl448  1  0.90844691  0.47354929  0.80847212  1
  Cl  Cl449  1  0.95212978  0.93091464  0.75336735  1
  Cl  Cl450  1  0.91547871  0.78064374  0.77108121  1
  Cl  Cl451  1  0.87115845  0.32326121  0.83099354  1
  Cl  Cl452  1  0.55611055  0.48571222  0.80695871  1
  Cl  Cl453  1  0.60455651  0.94133310  0.75293907  1
  Cl  Cl454  1  0.25267467  0.78732944  0.77297939  1
  Cl  Cl455  1  0.21026407  0.32943799  0.83098520  1
  Cl  Cl456  1  0.59491875  0.78436253  0.77329756  1
  Cl  Cl457  1  0.55312980  0.32642528  0.83226346  1
  Cl  Cl458  1  0.57050900  0.63245738  0.79083701  1
  Cl  Cl459  1  0.61548813  0.08774808  0.73811109  1
  Cl  Cl460  1  0.24608241  0.95261272  0.92198207  1
  Cl  Cl461  1  0.28130357  0.42334964  0.87401678  1
  Cl  Cl462  1  0.31531555  0.72268286  0.83647665  1
  Cl  Cl463  1  0.26696202  0.27141658  0.89716598  1
  Cl  Cl464  1  0.65533093  0.72477047  0.83587761  1
  Cl  Cl465  1  0.61289418  0.26642791  0.89551662  1
  Cl  Cl466  1  0.97139797  0.56937640  0.85640701  1
  Cl  Cl467  1  0.93310893  0.10639105  0.91610147  1
  Cl  Cl468  1  0.29745817  0.58032528  0.85562846  1
  Cl  Cl469  1  0.26967487  0.11029587  0.91362728  1
  Cl  Cl470  1  0.96686334  0.72913155  0.83835895  1
  Cl  Cl471  1  0.92441537  0.28111109  0.89973823  1
  Cl  Cl472  1  0.92793243  0.96196518  0.93609918  1
  Cl  Cl473  1  0.95478082  0.42456797  0.87625130  1
  Cl  Cl474  1  0.54160679  0.96198440  0.93450390  1
  Cl  Cl475  1  0.61169344  0.42819489  0.87642746  1
  Cl  Cl476  1  0.62048573  0.58054730  0.85504198  1
  Cl  Cl477  1  0.59619575  0.11592557  0.91486900  1
  Cl  Cl478  1  0.13690107  0.56550028  0.91827090  1
  Cl  Cl479  1  0.18278706  0.01904907  0.86094530  1
  Cl  Cl480  1  0.15350176  0.71690427  0.90136793  1
  Cl  Cl481  1  0.20928165  0.17302769  0.84818998  1
  Cl  Cl482  1  0.82318826  0.71814195  0.90045902  1
  Cl  Cl483  1  0.86758958  0.17586482  0.84699790  1
  Cl  Cl484  1  0.81352633  0.55553790  0.91711670  1
  Cl  Cl485  1  0.86466624  0.01714287  0.86481778  1
  Cl  Cl486  1  0.82057549  0.87151050  0.88459167  1
  Cl  Cl487  1  0.47264086  0.57198796  0.91520958  1
  Cl  Cl488  1  0.52632207  0.02713380  0.86252545  1
  Cl  Cl489  1  0.15449506  0.87080763  0.88184260  1
  Cl  Cl490  1  0.09579153  0.42025318  0.94258078  1
  Cl  Cl491  1  0.51841393  0.86440602  0.88310658  1
  Cl  Cl492  1  0.45651395  0.40802685  0.93924194  1
  Cl  Cl493  1  0.47698359  0.71824922  0.89974573  1
  Cl  Cl494  1  0.52431291  0.17749319  0.85152143  1
  Cl  Cl495  1  0.19418269  0.51881157  0.98216782  1
  Cl  Cl496  1  0.23523689  0.80839666  0.94818561  1
  Cl  Cl497  1  0.55063697  0.80800680  0.94822819  1
  Cl  Cl498  1  0.87516131  0.64925830  0.96554280  1
  Cl  Cl499  1  0.22361249  0.65733152  0.96542233  1
  Cl  Cl500  1  0.88531050  0.80916235  0.94847527  1
  Cl  Cl501  1  0.55096712  0.49238497  0.98365665  1
  Cl  Cl502  1  0.54086396  0.65911232  0.96507874  1
  Cl  Cl503  1  0.11977676  0.25826886  0.97026938  1
  Cl  Cl504  1  0.74734373  0.28122822  0.96905850  1
  Cl  Cl505  1  0.22874914  0.02297743  0.97688979  1
  Cl  Cl506  1  0.46040002  0.09695885  0.98468311  1
  Cl  Cl507  1  0.45845395  0.24813050  0.96392224  1
