# generated using pymatgen
data_Li7Y2Cl13
_symmetry_space_group_name_H-M   'P 1'
_cell_length_a   11.17729600
_cell_length_b   23.17126381
_cell_length_c   55.84205115
_cell_angle_alpha   90.00000000
_cell_angle_beta   90.00000000
_cell_angle_gamma   61.15997857
_symmetry_Int_Tables_number   1
_chemical_formula_structural   Li7Y2Cl13
_chemical_formula_sum   'Li168 Y48 Cl312'
_cell_volume   12668.84574856
_cell_formula_units_Z   24
loop_
 _symmetry_equiv_pos_site_id
 _symmetry_equiv_pos_as_xyz
  1  'x, y, z'
loop_
 _atom_site_type_symbol
 _atom_site_label
 _atom_site_symmetry_multiplicity
 _atom_site_fract_x
 _atom_site_fract_y
 _atom_site_fract_z
 _atom_site_occupancy
  Li  Li0  1  0.03213193  0.16569639  0.02014887  1
  Li  Li1  1  0.07284118  0.61173636  0.06600297  1
  Li  Li2  1  0.03382580  0.30738949  0.03932175  1
  Li  Li3  1  0.08049963  0.76795322  0.08081308  1
  Li  Li4  1  0.61079686  0.26093933  0.02039597  1
  Li  Li5  1  0.74367007  0.60122362  0.06721089  1
  Li  Li6  1  0.79473072  0.40281991  0.09985788  1
  Li  Li7  1  0.73925724  0.95829329  0.05646877  1
  Li  Li8  1  0.37963336  0.95218653  0.05316244  1
  Li  Li9  1  0.40538431  0.43519085  0.10507014  1
  Li  Li10  1  0.75473159  0.25747010  0.06776837  1
  Li  Li11  1  0.67666633  0.65291312  0.01897280  1
  Li  Li12  1  0.09205712  0.23837252  0.08110768  1
  Li  Li13  1  0.14938483  0.69847878  0.02335639  1
  Li  Li14  1  0.41122231  0.28000204  0.08731952  1
  Li  Li15  1  0.36755450  0.81549021  0.04246098  1
  Li  Li16  1  0.43077748  0.91644703  0.10463796  1
  Li  Li17  1  0.39080737  0.44292550  0.04911094  1
  Li  Li18  1  0.10986504  0.06657656  0.11886967  1
  Li  Li19  1  0.15220253  0.52666876  0.17194146  1
  Li  Li20  1  0.13324943  0.21991922  0.13595106  1
  Li  Li21  1  0.16839387  0.67613851  0.18816425  1
  Li  Li22  1  0.76951514  0.08457237  0.11116990  1
  Li  Li23  1  0.82401083  0.52543002  0.17189930  1
  Li  Li24  1  0.85125284  0.32897302  0.20618330  1
  Li  Li25  1  0.80365761  0.87524467  0.15599295  1
  Li  Li26  1  0.45753193  0.88139143  0.15635396  1
  Li  Li27  1  0.50334985  0.33478300  0.20779093  1
  Li  Li28  1  0.81798882  0.03020261  0.16902973  1
  Li  Li29  1  0.79051798  0.56654471  0.11986750  1
  Li  Li30  1  0.16783347  0.16852698  0.18758557  1
  Li  Li31  1  0.12540736  0.71653453  0.13445325  1
  Li  Li32  1  0.49658813  0.17570127  0.19056635  1
  Li  Li33  1  0.45685492  0.72171042  0.13916348  1
  Li  Li34  1  0.51487655  0.82936518  0.20705630  1
  Li  Li35  1  0.47070756  0.37617749  0.15500082  1
  Li  Li36  1  0.19506621  0.98007791  0.22341513  1
  Li  Li37  1  0.24175617  0.43438249  0.27654506  1
  Li  Li38  1  0.20804196  0.13169414  0.24086698  1
  Li  Li39  1  0.25827057  0.58631310  0.29261470  1
  Li  Li40  1  0.86614408  0.98098669  0.22308841  1
  Li  Li41  1  0.91154511  0.43466869  0.27664666  1
  Li  Li42  1  0.93616490  0.23851229  0.30943352  1
  Li  Li43  1  0.89229466  0.78504325  0.25697533  1
  Li  Li44  1  0.54760699  0.78936059  0.25941928  1
  Li  Li45  1  0.59312824  0.24539700  0.31247495  1
  Li  Li46  1  0.92255445  0.93628937  0.27579036  1
  Li  Li47  1  0.87929871  0.48109370  0.22448970  1
  Li  Li48  1  0.25587783  0.07928240  0.29223467  1
  Li  Li49  1  0.21178034  0.62546186  0.24018566  1
  Li  Li50  1  0.59496589  0.08436039  0.29508456  1
  Li  Li51  1  0.54675345  0.63076469  0.24268732  1
  Li  Li52  1  0.60385482  0.73937505  0.31100256  1
  Li  Li53  1  0.55795308  0.28365441  0.25920255  1
  Li  Li54  1  0.28668677  0.88867720  0.32785810  1
  Li  Li55  1  0.31761837  0.34951195  0.37706132  1
  Li  Li56  1  0.29775281  0.03828838  0.34525178  1
  Li  Li57  1  0.34526483  0.49838467  0.39556118  1
  Li  Li58  1  0.95650156  0.88966805  0.32784702  1
  Li  Li59  1  0.01448844  0.33372291  0.38443354  1
  Li  Li60  1  0.86700260  0.19646077  0.44015027  1
  Li  Li61  1  0.98222385  0.69573613  0.35956812  1
  Li  Li62  1  0.64288590  0.69988732  0.36487756  1
  Li  Li63  1  0.60864296  0.18438683  0.42105843  1
  Li  Li64  1  0.00471960  0.85028621  0.37968437  1
  Li  Li65  1  0.96184887  0.38746066  0.32963854  1
  Li  Li66  1  0.35246758  0.97835917  0.39413826  1
  Li  Li67  1  0.30606733  0.53551763  0.34370984  1
  Li  Li68  1  0.66351778  0.02379114  0.40124887  1
  Li  Li69  1  0.63760436  0.54235297  0.34565594  1
  Li  Li70  1  0.70541609  0.64690981  0.41957094  1
  Li  Li71  1  0.65295170  0.19436484  0.36458594  1
  Li  Li72  1  0.38229454  0.79764253  0.43272992  1
  Li  Li73  1  0.44414895  0.25310977  0.47697263  1
  Li  Li74  1  0.39867255  0.93242055  0.45275741  1
  Li  Li75  1  0.04055215  0.80690370  0.43133980  1
  Li  Li76  1  0.05113691  0.28951619  0.47827169  1
  Li  Li77  1  0.09245868  0.60292152  0.45916171  1
  Li  Li78  1  0.65621382  0.70809887  0.48041282  1
  Li  Li79  1  0.08561572  0.76534042  0.47998223  1
  Li  Li80  1  0.20128077  0.21048291  0.43559840  1
  Li  Li81  1  0.36889093  0.47119091  0.44715130  1
  Li  Li82  1  0.76391257  0.44970947  0.44440006  1
  Li  Li83  1  0.73900477  0.09650541  0.45943961  1
  Li  Li84  1  0.36852376  0.50938994  0.52001713  1
  Li  Li85  1  0.32775159  0.06347677  0.56657593  1
  Li  Li86  1  0.36491457  0.36836500  0.53922205  1
  Li  Li87  1  0.32083011  0.90613536  0.58020984  1
  Li  Li88  1  0.78955698  0.41287557  0.52048328  1
  Li  Li89  1  0.65631639  0.07399861  0.56719063  1
  Li  Li90  1  0.60522405  0.27295767  0.59924534  1
  Li  Li91  1  0.66077792  0.71707009  0.55620915  1
  Li  Li92  1  0.01993680  0.72381702  0.55313246  1
  Li  Li93  1  0.99277061  0.24099800  0.60490948  1
  Li  Li94  1  0.64533447  0.41808487  0.56835565  1
  Li  Li95  1  0.71926665  0.02373658  0.51883210  1
  Li  Li96  1  0.30553619  0.43942763  0.58078517  1
  Li  Li97  1  0.25082692  0.97708803  0.52322351  1
  Li  Li98  1  0.98877771  0.39551802  0.58745784  1
  Li  Li99  1  0.03086989  0.86017297  0.54226411  1
  Li  Li100  1  0.97064846  0.75809936  0.60468551  1
  Li  Li101  1  0.00912240  0.23184978  0.54916129  1
  Li  Li102  1  0.28976412  0.60821110  0.61917063  1
  Li  Li103  1  0.24862761  0.14784986  0.67189305  1
  Li  Li104  1  0.26585446  0.45452123  0.63592983  1
  Li  Li105  1  0.23136538  0.99839404  0.68808781  1
  Li  Li106  1  0.63147857  0.59060719  0.61133824  1
  Li  Li107  1  0.57779015  0.14801409  0.67188673  1
  Li  Li108  1  0.55072960  0.34564512  0.70621573  1
  Li  Li109  1  0.59690738  0.79980026  0.65531995  1
  Li  Li110  1  0.94301303  0.79363628  0.65634722  1
  Li  Li111  1  0.89762159  0.34026991  0.70767780  1
  Li  Li112  1  0.58192647  0.64546342  0.66888146  1
  Li  Li113  1  0.60932266  0.10836253  0.61980358  1
  Li  Li114  1  0.23178579  0.50529187  0.68770525  1
  Li  Li115  1  0.27395162  0.96010362  0.63418332  1
  Li  Li116  1  0.90124881  0.49897720  0.69073363  1
  Li  Li117  1  0.94325092  0.95376643  0.63803870  1
  Li  Li118  1  0.88653653  0.84630201  0.70649071  1
  Li  Li119  1  0.92946179  0.29872185  0.65497276  1
  Li  Li120  1  0.20539814  0.69480729  0.72306650  1
  Li  Li121  1  0.16122214  0.23973637  0.77648744  1
  Li  Li122  1  0.19245580  0.54380247  0.74082107  1
  Li  Li123  1  0.14232292  0.08896485  0.79272355  1
  Li  Li124  1  0.53487439  0.69435941  0.72263691  1
  Li  Li125  1  0.48992178  0.24018114  0.77655440  1
  Li  Li126  1  0.46584412  0.43610050  0.81025066  1
  Li  Li127  1  0.50793374  0.88954860  0.75656675  1
  Li  Li128  1  0.85321765  0.88507948  0.75930681  1
  Li  Li129  1  0.80976072  0.42930652  0.81207383  1
  Li  Li130  1  0.47606332  0.73917789  0.77529857  1
  Li  Li131  1  0.52002070  0.19454590  0.72439597  1
  Li  Li132  1  0.14652249  0.59468457  0.79219215  1
  Li  Li133  1  0.18724909  0.04891677  0.73989414  1
  Li  Li134  1  0.80486682  0.59050167  0.79508921  1
  Li  Li135  1  0.85315712  0.04450636  0.74257429  1
  Li  Li136  1  0.79416796  0.93576486  0.81095150  1
  Li  Li137  1  0.84287811  0.39066209  0.75914693  1
  Li  Li138  1  0.11073960  0.78636089  0.82698604  1
  Li  Li139  1  0.08132146  0.32527816  0.87785512  1
  Li  Li140  1  0.10065876  0.63713701  0.84500941  1
  Li  Li141  1  0.05485630  0.17706109  0.89534603  1
  Li  Li142  1  0.44453638  0.78288019  0.82762617  1
  Li  Li143  1  0.38643356  0.34008508  0.88439636  1
  Li  Li144  1  0.53493556  0.47751850  0.93970833  1
  Li  Li145  1  0.41885295  0.97870881  0.86021963  1
  Li  Li146  1  0.75748376  0.97501535  0.86510012  1
  Li  Li147  1  0.78832827  0.49334429  0.92105700  1
  Li  Li148  1  0.39217970  0.82545376  0.87940170  1
  Li  Li149  1  0.43792031  0.28750722  0.82934477  1
  Li  Li150  1  0.04569978  0.69599852  0.89398740  1
  Li  Li151  1  0.09703298  0.13783978  0.84380632  1
  Li  Li152  1  0.73530853  0.65152660  0.90111298  1
  Li  Li153  1  0.76370885  0.13233809  0.84584717  1
  Li  Li154  1  0.69447798  0.02750571  0.91983026  1
  Li  Li155  1  0.74834166  0.48047049  0.86447215  1
  Li  Li156  1  0.01551079  0.87774107  0.93308285  1
  Li  Li157  1  0.95743476  0.42028306  0.97673211  1
  Li  Li158  1  0.00035468  0.74264130  0.95241983  1
  Li  Li159  1  0.35809018  0.86719856  0.93127761  1
  Li  Li160  1  0.35336520  0.38294009  0.97820837  1
  Li  Li161  1  0.30206072  0.07367220  0.95906809  1
  Li  Li162  1  0.74208381  0.96757504  0.98079453  1
  Li  Li163  1  0.31390914  0.91004923  0.98005541  1
  Li  Li164  1  0.20297518  0.46223894  0.93554239  1
  Li  Li165  1  0.02761037  0.20514609  0.94696086  1
  Li  Li166  1  0.63876072  0.22447934  0.94389144  1
  Li  Li167  1  0.65934718  0.57832223  0.96021217  1
  Y  Y168  1  0.41409426  0.60733794  0.06730388  1
  Y  Y169  1  0.74354204  0.76661440  0.08349712  1
  Y  Y170  1  0.05911832  0.45315156  0.04809427  1
  Y  Y171  1  0.08890223  0.91403247  0.10497866  1
  Y  Y172  1  0.45335952  0.06865462  0.11867126  1
  Y  Y173  1  0.49891407  0.52605520  0.17221841  1
  Y  Y174  1  0.78141372  0.22733110  0.13859133  1
  Y  Y175  1  0.82684316  0.68123745  0.18931032  1
  Y  Y176  1  0.14018334  0.36982289  0.15481749  1
  Y  Y177  1  0.18136986  0.82493627  0.20581184  1
  Y  Y178  1  0.53821812  0.98084716  0.22423821  1
  Y  Y179  1  0.58484179  0.43470134  0.27577376  1
  Y  Y180  1  0.86821192  0.13609257  0.24136360  1
  Y  Y181  1  0.91646679  0.59074565  0.29380064  1
  Y  Y182  1  0.22586473  0.27912136  0.25851834  1
  Y  Y183  1  0.27314547  0.73419032  0.31018266  1
  Y  Y184  1  0.63374299  0.88944103  0.32721415  1
  Y  Y185  1  0.67045074  0.34818171  0.38195073  1
  Y  Y186  1  0.96442549  0.04524910  0.34596252  1
  Y  Y187  1  0.00229460  0.50216047  0.39502802  1
  Y  Y188  1  0.31745779  0.18689462  0.36084754  1
  Y  Y189  1  0.36912754  0.64643103  0.41557808  1
  Y  Y190  1  0.72278061  0.80398706  0.43239926  1
  Y  Y191  1  0.05213492  0.95782367  0.45163548  1
  Y  Y192  1  0.98629458  0.06780513  0.56712330  1
  Y  Y193  1  0.65686117  0.90847342  0.58336714  1
  Y  Y194  1  0.34058970  0.22234643  0.54828243  1
  Y  Y195  1  0.31122386  0.76094424  0.60477549  1
  Y  Y196  1  0.94657917  0.60649332  0.61848970  1
  Y  Y197  1  0.90114292  0.14898335  0.67204976  1
  Y  Y198  1  0.61813697  0.44787029  0.63865274  1
  Y  Y199  1  0.57325189  0.99354733  0.68921901  1
  Y  Y200  1  0.26114274  0.30462493  0.65481527  1
  Y  Y201  1  0.21876348  0.85004299  0.70545110  1
  Y  Y202  1  0.86235202  0.69421651  0.72410747  1
  Y  Y203  1  0.81628174  0.24014509  0.77582520  1
  Y  Y204  1  0.53212445  0.53889322  0.74122765  1
  Y  Y205  1  0.48389180  0.08409909  0.79372162  1
  Y  Y206  1  0.17508353  0.39585461  0.75843168  1
  Y  Y207  1  0.12695546  0.94066624  0.81010856  1
  Y  Y208  1  0.76513126  0.78543807  0.82718547  1
  Y  Y209  1  0.72985497  0.32702306  0.88164197  1
  Y  Y210  1  0.43486046  0.62954458  0.84592157  1
  Y  Y211  1  0.39819212  0.17267884  0.89502920  1
  Y  Y212  1  0.08342472  0.48764821  0.86096095  1
  Y  Y213  1  0.02969576  0.02884286  0.91559205  1
  Y  Y214  1  0.67539572  0.87161812  0.93255088  1
  Y  Y215  1  0.34642589  0.71714000  0.95154036  1
  Cl  Cl216  1  0.19813310  0.48867644  0.07796276  1
  Cl  Cl217  1  0.16115158  0.19540058  0.04297694  1
  Cl  Cl218  1  0.20170869  0.64523819  0.09604741  1
  Cl  Cl219  1  0.82217607  0.18824883  0.03439886  1
  Cl  Cl220  1  0.86972430  0.63911847  0.09397028  1
  Cl  Cl221  1  0.33092972  0.90911954  0.01965638  1
  Cl  Cl222  1  0.18515228  0.33274558  0.06445657  1
  Cl  Cl223  1  0.51652261  0.32481892  0.05732008  1
  Cl  Cl224  1  0.55665560  0.63597328  0.09795716  1
  Cl  Cl225  1  0.51869603  0.48025087  0.07790056  1
  Cl  Cl226  1  0.67825413  0.98979708  0.01848858  1
  Cl  Cl227  1  0.86614513  0.48722993  0.08231368  1
  Cl  Cl228  1  0.86133612  0.32552901  0.06804749  1
  Cl  Cl229  1  0.25401383  0.43409372  0.01791150  1
  Cl  Cl230  1  0.30207089  0.88486295  0.07652159  1
  Cl  Cl231  1  0.31327551  0.19334356  0.10405930  1
  Cl  Cl232  1  0.27895721  0.73231256  0.04878160  1
  Cl  Cl233  1  0.65968618  0.20249592  0.10183156  1
  Cl  Cl234  1  0.61160098  0.73740256  0.04862163  1
  Cl  Cl235  1  0.61436712  0.89053069  0.06880051  1
  Cl  Cl236  1  0.64189538  0.04627154  0.08696043  1
  Cl  Cl237  1  0.60875937  0.58017940  0.03636503  1
  Cl  Cl238  1  0.93993013  0.40886901  0.01781143  1
  Cl  Cl239  1  0.97391919  0.88434802  0.06950683  1
  Cl  Cl240  1  0.31574025  0.03305376  0.08812123  1
  Cl  Cl241  1  0.26139569  0.58649742  0.03575494  1
  Cl  Cl242  1  0.98206900  0.03547329  0.08973612  1
  Cl  Cl243  1  0.91797759  0.57980490  0.03388097  1
  Cl  Cl244  1  0.98969869  0.19014607  0.10780554  1
  Cl  Cl245  1  0.94905658  0.73407547  0.05163483  1
  Cl  Cl246  1  0.23858334  0.94593244  0.13407583  1
  Cl  Cl247  1  0.28174841  0.40369178  0.18438685  1
  Cl  Cl248  1  0.24484840  0.10141811  0.14880595  1
  Cl  Cl249  1  0.28854619  0.55803161  0.20151266  1
  Cl  Cl250  1  0.90137589  0.09997326  0.14777142  1
  Cl  Cl251  1  0.95478678  0.55490523  0.20148089  1
  Cl  Cl252  1  0.58371985  0.25811800  0.16959350  1
  Cl  Cl253  1  0.55898433  0.79500737  0.11696997  1
  Cl  Cl254  1  0.26093701  0.24535287  0.16860073  1
  Cl  Cl255  1  0.21987459  0.78580000  0.11578662  1
  Cl  Cl256  1  0.58932447  0.09980214  0.14984344  1
  Cl  Cl257  1  0.64042735  0.55248689  0.20369639  1
  Cl  Cl258  1  0.56275619  0.94383992  0.13453238  1
  Cl  Cl259  1  0.60633685  0.40135694  0.18693170  1
  Cl  Cl260  1  0.89308462  0.94557097  0.13639456  1
  Cl  Cl261  1  0.94567698  0.40473184  0.18779258  1
  Cl  Cl262  1  0.93806248  0.24698357  0.16950691  1
  Cl  Cl263  1  0.89812860  0.78857016  0.11362642  1
  Cl  Cl264  1  0.33451432  0.35364573  0.12248919  1
  Cl  Cl265  1  0.38043284  0.80299851  0.17433884  1
  Cl  Cl266  1  0.39803049  0.10496328  0.20858476  1
  Cl  Cl267  1  0.35766338  0.64967797  0.15626921  1
  Cl  Cl268  1  0.74306510  0.10243066  0.20779733  1
  Cl  Cl269  1  0.70320801  0.64617294  0.15582419  1
  Cl  Cl270  1  0.65491662  0.35079950  0.12281572  1
  Cl  Cl271  1  0.69867479  0.80558088  0.17513037  1
  Cl  Cl272  1  0.73180088  0.95543459  0.19231843  1
  Cl  Cl273  1  0.69323681  0.49912932  0.14061060  1
  Cl  Cl274  1  0.01053649  0.33786057  0.12336145  1
  Cl  Cl275  1  0.04835872  0.79386503  0.17348035  1
  Cl  Cl276  1  0.39674688  0.94809691  0.19414500  1
  Cl  Cl277  1  0.35273486  0.49590950  0.14194488  1
  Cl  Cl278  1  0.05542764  0.95099133  0.19384639  1
  Cl  Cl279  1  0.01330040  0.49637837  0.14220740  1
  Cl  Cl280  1  0.07604207  0.10375895  0.21139433  1
  Cl  Cl281  1  0.03298874  0.64922224  0.15905533  1
  Cl  Cl282  1  0.32429209  0.85655289  0.23593667  1
  Cl  Cl283  1  0.36895022  0.31135646  0.28847935  1
  Cl  Cl284  1  0.33016233  0.01235486  0.25371978  1
  Cl  Cl285  1  0.37758601  0.46760138  0.30575393  1
  Cl  Cl286  1  0.99683740  0.00928384  0.25303876  1
  Cl  Cl287  1  0.04180089  0.46451477  0.30583653  1
  Cl  Cl288  1  0.67567975  0.16615437  0.27371927  1
  Cl  Cl289  1  0.63208984  0.71152776  0.22136729  1
  Cl  Cl290  1  0.34521675  0.15511220  0.27238182  1
  Cl  Cl291  1  0.30185152  0.70081281  0.22006156  1
  Cl  Cl292  1  0.68291708  0.00690006  0.25529706  1
  Cl  Cl293  1  0.72708433  0.46053716  0.30750720  1
  Cl  Cl294  1  0.64903538  0.85592010  0.23905717  1
  Cl  Cl295  1  0.69341308  0.31054210  0.29141143  1
  Cl  Cl296  1  0.98691458  0.85913609  0.23890462  1
  Cl  Cl297  1  0.03024178  0.31337194  0.29157337  1
  Cl  Cl298  1  0.02274098  0.15658348  0.27308044  1
  Cl  Cl299  1  0.98053819  0.70205884  0.22098943  1
  Cl  Cl300  1  0.42131130  0.25872021  0.22667673  1
  Cl  Cl301  1  0.46927941  0.71292711  0.27848255  1
  Cl  Cl302  1  0.49063734  0.01417532  0.31284157  1
  Cl  Cl303  1  0.44603963  0.55944433  0.26052159  1
  Cl  Cl304  1  0.83814513  0.01059480  0.31225666  1
  Cl  Cl305  1  0.78998654  0.55662062  0.26066064  1
  Cl  Cl306  1  0.74106401  0.26046820  0.22738000  1
  Cl  Cl307  1  0.78809501  0.71459991  0.27930615  1
  Cl  Cl308  1  0.82836005  0.86303951  0.29571836  1
  Cl  Cl309  1  0.78052878  0.40929679  0.24440090  1
  Cl  Cl310  1  0.09163381  0.24960147  0.22615096  1
  Cl  Cl311  1  0.13994386  0.70365886  0.27799160  1
  Cl  Cl312  1  0.48823566  0.85696697  0.29784759  1
  Cl  Cl313  1  0.44084518  0.40267800  0.24615890  1
  Cl  Cl314  1  0.14736275  0.86037398  0.29812097  1
  Cl  Cl315  1  0.10058441  0.40614652  0.24680543  1
  Cl  Cl316  1  0.17015096  0.01059130  0.31501973  1
  Cl  Cl317  1  0.12297672  0.55841459  0.26369982  1
  Cl  Cl318  1  0.41556058  0.76596062  0.34035452  1
  Cl  Cl319  1  0.44571431  0.22887310  0.39064722  1
  Cl  Cl320  1  0.42942227  0.91751229  0.35758114  1
  Cl  Cl321  1  0.46528559  0.38561980  0.41312170  1
  Cl  Cl322  1  0.08885684  0.91754913  0.35751434  1
  Cl  Cl323  1  0.13543775  0.37922357  0.40716245  1
  Cl  Cl324  1  0.76747287  0.07746567  0.37715641  1
  Cl  Cl325  1  0.72149859  0.62173787  0.32596783  1
  Cl  Cl326  1  0.43827885  0.06396511  0.37739750  1
  Cl  Cl327  1  0.39453218  0.60994884  0.32455476  1
  Cl  Cl328  1  0.77465897  0.91546953  0.35870833  1
  Cl  Cl329  1  0.82130664  0.36791211  0.41308517  1
  Cl  Cl330  1  0.74108538  0.76544724  0.34310741  1
  Cl  Cl331  1  0.76292439  0.22636761  0.39945391  1
  Cl  Cl332  1  0.07964323  0.76817741  0.34353922  1
  Cl  Cl333  1  0.13669821  0.21725729  0.39512725  1
  Cl  Cl334  1  0.12808656  0.05813601  0.37654305  1
  Cl  Cl335  1  0.07152032  0.61251321  0.32524104  1
  Cl  Cl336  1  0.51646966  0.16764549  0.33028088  1
  Cl  Cl337  1  0.56411619  0.62519655  0.38460739  1
  Cl  Cl338  1  0.56013077  0.93265539  0.42383779  1
  Cl  Cl339  1  0.53461638  0.47197245  0.36572745  1
  Cl  Cl340  1  0.92727812  0.92569798  0.41787796  1
  Cl  Cl341  1  0.87075172  0.47001216  0.36331371  1
  Cl  Cl342  1  0.83370374  0.17060837  0.33242683  1
  Cl  Cl343  1  0.87764280  0.62961701  0.38399093  1
  Cl  Cl344  1  0.91399577  0.77871129  0.40052083  1
  Cl  Cl345  1  0.86939875  0.31765652  0.35068507  1
  Cl  Cl346  1  0.18143539  0.15665541  0.32957645  1
  Cl  Cl347  1  0.23579905  0.61707712  0.38335074  1
  Cl  Cl348  1  0.57941016  0.76944028  0.40378755  1
  Cl  Cl349  1  0.53223189  0.31478617  0.35114306  1
  Cl  Cl350  1  0.23752275  0.77356081  0.40403245  1
  Cl  Cl351  1  0.18657591  0.31423499  0.34923773  1
  Cl  Cl352  1  0.26231390  0.92244088  0.42171728  1
  Cl  Cl353  1  0.21492835  0.47095171  0.36584538  1
  Cl  Cl354  1  0.50656091  0.67957200  0.44701801  1
  Cl  Cl355  1  0.53148406  0.82234049  0.46523367  1
  Cl  Cl356  1  0.18088619  0.83187696  0.46435409  1
  Cl  Cl357  1  0.84552496  0.99684435  0.48229603  1
  Cl  Cl358  1  0.82894453  0.52955683  0.43051327  1
  Cl  Cl359  1  0.49469039  0.52359942  0.43143892  1
  Cl  Cl360  1  0.86457022  0.83073642  0.46275541  1
  Cl  Cl361  1  0.83601699  0.68007637  0.45009625  1
  Cl  Cl362  1  0.17188766  0.68167658  0.44912118  1
  Cl  Cl363  1  0.21939927  0.97829374  0.48119791  1
  Cl  Cl364  1  0.15603454  0.52819073  0.42575895  1
  Cl  Cl365  1  0.57835522  0.09542700  0.43403797  1
  Cl  Cl366  1  0.84823689  0.39267240  0.48083424  1
  Cl  Cl367  1  0.93702670  0.07771387  0.43647711  1
  Cl  Cl368  1  0.04054664  0.20235551  0.45862478  1
  Cl  Cl369  1  0.27490409  0.52426967  0.48230558  1
  Cl  Cl370  1  0.65634786  0.21312368  0.45988251  1
  Cl  Cl371  1  0.24933909  0.27868510  0.45854962  1
  Cl  Cl372  1  0.20154221  0.18672023  0.57811567  1
  Cl  Cl373  1  0.23708653  0.48048270  0.54256907  1
  Cl  Cl374  1  0.19859647  0.03004442  0.59589920  1
  Cl  Cl375  1  0.57866810  0.48619178  0.53451393  1
  Cl  Cl376  1  0.53066721  0.03594663  0.59410669  1
  Cl  Cl377  1  0.06664730  0.76704957  0.51954734  1
  Cl  Cl378  1  0.21443364  0.34280146  0.56439515  1
  Cl  Cl379  1  0.88385612  0.34966165  0.55768188  1
  Cl  Cl380  1  0.84460295  0.03881988  0.59794276  1
  Cl  Cl381  1  0.88084060  0.19487050  0.57788806  1
  Cl  Cl382  1  0.71954788  0.68569426  0.51813127  1
  Cl  Cl383  1  0.53408251  0.18786880  0.58240378  1
  Cl  Cl384  1  0.53647675  0.35100475  0.56793412  1
  Cl  Cl385  1  0.14621147  0.24092105  0.51806159  1
  Cl  Cl386  1  0.09704856  0.79078445  0.57646233  1
  Cl  Cl387  1  0.08642023  0.48174532  0.60384310  1
  Cl  Cl388  1  0.12154946  0.94291186  0.54853294  1
  Cl  Cl389  1  0.73932533  0.47267572  0.60175775  1
  Cl  Cl390  1  0.78750266  0.93890495  0.54866320  1
  Cl  Cl391  1  0.78505133  0.78477345  0.56851016  1
  Cl  Cl392  1  0.75792425  0.62913023  0.58678977  1
  Cl  Cl393  1  0.79111347  0.09511183  0.53632702  1
  Cl  Cl394  1  0.46040429  0.26621634  0.51797118  1
  Cl  Cl395  1  0.42593775  0.79028432  0.56913488  1
  Cl  Cl396  1  0.08408885  0.64223246  0.58794413  1
  Cl  Cl397  1  0.13909313  0.08891628  0.53575958  1
  Cl  Cl398  1  0.41816304  0.63940598  0.58982347  1
  Cl  Cl399  1  0.48138873  0.09569292  0.53397025  1
  Cl  Cl400  1  0.40969885  0.48528909  0.60783769  1
  Cl  Cl401  1  0.45124235  0.94124323  0.55151621  1
  Cl  Cl402  1  0.16197134  0.72902833  0.63403289  1
  Cl  Cl403  1  0.11867604  0.27107284  0.68434469  1
  Cl  Cl404  1  0.15492731  0.57333970  0.64867241  1
  Cl  Cl405  1  0.11170357  0.11668420  0.70135565  1
  Cl  Cl406  1  0.49873338  0.57518340  0.64781479  1
  Cl  Cl407  1  0.44585902  0.11980027  0.70143064  1
  Cl  Cl408  1  0.81612111  0.41713317  0.66958023  1
  Cl  Cl409  1  0.84120218  0.87998541  0.61688421  1
  Cl  Cl410  1  0.13910264  0.42935208  0.66844874  1
  Cl  Cl411  1  0.18152740  0.88921046  0.61553445  1
  Cl  Cl412  1  0.81036593  0.57507697  0.64946433  1
  Cl  Cl413  1  0.76028276  0.12240785  0.70366360  1
  Cl  Cl414  1  0.83797575  0.73122754  0.63437479  1
  Cl  Cl415  1  0.79422305  0.27373878  0.68683725  1
  Cl  Cl416  1  0.50739542  0.72953295  0.63612254  1
  Cl  Cl417  1  0.45579255  0.26977913  0.68773226  1
  Cl  Cl418  1  0.46214289  0.42781588  0.66949064  1
  Cl  Cl419  1  0.50226804  0.88652273  0.61344417  1
  Cl  Cl420  1  0.06562407  0.32167149  0.62258000  1
  Cl  Cl421  1  0.01961278  0.87208930  0.67401033  1
  Cl  Cl422  1  0.00207584  0.57008529  0.70843753  1
  Cl  Cl423  1  0.04218200  0.02536643  0.65604383  1
  Cl  Cl424  1  0.65772184  0.57238922  0.70763081  1
  Cl  Cl425  1  0.69697547  0.02862269  0.65574226  1
  Cl  Cl426  1  0.74504080  0.32450708  0.62268205  1
  Cl  Cl427  1  0.70131626  0.86938115  0.67492491  1
  Cl  Cl428  1  0.66945845  0.71930225  0.69203255  1
  Cl  Cl429  1  0.70677461  0.17559748  0.64058909  1
  Cl  Cl430  1  0.39026713  0.33674378  0.62336373  1
  Cl  Cl431  1  0.35195635  0.88109670  0.67325990  1
  Cl  Cl432  1  0.00382434  0.72687260  0.69393456  1
  Cl  Cl433  1  0.04686407  0.17937328  0.64178334  1
  Cl  Cl434  1  0.34520317  0.72396621  0.69348935  1
  Cl  Cl435  1  0.38690355  0.17814102  0.64217666  1
  Cl  Cl436  1  0.32474535  0.57105479  0.71120494  1
  Cl  Cl437  1  0.36685210  0.02578881  0.65895755  1
  Cl  Cl438  1  0.07622848  0.81843763  0.73561573  1
  Cl  Cl439  1  0.03226944  0.36337389  0.78838137  1
  Cl  Cl440  1  0.07061318  0.66262760  0.75354137  1
  Cl  Cl441  1  0.02341280  0.20713741  0.80582709  1
  Cl  Cl442  1  0.40361392  0.66588867  0.75265186  1
  Cl  Cl443  1  0.35871085  0.21040426  0.80574991  1
  Cl  Cl444  1  0.72476084  0.50870208  0.77363061  1
  Cl  Cl445  1  0.76816896  0.96342954  0.72116676  1
  Cl  Cl446  1  0.05550701  0.51984751  0.77220538  1
  Cl  Cl447  1  0.09767497  0.97414666  0.71982995  1
  Cl  Cl448  1  0.71752166  0.66824458  0.75512583  1
  Cl  Cl449  1  0.67348164  0.21429885  0.80743741  1
  Cl  Cl450  1  0.75152556  0.81921831  0.73885982  1
  Cl  Cl451  1  0.70757712  0.36433469  0.79145992  1
  Cl  Cl452  1  0.41362774  0.81586384  0.73851938  1
  Cl  Cl453  1  0.37044677  0.36156865  0.79148275  1
  Cl  Cl454  1  0.37796099  0.51843425  0.77295920  1
  Cl  Cl455  1  0.41938789  0.97261191  0.72085198  1
  Cl  Cl456  1  0.97938961  0.41601348  0.72663075  1
  Cl  Cl457  1  0.93096940  0.96194019  0.77831146  1
  Cl  Cl458  1  0.90910788  0.66063187  0.81286228  1
  Cl  Cl459  1  0.95468618  0.11536248  0.76059883  1
  Cl  Cl460  1  0.56141983  0.66383124  0.81204585  1
  Cl  Cl461  1  0.61021294  0.11838371  0.76055675  1
  Cl  Cl462  1  0.65953099  0.41444727  0.72728837  1
  Cl  Cl463  1  0.61165164  0.96036283  0.77916114  1
  Cl  Cl464  1  0.57125011  0.81138844  0.79559807  1
  Cl  Cl465  1  0.62055065  0.26581876  0.74440159  1
  Cl  Cl466  1  0.30885172  0.42537953  0.72597119  1
  Cl  Cl467  1  0.26038877  0.97121010  0.77798638  1
  Cl  Cl468  1  0.91074674  0.81787157  0.79770044  1
  Cl  Cl469  1  0.95983521  0.27215411  0.74612086  1
  Cl  Cl470  1  0.25235320  0.81448914  0.79787775  1
  Cl  Cl471  1  0.30043177  0.26881449  0.74670313  1
  Cl  Cl472  1  0.23003542  0.66395176  0.81476896  1
  Cl  Cl473  1  0.27749958  0.11632912  0.76364199  1
  Cl  Cl474  1  0.98384649  0.90890766  0.84011827  1
  Cl  Cl475  1  0.95393886  0.44677457  0.89097483  1
  Cl  Cl476  1  0.97022363  0.75731934  0.85740243  1
  Cl  Cl477  1  0.93519386  0.28993465  0.91285453  1
  Cl  Cl478  1  0.31023368  0.75720596  0.85726304  1
  Cl  Cl479  1  0.26543819  0.29551724  0.90734613  1
  Cl  Cl480  1  0.63189790  0.59759556  0.87715368  1
  Cl  Cl481  1  0.67823035  0.05340673  0.82593045  1
  Cl  Cl482  1  0.96176429  0.61066569  0.87758545  1
  Cl  Cl483  1  0.00595624  0.06483791  0.82469930  1
  Cl  Cl484  1  0.62466361  0.75939642  0.85873744  1
  Cl  Cl485  1  0.57986642  0.30686249  0.91286017  1
  Cl  Cl486  1  0.65847690  0.90948569  0.84303441  1
  Cl  Cl487  1  0.63717181  0.44870566  0.89918553  1
  Cl  Cl488  1  0.31978849  0.90651092  0.84360109  1
  Cl  Cl489  1  0.26504348  0.45693441  0.89508585  1
  Cl  Cl490  1  0.27092807  0.61678782  0.87642302  1
  Cl  Cl491  1  0.32973906  0.06190422  0.82532044  1
  Cl  Cl492  1  0.88440060  0.50710483  0.83029624  1
  Cl  Cl493  1  0.83513740  0.05004667  0.88451456  1
  Cl  Cl494  1  0.83863430  0.74306843  0.92359840  1
  Cl  Cl495  1  0.86597030  0.20313035  0.86563541  1
  Cl  Cl496  1  0.47082392  0.74944986  0.91774858  1
  Cl  Cl497  1  0.52954908  0.20522023  0.86335930  1
  Cl  Cl498  1  0.56653363  0.50419129  0.83244204  1
  Cl  Cl499  1  0.52188166  0.04518546  0.88410202  1
  Cl  Cl500  1  0.48427154  0.89667886  0.90063399  1
  Cl  Cl501  1  0.53117982  0.35730482  0.85036914  1
  Cl  Cl502  1  0.21892843  0.51796313  0.82956281  1
  Cl  Cl503  1  0.16396697  0.05805581  0.88349519  1
  Cl  Cl504  1  0.81912547  0.90595923  0.90389173  1
  Cl  Cl505  1  0.86919411  0.36025793  0.85111003  1
  Cl  Cl506  1  0.16008134  0.90184888  0.90405658  1
  Cl  Cl507  1  0.21373485  0.36038425  0.84945913  1
  Cl  Cl508  1  0.13665053  0.75269594  0.92158285  1
  Cl  Cl509  1  0.18591672  0.20392801  0.86582476  1
  Cl  Cl510  1  0.89180185  0.99613200  0.94712494  1
  Cl  Cl511  1  0.86757233  0.85301142  0.96525223  1
  Cl  Cl512  1  0.21834657  0.84328241  0.96424614  1
  Cl  Cl513  1  0.55091107  0.67909338  0.98256431  1
  Cl  Cl514  1  0.57119013  0.14512704  0.93054611  1
  Cl  Cl515  1  0.90376076  0.15201022  0.93131277  1
  Cl  Cl516  1  0.53443892  0.84409152  0.96278885  1
  Cl  Cl517  1  0.56225241  0.99525753  0.95040287  1
  Cl  Cl518  1  0.22596929  0.99402220  0.94924133  1
  Cl  Cl519  1  0.17875552  0.69708712  0.98113511  1
  Cl  Cl520  1  0.24247685  0.14765698  0.92570846  1
  Cl  Cl521  1  0.81741475  0.58185435  0.93449848  1
  Cl  Cl522  1  0.55486985  0.28020987  0.98065560  1
  Cl  Cl523  1  0.46262614  0.59685603  0.93675885  1
  Cl  Cl524  1  0.36434946  0.46992818  0.95846436  1
  Cl  Cl525  1  0.12232262  0.15276471  0.98223097  1
  Cl  Cl526  1  0.74466916  0.46157707  0.95968911  1
  Cl  Cl527  1  0.15307893  0.39515821  0.95871576  1
