# generated using pymatgen
data_Li7Y2Cl13
_symmetry_space_group_name_H-M   'P 1'
_cell_length_a   11.17729600
_cell_length_b   23.17126381
_cell_length_c   55.37686681
_cell_angle_alpha   90.00000000
_cell_angle_beta   90.00000000
_cell_angle_gamma   61.15997857
_symmetry_Int_Tables_number   1
_chemical_formula_structural   Li7Y2Cl13
_chemical_formula_sum   'Li168 Y48 Cl312'
_cell_volume   12563.30971387
_cell_formula_units_Z   24
loop_
 _symmetry_equiv_pos_site_id
 _symmetry_equiv_pos_as_xyz
  1  'x, y, z'
loop_
 _atom_site_type_symbol
 _atom_site_label
 _atom_site_symmetry_multiplicity
 _atom_site_fract_x
 _atom_site_fract_y
 _atom_site_fract_z
 _atom_site_occupancy
  Li  Li0  1  0.08804418  0.12469965  0.02961212  1
  Li  Li1  1  0.03868094  0.61543716  0.06428175  1
  Li  Li2  1  0.94192845  0.30261060  0.02496043  1
  Li  Li3  1  0.06199265  0.77348169  0.07810883  1
  Li  Li4  1  0.71523042  0.11528411  0.05493765  1
  Li  Li5  1  0.72511430  0.60736015  0.06552569  1
  Li  Li6  1  0.75842963  0.39858760  0.09572693  1
  Li  Li7  1  0.72985824  0.97606573  0.05013069  1
  Li  Li8  1  0.35996599  0.96357325  0.04938228  1
  Li  Li9  1  0.35305164  0.44462314  0.10488901  1
  Li  Li10  1  0.71139068  0.24410630  0.06134409  1
  Li  Li11  1  0.64908473  0.65587923  0.01696776  1
  Li  Li12  1  0.03560826  0.26115033  0.07768362  1
  Li  Li13  1  0.13277730  0.70369659  0.02207309  1
  Li  Li14  1  0.31768699  0.22885128  0.05781709  1
  Li  Li15  1  0.39499014  0.77322804  0.07809183  1
  Li  Li16  1  0.40925593  0.92282011  0.10011046  1
  Li  Li17  1  0.32747937  0.47764566  0.04617686  1
  Li  Li18  1  0.09585131  0.07354517  0.11836568  1
  Li  Li19  1  0.13617477  0.52817825  0.17203010  1
  Li  Li20  1  0.12061836  0.22382924  0.13361530  1
  Li  Li21  1  0.14944912  0.68186101  0.18764111  1
  Li  Li22  1  0.75788857  0.08678940  0.11482316  1
  Li  Li23  1  0.80731639  0.52709971  0.17150953  1
  Li  Li24  1  0.83975127  0.33219724  0.20616265  1
  Li  Li25  1  0.78944939  0.88008630  0.15463555  1
  Li  Li26  1  0.43538478  0.89205570  0.15487740  1
  Li  Li27  1  0.48670441  0.33950673  0.20735916  1
  Li  Li28  1  0.81668365  0.03134009  0.16881311  1
  Li  Li29  1  0.77990542  0.56710778  0.11865901  1
  Li  Li30  1  0.15578130  0.17501763  0.18738422  1
  Li  Li31  1  0.10345956  0.71513214  0.13279205  1
  Li  Li32  1  0.48855034  0.18141495  0.19070028  1
  Li  Li33  1  0.44979519  0.71579277  0.14574974  1
  Li  Li34  1  0.49962170  0.83429112  0.20576804  1
  Li  Li35  1  0.44962969  0.37732827  0.15346515  1
  Li  Li36  1  0.18104388  0.98541296  0.22330799  1
  Li  Li37  1  0.22901026  0.43867656  0.27636846  1
  Li  Li38  1  0.19493878  0.13602784  0.24092635  1
  Li  Li39  1  0.24418797  0.59046146  0.29233742  1
  Li  Li40  1  0.85092964  0.98611073  0.22225824  1
  Li  Li41  1  0.90042598  0.43733618  0.27638434  1
  Li  Li42  1  0.92380948  0.24276504  0.31304189  1
  Li  Li43  1  0.87672466  0.78947468  0.25782046  1
  Li  Li44  1  0.53203908  0.79523847  0.25924953  1
  Li  Li45  1  0.58146135  0.24856570  0.31447401  1
  Li  Li46  1  0.90643779  0.94174843  0.27591445  1
  Li  Li47  1  0.86886267  0.48264127  0.22384211  1
  Li  Li48  1  0.24171109  0.08458782  0.29261134  1
  Li  Li49  1  0.19634129  0.63174856  0.24000501  1
  Li  Li50  1  0.57866364  0.09165211  0.29790925  1
  Li  Li51  1  0.53543544  0.63175776  0.24380485  1
  Li  Li52  1  0.59019510  0.74385257  0.31127838  1
  Li  Li53  1  0.54780908  0.28800476  0.25957413  1
  Li  Li54  1  0.27056399  0.89543929  0.32806393  1
  Li  Li55  1  0.31427701  0.35397436  0.38075029  1
  Li  Li56  1  0.28279679  0.04600450  0.34602294  1
  Li  Li57  1  0.32880530  0.50561540  0.39720760  1
  Li  Li58  1  0.94184326  0.89497635  0.32877630  1
  Li  Li59  1  0.99851763  0.34584132  0.38446267  1
  Li  Li60  1  0.80715782  0.21370576  0.44122110  1
  Li  Li61  1  0.96470994  0.70360947  0.35621869  1
  Li  Li62  1  0.62110279  0.71170793  0.36807471  1
  Li  Li63  1  0.44262736  0.20836812  0.43714072  1
  Li  Li64  1  0.98939860  0.85857727  0.38412272  1
  Li  Li65  1  0.95468211  0.39378509  0.32950259  1
  Li  Li66  1  0.33138864  0.98598612  0.39532305  1
  Li  Li67  1  0.29366899  0.53904036  0.34361530  1
  Li  Li68  1  0.63673776  0.03462558  0.40348784  1
  Li  Li69  1  0.62198090  0.55051421  0.34752187  1
  Li  Li70  1  0.68213489  0.66118607  0.42649372  1
  Li  Li71  1  0.64978096  0.19960440  0.37145532  1
  Li  Li72  1  0.35834531  0.80672566  0.43954384  1
  Li  Li73  1  0.39949822  0.30932094  0.47658562  1
  Li  Li74  1  0.37523281  0.94307339  0.45364553  1
  Li  Li75  1  0.03682722  0.81080811  0.43945747  1
  Li  Li76  1  0.92378386  0.33656567  0.48573975  1
  Li  Li77  1  0.01955084  0.65784955  0.41865621  1
  Li  Li78  1  0.67389400  0.52943885  0.51067569  1
  Li  Li79  1  0.97401895  0.71520586  0.47833579  1
  Li  Li80  1  0.10473790  0.25077712  0.43891886  1
  Li  Li81  1  0.36083002  0.46372804  0.44746318  1
  Li  Li82  1  0.70836116  0.47362115  0.44075384  1
  Li  Li83  1  0.70579084  0.10956650  0.45730863  1
  Li  Li84  1  0.23616285  0.57679750  0.52953650  1
  Li  Li85  1  0.28635998  0.08602709  0.56408712  1
  Li  Li86  1  0.38476884  0.39773094  0.52489778  1
  Li  Li87  1  0.26252529  0.92730520  0.57801915  1
  Li  Li88  1  0.60907472  0.58529541  0.55552339  1
  Li  Li89  1  0.59843538  0.09495465  0.56553318  1
  Li  Li90  1  0.56049021  0.30286008  0.59615609  1
  Li  Li91  1  0.59607111  0.72422883  0.55069420  1
  Li  Li92  1  0.96513746  0.73690834  0.55028146  1
  Li  Li93  1  0.96834788  0.25627011  0.60471670  1
  Li  Li94  1  0.61157835  0.45657956  0.56189254  1
  Li  Li95  1  0.68040177  0.04260221  0.51707523  1
  Li  Li96  1  0.28765718  0.43997938  0.57719202  1
  Li  Li97  1  0.19446666  0.99635128  0.52205495  1
  Li  Li98  1  0.00613779  0.47283143  0.55777447  1
  Li  Li99  1  0.92878096  0.92869343  0.57822880  1
  Li  Li100  1  0.91442648  0.77835629  0.60034450  1
  Li  Li101  1  0.99860943  0.22234210  0.54628307  1
  Li  Li102  1  0.22931392  0.62649232  0.61868816  1
  Li  Li103  1  0.18778604  0.17099634  0.67149496  1
  Li  Li104  1  0.20095170  0.47638242  0.63365826  1
  Li  Li105  1  0.17479219  0.01798057  0.68762025  1
  Li  Li106  1  0.56336633  0.61471523  0.61547742  1
  Li  Li107  1  0.51616686  0.17329879  0.67142812  1
  Li  Li108  1  0.48339776  0.36883630  0.70607324  1
  Li  Li109  1  0.53510592  0.82003058  0.65486024  1
  Li  Li110  1  0.88980806  0.80748432  0.65525992  1
  Li  Li111  1  0.83686967  0.35963779  0.70746122  1
  Li  Li112  1  0.50786513  0.66879501  0.66974132  1
  Li  Li113  1  0.54300631  0.13311555  0.61871688  1
  Li  Li114  1  0.16756616  0.52572216  0.68751090  1
  Li  Li115  1  0.22142661  0.98484523  0.63265973  1
  Li  Li116  1  0.83582543  0.51788420  0.69085074  1
  Li  Li117  1  0.87566992  0.98306360  0.64661936  1
  Li  Li118  1  0.82570361  0.86476062  0.70589513  1
  Li  Li119  1  0.87357575  0.32196758  0.65366581  1
  Li  Li120  1  0.14316922  0.71435502  0.72357016  1
  Li  Li121  1  0.09540754  0.26051402  0.77595203  1
  Li  Li122  1  0.12810755  0.56380022  0.74142487  1
  Li  Li123  1  0.07897287  0.10908634  0.79249538  1
  Li  Li124  1  0.47277447  0.71339963  0.72317619  1
  Li  Li125  1  0.42383002  0.26245935  0.77637233  1
  Li  Li126  1  0.40060481  0.45646666  0.81254620  1
  Li  Li127  1  0.44731329  0.91015806  0.75789586  1
  Li  Li128  1  0.79249074  0.90441014  0.75937449  1
  Li  Li129  1  0.74247876  0.45122755  0.81440717  1
  Li  Li130  1  0.41758036  0.75811537  0.77642792  1
  Li  Li131  1  0.45426564  0.21808604  0.72367725  1
  Li  Li132  1  0.08329598  0.61521702  0.79336244  1
  Li  Li133  1  0.12828096  0.06806578  0.74010226  1
  Li  Li134  1  0.74550660  0.60819313  0.79827379  1
  Li  Li135  1  0.78853672  0.06755508  0.74397539  1
  Li  Li136  1  0.73285013  0.95590521  0.81136170  1
  Li  Li137  1  0.77709753  0.41153941  0.75946650  1
  Li  Li138  1  0.05319864  0.80385517  0.82812650  1
  Li  Li139  1  0.01349284  0.34579161  0.88093591  1
  Li  Li140  1  0.04260287  0.65365123  0.84676713  1
  Li  Li141  1  0.99862060  0.19331840  0.89735647  1
  Li  Li142  1  0.38147005  0.80532248  0.82935293  1
  Li  Li143  1  0.32737138  0.35485216  0.88448772  1
  Li  Li144  1  0.52010815  0.48476494  0.94116717  1
  Li  Li145  1  0.35905346  0.99733885  0.85627904  1
  Li  Li146  1  0.70555648  0.98793909  0.86765582  1
  Li  Li147  1  0.88384597  0.49200766  0.93726109  1
  Li  Li148  1  0.33937660  0.84019241  0.88445051  1
  Li  Li149  1  0.37246212  0.30617835  0.82957491  1
  Li  Li150  1  0.99360859  0.71510014  0.89561452  1
  Li  Li151  1  0.03262088  0.16154219  0.84353346  1
  Li  Li152  1  0.68162179  0.66627976  0.90442374  1
  Li  Li153  1  0.70496395  0.14861629  0.84791894  1
  Li  Li154  1  0.64779139  0.03926845  0.92523522  1
  Li  Li155  1  0.67725393  0.49966069  0.87077500  1
  Li  Li156  1  0.97231055  0.89192527  0.93942751  1
  Li  Li157  1  0.92738520  0.38974401  0.97654320  1
  Li  Li158  1  0.95294017  0.75705443  0.95372511  1
  Li  Li159  1  0.29257015  0.89018597  0.94055597  1
  Li  Li160  1  0.39544715  0.36437480  0.98564132  1
  Li  Li161  1  0.31096810  0.04124658  0.91849968  1
  Li  Li162  1  0.65061575  0.17054509  0.01002985  1
  Li  Li163  1  0.35575508  0.98878232  0.97811934  1
  Li  Li164  1  0.22119215  0.45013191  0.93892471  1
  Li  Li165  1  0.96710158  0.23597483  0.94744754  1
  Li  Li166  1  0.61708342  0.22801263  0.94082088  1
  Li  Li167  1  0.61949699  0.58900603  0.95781570  1
  Y  Y168  1  0.39512312  0.60748542  0.06667254  1
  Y  Y169  1  0.72913397  0.77360149  0.07957948  1
  Y  Y170  1  0.03151457  0.45214404  0.04754605  1
  Y  Y171  1  0.06952723  0.92214240  0.09929282  1
  Y  Y172  1  0.44045014  0.07219920  0.11716996  1
  Y  Y173  1  0.48193229  0.52846105  0.17218284  1
  Y  Y174  1  0.77204942  0.23132876  0.13747063  1
  Y  Y175  1  0.81081872  0.68648445  0.18861988  1
  Y  Y176  1  0.12337066  0.37311896  0.15267249  1
  Y  Y177  1  0.16332473  0.83017839  0.20474701  1
  Y  Y178  1  0.52551380  0.98537808  0.22319820  1
  Y  Y179  1  0.57348225  0.43838245  0.27593786  1
  Y  Y180  1  0.85633770  0.14022910  0.24139001  1
  Y  Y181  1  0.90158772  0.59533148  0.29331742  1
  Y  Y182  1  0.21460112  0.28318689  0.25856343  1
  Y  Y183  1  0.25774179  0.73989538  0.31017211  1
  Y  Y184  1  0.61747221  0.89566262  0.32773787  1
  Y  Y185  1  0.65837543  0.35590039  0.38111049  1
  Y  Y186  1  0.94854202  0.05079612  0.34686829  1
  Y  Y187  1  0.98966895  0.50922024  0.39665347  1
  Y  Y188  1  0.30151385  0.19549870  0.36303417  1
  Y  Y189  1  0.35408870  0.65703441  0.41609135  1
  Y  Y190  1  0.69569105  0.81651310  0.43587297  1
  Y  Y191  1  0.02747035  0.96979586  0.45229475  1
  Y  Y192  1  0.93016935  0.09295274  0.56641722  1
  Y  Y193  1  0.59539798  0.92718299  0.57985880  1
  Y  Y194  1  0.29188454  0.24892680  0.54748737  1
  Y  Y195  1  0.25442242  0.77857746  0.59954391  1
  Y  Y196  1  0.88254027  0.62833303  0.61761346  1
  Y  Y197  1  0.84209058  0.17109001  0.67209848  1
  Y  Y198  1  0.55126156  0.46890521  0.63772024  1
  Y  Y199  1  0.51375985  0.01346609  0.68881546  1
  Y  Y200  1  0.19916893  0.32683933  0.65275235  1
  Y  Y201  1  0.16166439  0.86943594  0.70513099  1
  Y  Y202  1  0.79845506  0.71427258  0.72360857  1
  Y  Y203  1  0.75089862  0.26109900  0.77590087  1
  Y  Y204  1  0.46748799  0.55930157  0.74170186  1
  Y  Y205  1  0.42287048  0.10462013  0.79330334  1
  Y  Y206  1  0.10931812  0.41655820  0.75864936  1
  Y  Y207  1  0.06657048  0.95972617  0.81040513  1
  Y  Y208  1  0.70681197  0.80398100  0.82785006  1
  Y  Y209  1  0.66896461  0.34380883  0.88105280  1
  Y  Y210  1  0.37657308  0.64873808  0.84723694  1
  Y  Y211  1  0.33746795  0.19081546  0.89667433  1
  Y  Y212  1  0.02304548  0.50486027  0.86324642  1
  Y  Y213  1  0.97488837  0.04250655  0.91628194  1
  Y  Y214  1  0.63356096  0.88391776  0.93603915  1
  Y  Y215  1  0.30101960  0.72948985  0.95243114  1
  Cl  Cl216  1  0.27071737  0.02671919  0.01613547  1
  Cl  Cl217  1  0.16070404  0.49753409  0.07741590  1
  Cl  Cl218  1  0.14309280  0.20615633  0.04083735  1
  Cl  Cl219  1  0.17952634  0.64709871  0.09497232  1
  Cl  Cl220  1  0.85559028  0.15977719  0.03444516  1
  Cl  Cl221  1  0.84575867  0.64740850  0.09310525  1
  Cl  Cl222  1  0.52887192  0.80186065  0.11021379  1
  Cl  Cl223  1  0.14336907  0.33824993  0.06775284  1
  Cl  Cl224  1  0.20678595  0.79365572  0.10967373  1
  Cl  Cl225  1  0.52055849  0.22445719  0.04573935  1
  Cl  Cl226  1  0.52598297  0.64669034  0.09632212  1
  Cl  Cl227  1  0.48794833  0.47999900  0.07629169  1
  Cl  Cl228  1  0.70214777  0.05562935  0.02261285  1
  Cl  Cl229  1  0.83460455  0.49294486  0.08189590  1
  Cl  Cl230  1  0.80408809  0.32182758  0.06250801  1
  Cl  Cl231  1  0.88204724  0.79400317  0.11098121  1
  Cl  Cl232  1  0.25878374  0.41744143  0.02181609  1
  Cl  Cl233  1  0.27569163  0.89387192  0.06787234  1
  Cl  Cl234  1  0.30088852  0.19290625  0.10081408  1
  Cl  Cl235  1  0.26431233  0.73134862  0.04937277  1
  Cl  Cl236  1  0.66497998  0.20054079  0.10085586  1
  Cl  Cl237  1  0.59269755  0.73740937  0.04877405  1
  Cl  Cl238  1  0.59937208  0.89608294  0.06242548  1
  Cl  Cl239  1  0.63288603  0.05182823  0.08501969  1
  Cl  Cl240  1  0.58834450  0.58158453  0.03572570  1
  Cl  Cl241  1  0.89693122  0.41745428  0.01903636  1
  Cl  Cl242  1  0.94800270  0.89114559  0.06507072  1
  Cl  Cl243  1  0.30251553  0.03762837  0.08585185  1
  Cl  Cl244  1  0.24163619  0.58862840  0.03369351  1
  Cl  Cl245  1  0.95703680  0.04542219  0.08658013  1
  Cl  Cl246  1  0.90157169  0.58049857  0.03299702  1
  Cl  Cl247  1  0.98298313  0.19448949  0.10673834  1
  Cl  Cl248  1  0.93312595  0.73698167  0.04817844  1
  Cl  Cl249  1  0.22260687  0.94970678  0.12948819  1
  Cl  Cl250  1  0.26269790  0.40641014  0.18388751  1
  Cl  Cl251  1  0.23718394  0.10292125  0.14770168  1
  Cl  Cl252  1  0.26935062  0.56323739  0.20131367  1
  Cl  Cl253  1  0.89716329  0.10235605  0.14740352  1
  Cl  Cl254  1  0.93674606  0.56012441  0.20072535  1
  Cl  Cl255  1  0.57333612  0.25984654  0.16867719  1
  Cl  Cl256  1  0.61396123  0.71729468  0.22006922  1
  Cl  Cl257  1  0.24808403  0.24835173  0.16635471  1
  Cl  Cl258  1  0.28525498  0.70622064  0.21863950  1
  Cl  Cl259  1  0.58393371  0.10077684  0.14774498  1
  Cl  Cl260  1  0.62252012  0.55754284  0.20311607  1
  Cl  Cl261  1  0.55078315  0.94502352  0.13102368  1
  Cl  Cl262  1  0.58995049  0.40463832  0.18649434  1
  Cl  Cl263  1  0.88431219  0.95037489  0.13297338  1
  Cl  Cl264  1  0.92879427  0.40899604  0.18687298  1
  Cl  Cl265  1  0.92768217  0.24992494  0.16916668  1
  Cl  Cl266  1  0.96395644  0.70843245  0.21993877  1
  Cl  Cl267  1  0.31600056  0.35861110  0.12218825  1
  Cl  Cl268  1  0.36104489  0.81008544  0.17225719  1
  Cl  Cl269  1  0.38741603  0.10934716  0.20749705  1
  Cl  Cl270  1  0.33668387  0.65346704  0.15496766  1
  Cl  Cl271  1  0.73203655  0.10603248  0.20700661  1
  Cl  Cl272  1  0.68808680  0.65092005  0.15444980  1
  Cl  Cl273  1  0.63900579  0.35455426  0.12230924  1
  Cl  Cl274  1  0.68102044  0.80947334  0.17237854  1
  Cl  Cl275  1  0.71827576  0.95929425  0.19029694  1
  Cl  Cl276  1  0.66999950  0.50657511  0.13989617  1
  Cl  Cl277  1  0.98341374  0.34255816  0.12187573  1
  Cl  Cl278  1  0.03425876  0.79921341  0.17094147  1
  Cl  Cl279  1  0.38172288  0.95332276  0.19265590  1
  Cl  Cl280  1  0.33236565  0.50081246  0.14173144  1
  Cl  Cl281  1  0.04020971  0.95614920  0.19230447  1
  Cl  Cl282  1  0.99437221  0.50103744  0.14125958  1
  Cl  Cl283  1  0.06404656  0.10773521  0.21094577  1
  Cl  Cl284  1  0.01594404  0.65355043  0.15785175  1
  Cl  Cl285  1  0.30801440  0.86159950  0.23466046  1
  Cl  Cl286  1  0.35642214  0.31592504  0.28858255  1
  Cl  Cl287  1  0.31919645  0.01607943  0.25309677  1
  Cl  Cl288  1  0.36403885  0.47221385  0.30577280  1
  Cl  Cl289  1  0.98420537  0.01274536  0.25248479  1
  Cl  Cl290  1  0.02976759  0.46924243  0.30558659  1
  Cl  Cl291  1  0.66379016  0.17003300  0.27382672  1
  Cl  Cl292  1  0.70925110  0.62680403  0.32589805  1
  Cl  Cl293  1  0.33322781  0.15910512  0.27217375  1
  Cl  Cl294  1  0.37735611  0.61595982  0.32457405  1
  Cl  Cl295  1  0.67103915  0.01029686  0.25413367  1
  Cl  Cl296  1  0.71431749  0.46647971  0.30716699  1
  Cl  Cl297  1  0.63457675  0.86006126  0.23766438  1
  Cl  Cl298  1  0.68118470  0.31501211  0.29168339  1
  Cl  Cl299  1  0.97142296  0.86361939  0.23787868  1
  Cl  Cl300  1  0.01886404  0.31839953  0.29154948  1
  Cl  Cl301  1  0.01159659  0.16012783  0.27305920  1
  Cl  Cl302  1  0.05776706  0.61712364  0.32479229  1
  Cl  Cl303  1  0.41014064  0.26266019  0.22623749  1
  Cl  Cl304  1  0.45430551  0.71800041  0.27793413  1
  Cl  Cl305  1  0.47591924  0.02000280  0.31300188  1
  Cl  Cl306  1  0.43191136  0.56369273  0.26017312  1
  Cl  Cl307  1  0.82219364  0.01594395  0.31256307  1
  Cl  Cl308  1  0.77647742  0.56088023  0.25985369  1
  Cl  Cl309  1  0.72959418  0.26420638  0.22705301  1
  Cl  Cl310  1  0.77416410  0.71948603  0.27862802  1
  Cl  Cl311  1  0.81251096  0.86797260  0.29566224  1
  Cl  Cl312  1  0.76787262  0.41299802  0.24388543  1
  Cl  Cl313  1  0.08086711  0.25359220  0.22560974  1
  Cl  Cl314  1  0.12494340  0.70910251  0.27742143  1
  Cl  Cl315  1  0.47429597  0.86212426  0.29771527  1
  Cl  Cl316  1  0.42855254  0.40681723  0.24597273  1
  Cl  Cl317  1  0.13089996  0.86607051  0.29800107  1
  Cl  Cl318  1  0.08830201  0.41013020  0.24620587  1
  Cl  Cl319  1  0.15459093  0.01685749  0.31538698  1
  Cl  Cl320  1  0.10896835  0.56331762  0.26308618  1
  Cl  Cl321  1  0.40014643  0.77190104  0.34040203  1
  Cl  Cl322  1  0.43688701  0.23209067  0.39378771  1
  Cl  Cl323  1  0.41323496  0.92392873  0.35816048  1
  Cl  Cl324  1  0.45013310  0.38973936  0.41181977  1
  Cl  Cl325  1  0.07363701  0.92298147  0.35828163  1
  Cl  Cl326  1  0.12041058  0.38707290  0.40977041  1
  Cl  Cl327  1  0.75447142  0.08095981  0.37838983  1
  Cl  Cl328  1  0.80444522  0.54302673  0.43041773  1
  Cl  Cl329  1  0.41989625  0.07160346  0.37807472  1
  Cl  Cl330  1  0.46225657  0.53232221  0.43202204  1
  Cl  Cl331  1  0.76138321  0.91831502  0.35951680  1
  Cl  Cl332  1  0.79925024  0.38391279  0.41219893  1
  Cl  Cl333  1  0.72397861  0.77089303  0.34356188  1
  Cl  Cl334  1  0.76858306  0.23643638  0.39821839  1
  Cl  Cl335  1  0.06588082  0.77313888  0.34380435  1
  Cl  Cl336  1  0.11570179  0.22956934  0.39715580  1
  Cl  Cl337  1  0.11120959  0.06590056  0.37707462  1
  Cl  Cl338  1  0.13994807  0.53531627  0.42841536  1
  Cl  Cl339  1  0.49771195  0.17381254  0.33130112  1
  Cl  Cl340  1  0.54608651  0.63292607  0.38383145  1
  Cl  Cl341  1  0.53936585  0.94211787  0.42426222  1
  Cl  Cl342  1  0.51579231  0.48209593  0.36592096  1
  Cl  Cl343  1  0.90036193  0.93259497  0.42040969  1
  Cl  Cl344  1  0.86065249  0.47732721  0.36386039  1
  Cl  Cl345  1  0.81935021  0.17609646  0.33325896  1
  Cl  Cl346  1  0.87656249  0.63770529  0.38553185  1
  Cl  Cl347  1  0.89780699  0.78309566  0.40416284  1
  Cl  Cl348  1  0.85667357  0.32624145  0.34946209  1
  Cl  Cl349  1  0.16748727  0.16446474  0.33065052  1
  Cl  Cl350  1  0.20648164  0.62809632  0.38534262  1
  Cl  Cl351  1  0.56517613  0.77452817  0.40655542  1
  Cl  Cl352  1  0.51755405  0.31979810  0.35193412  1
  Cl  Cl353  1  0.21728171  0.78382679  0.40595761  1
  Cl  Cl354  1  0.17486923  0.32265169  0.35097948  1
  Cl  Cl355  1  0.23908703  0.93275631  0.42222094  1
  Cl  Cl356  1  0.20011741  0.47840796  0.36693051  1
  Cl  Cl357  1  0.48140079  0.68607031  0.44907304  1
  Cl  Cl358  1  0.50490442  0.83538709  0.46734419  1
  Cl  Cl359  1  0.15747473  0.84685611  0.46699976  1
  Cl  Cl360  1  0.82009345  0.01080571  0.48290269  1
  Cl  Cl361  1  0.84934843  0.83023321  0.46856036  1
  Cl  Cl362  1  0.83281663  0.68946830  0.45003353  1
  Cl  Cl363  1  0.15388220  0.68535863  0.44804344  1
  Cl  Cl364  1  0.19091874  0.99731697  0.48071609  1
  Cl  Cl365  1  0.54080241  0.09480637  0.43819344  1
  Cl  Cl366  1  0.76089945  0.44565234  0.48097260  1
  Cl  Cl367  1  0.91145211  0.09124978  0.43747632  1
  Cl  Cl368  1  0.93515326  0.25237631  0.46200323  1
  Cl  Cl369  1  0.60657095  0.22521120  0.45940631  1
  Cl  Cl370  1  0.24966259  0.27478392  0.45996947  1
  Cl  Cl371  1  0.38794374  0.41237991  0.48299591  1
  Cl  Cl372  1  0.05444837  0.67569788  0.51650327  1
  Cl  Cl373  1  0.16344957  0.20343302  0.57751405  1
  Cl  Cl374  1  0.18143234  0.49488283  0.54052129  1
  Cl  Cl375  1  0.14501469  0.05332593  0.59487784  1
  Cl  Cl376  1  0.46850352  0.54077971  0.53489332  1
  Cl  Cl377  1  0.47879545  0.05357223  0.59314849  1
  Cl  Cl378  1  0.79505172  0.89923971  0.61054383  1
  Cl  Cl379  1  0.18048283  0.36312990  0.56756430  1
  Cl  Cl380  1  0.11793509  0.90712646  0.60982529  1
  Cl  Cl381  1  0.80343647  0.47604808  0.54626483  1
  Cl  Cl382  1  0.79854233  0.05410179  0.59596856  1
  Cl  Cl383  1  0.83669751  0.22045394  0.57588041  1
  Cl  Cl384  1  0.62318393  0.64457745  0.52322113  1
  Cl  Cl385  1  0.48852901  0.20838543  0.58197858  1
  Cl  Cl386  1  0.51960586  0.37868775  0.56265146  1
  Cl  Cl387  1  0.44189451  0.90662362  0.61113068  1
  Cl  Cl388  1  0.06504542  0.28328624  0.52175023  1
  Cl  Cl389  1  0.04794652  0.80710242  0.56825021  1
  Cl  Cl390  1  0.02165069  0.50802901  0.60081140  1
  Cl  Cl391  1  0.06146361  0.96887830  0.54921822  1
  Cl  Cl392  1  0.65802141  0.50047052  0.60132286  1
  Cl  Cl393  1  0.73260570  0.96233803  0.54886832  1
  Cl  Cl394  1  0.72479575  0.80441042  0.56298342  1
  Cl  Cl395  1  0.68962023  0.64902775  0.58561585  1
  Cl  Cl396  1  0.73692696  0.11852169  0.53545326  1
  Cl  Cl397  1  0.42832135  0.28278196  0.51913353  1
  Cl  Cl398  1  0.37597588  0.80912060  0.56519863  1
  Cl  Cl399  1  0.02035124  0.66292607  0.58626066  1
  Cl  Cl400  1  0.08452619  0.11160199  0.53354071  1
  Cl  Cl401  1  0.36566772  0.65515771  0.58695037  1
  Cl  Cl402  1  0.42264595  0.12048009  0.53316397  1
  Cl  Cl403  1  0.34035434  0.50563490  0.60697028  1
  Cl  Cl404  1  0.39254702  0.96338898  0.54828651  1
  Cl  Cl405  1  0.10093791  0.75092120  0.62970912  1
  Cl  Cl406  1  0.06119809  0.29280873  0.68389985  1
  Cl  Cl407  1  0.08648737  0.59693106  0.64803549  1
  Cl  Cl408  1  0.05453043  0.13642694  0.70121805  1
  Cl  Cl409  1  0.42587189  0.59777549  0.64795603  1
  Cl  Cl410  1  0.38716028  0.13986840  0.70067752  1
  Cl  Cl411  1  0.75033036  0.43963624  0.66890546  1
  Cl  Cl412  1  0.71067594  0.98245039  0.72024185  1
  Cl  Cl413  1  0.07496741  0.45151915  0.66654015  1
  Cl  Cl414  1  0.03941982  0.99348303  0.71879134  1
  Cl  Cl415  1  0.73923908  0.59952430  0.64822140  1
  Cl  Cl416  1  0.70119350  0.14252323  0.70307216  1
  Cl  Cl417  1  0.77324150  0.75537885  0.63148660  1
  Cl  Cl418  1  0.73422514  0.29494736  0.68639074  1
  Cl  Cl419  1  0.43956733  0.74950665  0.63334026  1
  Cl  Cl420  1  0.39471525  0.29107786  0.68673090  1
  Cl  Cl421  1  0.39577732  0.45007097  0.66940506  1
  Cl  Cl422  1  0.36069961  0.99140262  0.72011937  1
  Cl  Cl423  1  0.00676423  0.34143898  0.62223900  1
  Cl  Cl424  1  0.96404409  0.88899704  0.67266705  1
  Cl  Cl425  1  0.93612023  0.59052482  0.70775682  1
  Cl  Cl426  1  0.98764521  0.04601371  0.65506084  1
  Cl  Cl427  1  0.59210923  0.59360488  0.70750111  1
  Cl  Cl428  1  0.63669045  0.04868606  0.65459702  1
  Cl  Cl429  1  0.68387376  0.34575500  0.62232330  1
  Cl  Cl430  1  0.64352488  0.89032335  0.67263440  1
  Cl  Cl431  1  0.60497494  0.74078488  0.69085731  1
  Cl  Cl432  1  0.65369970  0.19319436  0.63982328  1
  Cl  Cl433  1  0.33849961  0.35782359  0.62198449  1
  Cl  Cl434  1  0.29039250  0.90031584  0.67131131  1
  Cl  Cl435  1  0.94243462  0.74623948  0.69301323  1
  Cl  Cl436  1  0.99087287  0.19884079  0.64144625  1
  Cl  Cl437  1  0.28430589  0.74335192  0.69283280  1
  Cl  Cl438  1  0.32903545  0.19882448  0.64122076  1
  Cl  Cl439  1  0.25988266  0.59204844  0.71126886  1
  Cl  Cl440  1  0.30881955  0.04588326  0.65794283  1
  Cl  Cl441  1  0.01607384  0.83816465  0.73493477  1
  Cl  Cl442  1  0.96795427  0.38332000  0.78849810  1
  Cl  Cl443  1  0.00497520  0.68358792  0.75343381  1
  Cl  Cl444  1  0.96064142  0.22740092  0.80568007  1
  Cl  Cl445  1  0.33960046  0.68672309  0.75303647  1
  Cl  Cl446  1  0.29476662  0.23060574  0.80551980  1
  Cl  Cl447  1  0.66035493  0.52928678  0.77405174  1
  Cl  Cl448  1  0.61472145  0.07270828  0.82607770  1
  Cl  Cl449  1  0.99108739  0.54040420  0.77244351  1
  Cl  Cl450  1  0.94710618  0.08368161  0.82484468  1
  Cl  Cl451  1  0.65339497  0.68915835  0.75463292  1
  Cl  Cl452  1  0.61032531  0.23294935  0.80707171  1
  Cl  Cl453  1  0.68949782  0.83966590  0.73792109  1
  Cl  Cl454  1  0.64380123  0.38432289  0.79177231  1
  Cl  Cl455  1  0.35301345  0.83592991  0.73833858  1
  Cl  Cl456  1  0.30553109  0.38144030  0.79159788  1
  Cl  Cl457  1  0.31276096  0.53911783  0.77340292  1
  Cl  Cl458  1  0.26646075  0.08272343  0.82472707  1
  Cl  Cl459  1  0.91380152  0.43688516  0.72632104  1
  Cl  Cl460  1  0.86981590  0.98154052  0.77817407  1
  Cl  Cl461  1  0.84852022  0.67965298  0.81322185  1
  Cl  Cl462  1  0.89255194  0.13563027  0.76034591  1
  Cl  Cl463  1  0.50257778  0.68360813  0.81290049  1
  Cl  Cl464  1  0.54748019  0.13893457  0.75974687  1
  Cl  Cl465  1  0.59446979  0.43539297  0.72717065  1
  Cl  Cl466  1  0.55002898  0.98028947  0.77878973  1
  Cl  Cl467  1  0.51137824  0.83168091  0.79588708  1
  Cl  Cl468  1  0.55653060  0.28676530  0.74384094  1
  Cl  Cl469  1  0.24247719  0.44645726  0.72572901  1
  Cl  Cl470  1  0.19901781  0.99050536  0.77758940  1
  Cl  Cl471  1  0.84969954  0.83745320  0.79777344  1
  Cl  Cl472  1  0.89563152  0.29254264  0.74582155  1
  Cl  Cl473  1  0.19285891  0.83344183  0.79836463  1
  Cl  Cl474  1  0.23580545  0.28970052  0.74614461  1
  Cl  Cl475  1  0.17032934  0.68274190  0.81579245  1
  Cl  Cl476  1  0.21536031  0.13617294  0.76308072  1
  Cl  Cl477  1  0.92422108  0.92743211  0.84055654  1
  Cl  Cl478  1  0.88944060  0.46763948  0.89398644  1
  Cl  Cl479  1  0.91125618  0.77597321  0.85827972  1
  Cl  Cl480  1  0.87702500  0.30987504  0.91184145  1
  Cl  Cl481  1  0.25157122  0.77649414  0.85872571  1
  Cl  Cl482  1  0.20699428  0.31290316  0.90982096  1
  Cl  Cl483  1  0.57186309  0.61808034  0.87846916  1
  Cl  Cl484  1  0.52398002  0.15727952  0.93013265  1
  Cl  Cl485  1  0.90373092  0.62844309  0.87828236  1
  Cl  Cl486  1  0.86513947  0.16746652  0.93204896  1
  Cl  Cl487  1  0.56306551  0.78143436  0.85973280  1
  Cl  Cl488  1  0.52702811  0.31671898  0.91218654  1
  Cl  Cl489  1  0.60014641  0.92878493  0.84362120  1
  Cl  Cl490  1  0.55886818  0.46324833  0.89811979  1
  Cl  Cl491  1  0.25881413  0.92672892  0.84395085  1
  Cl  Cl492  1  0.20999153  0.47100561  0.89717587  1
  Cl  Cl493  1  0.21359803  0.63411017  0.87760122  1
  Cl  Cl494  1  0.18799203  0.16437768  0.92843975  1
  Cl  Cl495  1  0.82728892  0.52537183  0.83147500  1
  Cl  Cl496  1  0.78244604  0.06615028  0.88402172  1
  Cl  Cl497  1  0.78884830  0.75798368  0.92466102  1
  Cl  Cl498  1  0.81152813  0.21729664  0.86611116  1
  Cl  Cl499  1  0.43161255  0.76535929  0.92069033  1
  Cl  Cl500  1  0.46663907  0.22223359  0.86378157  1
  Cl  Cl501  1  0.50489895  0.52358240  0.83341211  1
  Cl  Cl502  1  0.45132112  0.06223274  0.88542280  1
  Cl  Cl503  1  0.43121122  0.91632874  0.90453418  1
  Cl  Cl504  1  0.47049837  0.37326230  0.84943187  1
  Cl  Cl505  1  0.15737332  0.53567996  0.83085074  1
  Cl  Cl506  1  0.12208738  0.07136625  0.88534627  1
  Cl  Cl507  1  0.76348869  0.92482820  0.90621452  1
  Cl  Cl508  1  0.80959657  0.37983530  0.85185258  1
  Cl  Cl509  1  0.11326527  0.91545592  0.90649472  1
  Cl  Cl510  1  0.15184447  0.37757223  0.85114154  1
  Cl  Cl511  1  0.08896711  0.76780342  0.92233915  1
  Cl  Cl512  1  0.12680559  0.22155735  0.86698605  1
  Cl  Cl513  1  0.84674193  0.01331861  0.94889976  1
  Cl  Cl514  1  0.82462607  0.86483485  0.96744323  1
  Cl  Cl515  1  0.17302146  0.85224190  0.96732172  1
  Cl  Cl516  1  0.50681392  0.68832385  0.98323673  1
  Cl  Cl517  1  0.47889267  0.87203811  0.96904044  1
  Cl  Cl518  1  0.49756288  0.01148015  0.94967765  1
  Cl  Cl519  1  0.17485183  0.01521338  0.94817200  1
  Cl  Cl520  1  0.13667946  0.70244240  0.98076530  1
  Cl  Cl521  1  0.78336130  0.60533955  0.93878114  1
  Cl  Cl522  1  0.56162100  0.25551448  0.98081729  1
  Cl  Cl523  1  0.41484211  0.60795913  0.93771647  1
  Cl  Cl524  1  0.39013473  0.44796015  0.96218901  1
  Cl  Cl525  1  0.72075687  0.47339718  0.95933028  1
  Cl  Cl526  1  0.07779838  0.42468712  0.96000310  1
  Cl  Cl527  1  0.94116618  0.28646408  0.98310899  1
