# generated using pymatgen
data_Li45Y13Cl84
_symmetry_space_group_name_H-M   'P 1'
_cell_length_a   11.17722800
_cell_length_b   23.17114807
_cell_length_c   58.11953183
_cell_angle_alpha   90.00000000
_cell_angle_beta   90.00000000
_cell_angle_gamma   61.15890919
_symmetry_Int_Tables_number   1
_chemical_formula_structural   Li45Y13Cl84
_chemical_formula_sum   'Li180 Y52 Cl336'
_cell_volume   13185.25454390
_cell_formula_units_Z   4
loop_
 _symmetry_equiv_pos_site_id
 _symmetry_equiv_pos_as_xyz
  1  'x, y, z'
loop_
 _atom_site_type_symbol
 _atom_site_label
 _atom_site_symmetry_multiplicity
 _atom_site_fract_x
 _atom_site_fract_y
 _atom_site_fract_z
 _atom_site_occupancy
  Li  Li0  1  0.74962895  0.91929092  0.07116337  1
  Li  Li1  1  0.76679184  0.43051501  0.02778386  1
  Li  Li2  1  0.43087687  0.91195085  0.07232313  1
  Li  Li3  1  0.32152300  0.44514377  0.01951282  1
  Li  Li4  1  0.76467132  0.06681892  0.08941699  1
  Li  Li5  1  0.73781359  0.60445419  0.04282419  1
  Li  Li6  1  0.03381920  0.11075370  0.05043676  1
  Li  Li7  1  0.10427803  0.56095908  0.08029018  1
  Li  Li8  1  0.04615398  0.27128677  0.06157616  1
  Li  Li9  1  0.01233780  0.82519156  0.00982708  1
  Li  Li10  1  0.69038900  0.13183418  0.03781099  1
  Li  Li11  1  0.86800960  0.46699059  0.08256766  1
  Li  Li12  1  0.35037845  0.96881753  0.02383331  1
  Li  Li13  1  0.44210359  0.42172452  0.06903364  1
  Li  Li14  1  0.45122841  0.27040847  0.05400245  1
  Li  Li15  1  0.41891810  0.76131793  0.05288842  1
  Li  Li16  1  0.74844344  0.28204245  0.02585424  1
  Li  Li17  1  0.07576932  0.76101422  0.05619798  1
  Li  Li18  1  0.84843920  0.82655338  0.17373338  1
  Li  Li19  1  0.79748509  0.37198074  0.12628630  1
  Li  Li20  1  0.51949535  0.82540581  0.17400039  1
  Li  Li21  1  0.46646354  0.37596815  0.12288425  1
  Li  Li22  1  0.86352656  0.97594653  0.19076207  1
  Li  Li23  1  0.82046870  0.52484549  0.13819094  1
  Li  Li24  1  0.15606973  0.01903720  0.14357314  1
  Li  Li25  1  0.19437504  0.47816694  0.19264208  1
  Li  Li26  1  0.15284892  0.17988210  0.15926982  1
  Li  Li27  1  0.09796862  0.72389600  0.10819647  1
  Li  Li28  1  0.81427090  0.01735974  0.13969125  1
  Li  Li29  1  0.86307614  0.47189215  0.18927621  1
  Li  Li30  1  0.48443496  0.87136839  0.12344597  1
  Li  Li31  1  0.52527308  0.32724040  0.17481584  1
  Li  Li32  1  0.49683448  0.17458199  0.15785273  1
  Li  Li33  1  0.47170648  0.70739904  0.11307007  1
  Li  Li34  1  0.12320375  0.21570773  0.10874521  1
  Li  Li35  1  0.16058675  0.67499622  0.15750528  1
  Li  Li36  1  0.93814542  0.73501870  0.27442468  1
  Li  Li37  1  0.89217371  0.28073581  0.22478178  1
  Li  Li38  1  0.60910050  0.73372868  0.27457893  1
  Li  Li39  1  0.56131600  0.28090199  0.22500131  1
  Li  Li40  1  0.95608993  0.88526881  0.29124743  1
  Li  Li41  1  0.90668356  0.43111716  0.24072080  1
  Li  Li42  1  0.24397827  0.93047072  0.24292883  1
  Li  Li43  1  0.29204513  0.38341305  0.29331463  1
  Li  Li44  1  0.24574973  0.09020481  0.25905388  1
  Li  Li45  1  0.19814090  0.63679005  0.20830122  1
  Li  Li46  1  0.90771668  0.92578880  0.24053197  1
  Li  Li47  1  0.95442135  0.38099335  0.29045724  1
  Li  Li48  1  0.57350440  0.78091216  0.22452310  1
  Li  Li49  1  0.62207526  0.23395347  0.27518605  1
  Li  Li50  1  0.58905122  0.08505621  0.25719612  1
  Li  Li51  1  0.54710721  0.62948532  0.20564489  1
  Li  Li52  1  0.21009503  0.13008845  0.20836069  1
  Li  Li53  1  0.25405093  0.58497501  0.25729501  1
  Li  Li54  1  0.02836447  0.64484651  0.37192426  1
  Li  Li55  1  0.99056112  0.18810770  0.32586470  1
  Li  Li56  1  0.70246336  0.63345897  0.37677976  1
  Li  Li57  1  0.65618140  0.18838607  0.32555317  1
  Li  Li58  1  0.04543152  0.79110878  0.39395613  1
  Li  Li59  1  0.99858837  0.33764588  0.34102783  1
  Li  Li60  1  0.33218102  0.83903522  0.34269464  1
  Li  Li61  1  0.36509667  0.30795420  0.38697338  1
  Li  Li62  1  0.34007794  0.99746989  0.35844215  1
  Li  Li63  1  0.28926274  0.54158393  0.30708270  1
  Li  Li64  1  0.99721107  0.83510266  0.34136329  1
  Li  Li65  1  0.01801769  0.31138816  0.39244120  1
  Li  Li66  1  0.66301766  0.68951165  0.32502256  1
  Li  Li67  1  0.73157346  0.13523377  0.37542151  1
  Li  Li68  1  0.68352905  0.99299598  0.35699757  1
  Li  Li69  1  0.63491560  0.53901144  0.30609875  1
  Li  Li70  1  0.30457791  0.03929389  0.30839764  1
  Li  Li71  1  0.34745531  0.49332799  0.35597994  1
  Li  Li72  1  0.15243005  0.60480583  0.43788169  1
  Li  Li73  1  0.08732902  0.09924276  0.42787406  1
  Li  Li74  1  0.70879774  0.61219640  0.48598457  1
  Li  Li75  1  0.76817969  0.09703035  0.43252983  1
  Li  Li76  1  0.91103847  0.72896455  0.47640704  1
  Li  Li77  1  0.12510190  0.25469087  0.43979142  1
  Li  Li78  1  0.62127287  0.76524047  0.48953796  1
  Li  Li79  1  0.45513598  0.24603960  0.44985795  1
  Li  Li80  1  0.42290433  0.90616510  0.45500216  1
  Li  Li81  1  0.37984174  0.45729572  0.40665996  1
  Li  Li82  1  0.06002113  0.78899734  0.45306937  1
  Li  Li83  1  0.16802750  0.20124494  0.48896115  1
  Li  Li84  1  0.79940158  0.60432246  0.43469646  1
  Li  Li85  1  0.69961398  0.13611304  0.48884861  1
  Li  Li86  1  0.76678526  0.91143695  0.44745785  1
  Li  Li87  1  0.53437001  0.56056478  0.42537207  1
  Li  Li88  1  0.38933551  0.94586469  0.40734546  1
  Li  Li89  1  0.44783812  0.43698525  0.46394407  1
  Li  Li90  1  0.37535039  0.38069801  0.57111613  1
  Li  Li91  1  0.35813555  0.86952307  0.52777649  1
  Li  Li92  1  0.69381337  0.38809722  0.57231433  1
  Li  Li93  1  0.80378760  0.85475565  0.51948952  1
  Li  Li94  1  0.35988539  0.23340904  0.58945949  1
  Li  Li95  1  0.38688061  0.69611409  0.54305450  1
  Li  Li96  1  0.09135015  0.18927420  0.55040676  1
  Li  Li97  1  0.02060527  0.73905356  0.58034281  1
  Li  Li98  1  0.07881594  0.02880493  0.56163325  1
  Li  Li99  1  0.11258105  0.47483095  0.50983432  1
  Li  Li100  1  0.43495442  0.16839214  0.53795154  1
  Li  Li101  1  0.25689550  0.83307484  0.58259587  1
  Li  Li102  1  0.77474405  0.33151158  0.52390701  1
  Li  Li103  1  0.68277968  0.87838827  0.56900527  1
  Li  Li104  1  0.67373304  0.02962280  0.55401151  1
  Li  Li105  1  0.70525622  0.53881678  0.55300966  1
  Li  Li106  1  0.37657247  0.01796765  0.52584438  1
  Li  Li107  1  0.04908453  0.53905029  0.55620466  1
  Li  Li108  1  0.27635196  0.47365160  0.67372678  1
  Li  Li109  1  0.32756214  0.92800277  0.62629613  1
  Li  Li110  1  0.60684776  0.47419388  0.67415034  1
  Li  Li111  1  0.65860030  0.92406314  0.62289559  1
  Li  Li112  1  0.26146062  0.32406651  0.69076378  1
  Li  Li113  1  0.30449553  0.77516974  0.63819987  1
  Li  Li114  1  0.96891386  0.28098857  0.64357642  1
  Li  Li115  1  0.93061390  0.82184222  0.69264566  1
  Li  Li116  1  0.97235345  0.12019619  0.65929488  1
  Li  Li117  1  0.02701046  0.57620705  0.60820567  1
  Li  Li118  1  0.31065348  0.28274208  0.63970444  1
  Li  Li119  1  0.26208481  0.82812789  0.68928127  1
  Li  Li120  1  0.64040198  0.42868774  0.62345664  1
  Li  Li121  1  0.59972276  0.97273836  0.67484612  1
  Li  Li122  1  0.62848775  0.12526756  0.65787340  1
  Li  Li123  1  0.65319112  0.59318427  0.61303777  1
  Li  Li124  1  0.00315397  0.08433828  0.60883770  1
  Li  Li125  1  0.96441109  0.62503853  0.65750835  1
  Li  Li126  1  0.18680821  0.56500120  0.77441448  1
  Li  Li127  1  0.23284259  0.01928764  0.72478384  1
  Li  Li128  1  0.51615229  0.56625310  0.77457874  1
  Li  Li129  1  0.56365495  0.01909737  0.72500308  1
  Li  Li130  1  0.16878299  0.41473221  0.79123251  1
  Li  Li131  1  0.21832134  0.86890193  0.74072677  1
  Li  Li132  1  0.88100610  0.36953598  0.74292676  1
  Li  Li133  1  0.83266814  0.91680707  0.79335955  1
  Li  Li134  1  0.87944624  0.20930033  0.75909454  1
  Li  Li135  1  0.92680511  0.66323712  0.70831711  1
  Li  Li136  1  0.21724952  0.37423664  0.74053096  1
  Li  Li137  1  0.17057719  0.91912394  0.79041880  1
  Li  Li138  1  0.54994109  0.51874713  0.72462454  1
  Li  Li139  1  0.50272249  0.06610230  0.77514363  1
  Li  Li140  1  0.53587750  0.21497387  0.75720150  1
  Li  Li141  1  0.57785206  0.67048053  0.70565854  1
  Li  Li142  1  0.91455195  0.17005892  0.70838569  1
  Li  Li143  1  0.87088937  0.71507757  0.75731271  1
  Li  Li144  1  0.09691263  0.65505680  0.87193624  1
  Li  Li145  1  0.13443796  0.11191065  0.82587233  1
  Li  Li146  1  0.42254836  0.66653253  0.87677059  1
  Li  Li147  1  0.46878660  0.11163783  0.82555456  1
  Li  Li148  1  0.07926945  0.50900305  0.89386463  1
  Li  Li149  1  0.12657992  0.96209600  0.84102909  1
  Li  Li150  1  0.79263677  0.46093679  0.84267296  1
  Li  Li151  1  0.75995374  0.99202066  0.88698198  1
  Li  Li152  1  0.78491807  0.30251811  0.85843044  1
  Li  Li153  1  0.83573110  0.75842112  0.80709210  1
  Li  Li154  1  0.12781308  0.46490516  0.84136043  1
  Li  Li155  1  0.10696349  0.98861298  0.89243365  1
  Li  Li156  1  0.46202540  0.61041597  0.82503053  1
  Li  Li157  1  0.39334332  0.16479551  0.87541946  1
  Li  Li158  1  0.44137827  0.30694089  0.85704069  1
  Li  Li159  1  0.48983541  0.76066155  0.80640984  1
  Li  Li160  1  0.82042443  0.26074796  0.80836260  1
  Li  Li161  1  0.77766784  0.80669436  0.85600357  1
  Li  Li162  1  0.97274047  0.69510439  0.93788448  1
  Li  Li163  1  0.03782169  0.20071846  0.92790567  1
  Li  Li164  1  0.41677688  0.68745186  0.98593038  1
  Li  Li165  1  0.35673914  0.20295629  0.93254781  1
  Li  Li166  1  0.21394721  0.57097444  0.97640504  1
  Li  Li167  1  0.99993698  0.04529019  0.93978209  1
  Li  Li168  1  0.50484913  0.53483524  0.98928598  1
  Li  Li169  1  0.66990304  0.05384496  0.94989556  1
  Li  Li170  1  0.70218308  0.39224258  0.95522022  1
  Li  Li171  1  0.74529970  0.84286309  0.90672304  1
  Li  Li172  1  0.06475885  0.51108059  0.95308383  1
  Li  Li173  1  0.95691468  0.09878854  0.98893956  1
  Li  Li174  1  0.32563208  0.69573008  0.93467224  1
  Li  Li175  1  0.42513778  0.16396449  0.98885119  1
  Li  Li176  1  0.35820184  0.38851205  0.94737046  1
  Li  Li177  1  0.59136852  0.73895662  0.92535857  1
  Li  Li178  1  0.73559756  0.35419294  0.90732816  1
  Li  Li179  1  0.67709639  0.86079327  0.96485044  1
  Y  Y180  1  0.75252719  0.76148671  0.05389519  1
  Y  Y181  1  0.42328664  0.07454637  0.08923389  1
  Y  Y182  1  0.40534454  0.60302898  0.04564613  1
  Y  Y183  1  0.09535943  0.91633873  0.07587270  1
  Y  Y184  1  0.78089218  0.21598482  0.10944912  1
  Y  Y185  1  0.83487456  0.67093424  0.15752307  1
  Y  Y186  1  0.52187603  0.98157332  0.19148611  1
  Y  Y187  1  0.47667314  0.52524018  0.14166496  1
  Y  Y188  1  0.19124525  0.82566980  0.17409342  1
  Y  Y189  1  0.15160042  0.36964688  0.12454208  1
  Y  Y190  1  0.87690768  0.12477075  0.20748368  1
  Y  Y191  1  0.92260901  0.57943854  0.25685475  1
  Y  Y192  1  0.61319264  0.89059815  0.29168533  1
  Y  Y193  1  0.56673226  0.43641399  0.24124499  1
  Y  Y194  1  0.28129365  0.73496170  0.27417126  1
  Y  Y195  1  0.23469031  0.28094203  0.22477050  1
  Y  Y196  1  0.97221873  0.03354010  0.30756546  1
  Y  Y197  1  0.00908569  0.49028299  0.35664044  1
  Y  Y198  1  0.69817221  0.79925250  0.39094349  1
  Y  Y199  1  0.66466879  0.34351541  0.34127968  1
  Y  Y200  1  0.36780144  0.64352475  0.37120262  1
  Y  Y201  1  0.32854314  0.18982388  0.32571204  1
  Y  Y202  1  0.05822306  0.94347452  0.40843360  1
  Y  Y203  1  0.11984177  0.41098748  0.45526028  1
  Y  Y204  1  0.77931581  0.24769771  0.45535156  1
  Y  Y205  1  0.42941628  0.09556178  0.42471488  1
  Y  Y206  1  0.37237728  0.53854115  0.55385701  1
  Y  Y207  1  0.70192461  0.22537508  0.58926401  1
  Y  Y208  1  0.71950726  0.69698235  0.54570383  1
  Y  Y209  1  0.02941684  0.38381232  0.57588987  1
  Y  Y210  1  0.34433337  0.08407428  0.60949012  1
  Y  Y211  1  0.29040560  0.62897777  0.65756169  1
  Y  Y212  1  0.60310484  0.31837763  0.69148014  1
  Y  Y213  1  0.64833124  0.77488749  0.64169933  1
  Y  Y214  1  0.93379216  0.47437507  0.67413471  1
  Y  Y215  1  0.97355355  0.93044890  0.62455641  1
  Y  Y216  1  0.24799119  0.17530140  0.70750197  1
  Y  Y217  1  0.20236989  0.72065852  0.75687757  1
  Y  Y218  1  0.51165896  0.40940709  0.79171353  1
  Y  Y219  1  0.55818368  0.86356913  0.74129163  1
  Y  Y220  1  0.84358405  0.56506663  0.77422281  1
  Y  Y221  1  0.89032232  0.01905048  0.72477938  1
  Y  Y222  1  0.15274633  0.26644991  0.80755286  1
  Y  Y223  1  0.11589930  0.80969932  0.85666008  1
  Y  Y224  1  0.42703669  0.50075145  0.89101121  1
  Y  Y225  1  0.46030237  0.95649549  0.84129496  1
  Y  Y226  1  0.75730796  0.65647135  0.87120743  1
  Y  Y227  1  0.79642991  0.11018755  0.82572734  1
  Y  Y228  1  0.06659769  0.35654806  0.90846780  1
  Y  Y229  1  0.00494957  0.88909054  0.95523117  1
  Y  Y230  1  0.34609907  0.05204076  0.95540833  1
  Y  Y231  1  0.69575014  0.20423441  0.92468001  1
  Cl  Cl232  1  0.99315555  0.34579695  0.09444330  1
  Cl  Cl233  1  0.95743624  0.88572430  0.04558420  1
  Cl  Cl234  1  0.66304842  0.34003745  0.09641242  1
  Cl  Cl235  1  0.60577742  0.89087192  0.04190797  1
  Cl  Cl236  1  0.62845512  0.04346737  0.06032071  1
  Cl  Cl237  1  0.57803091  0.59643459  0.01171849  1
  Cl  Cl238  1  0.28159782  0.19844069  0.07607776  1
  Cl  Cl239  1  0.27547776  0.72698637  0.02864191  1
  Cl  Cl240  1  0.34552779  0.33830861  0.09433238  1
  Cl  Cl241  1  0.28725451  0.89185044  0.04422711  1
  Cl  Cl242  1  0.65476319  0.18719037  0.07614740  1
  Cl  Cl243  1  0.60665054  0.73332521  0.02624916  1
  Cl  Cl244  1  0.97521351  0.19543755  0.07823951  1
  Cl  Cl245  1  0.94618507  0.74416931  0.02518511  1
  Cl  Cl246  1  0.95269372  0.03707156  0.05971003  1
  Cl  Cl247  1  0.28801892  0.04504114  0.05601172  1
  Cl  Cl248  1  0.30374222  0.55780283  0.01415374  1
  Cl  Cl249  1  0.22008863  0.78942827  0.08651265  1
  Cl  Cl250  1  0.51664411  0.34231995  0.03598306  1
  Cl  Cl251  1  0.54849169  0.79530266  0.08564966  1
  Cl  Cl252  1  0.47273972  0.19756622  0.02338556  1
  Cl  Cl253  1  0.53790482  0.64620296  0.07167575  1
  Cl  Cl254  1  0.85366654  0.16294255  0.02132670  1
  Cl  Cl255  1  0.19286676  0.64390748  0.07307850  1
  Cl  Cl256  1  0.87371439  0.63789756  0.06631647  1
  Cl  Cl257  1  0.24440912  0.94279727  0.10442150  1
  Cl  Cl258  1  0.21847677  0.47528951  0.05533055  1
  Cl  Cl259  1  0.91021415  0.31503570  0.03075988  1
  Cl  Cl260  1  0.88397032  0.79514580  0.08490168  1
  Cl  Cl261  1  0.88370837  0.94828297  0.10296795  1
  Cl  Cl262  1  0.86690529  0.48907279  0.04455868  1
  Cl  Cl263  1  0.55145576  0.94694115  0.09966431  1
  Cl  Cl264  1  0.56378075  0.48027664  0.05611427  1
  Cl  Cl265  1  0.09271338  0.24796183  0.19588036  1
  Cl  Cl266  1  0.04912454  0.79451248  0.14482279  1
  Cl  Cl267  1  0.75086042  0.25122243  0.19618642  1
  Cl  Cl268  1  0.70536155  0.79813830  0.14536320  1
  Cl  Cl269  1  0.72727041  0.95015014  0.16225904  1
  Cl  Cl270  1  0.68594966  0.49215161  0.11281115  1
  Cl  Cl271  1  0.39264600  0.10577676  0.17740045  1
  Cl  Cl272  1  0.34990727  0.64965384  0.12757158  1
  Cl  Cl273  1  0.43043743  0.25413744  0.19442725  1
  Cl  Cl274  1  0.38656064  0.80011833  0.14329966  1
  Cl  Cl275  1  0.74252121  0.09465224  0.17635861  1
  Cl  Cl276  1  0.70156377  0.64205548  0.12705622  1
  Cl  Cl277  1  0.07288260  0.10400770  0.17671878  1
  Cl  Cl278  1  0.02851356  0.65117677  0.12769565  1
  Cl  Cl279  1  0.05086390  0.95041800  0.15929130  1
  Cl  Cl280  1  0.00899988  0.49099930  0.10813926  1
  Cl  Cl281  1  0.39756653  0.94736655  0.15897647  1
  Cl  Cl282  1  0.35763685  0.49066320  0.10986582  1
  Cl  Cl283  1  0.25186339  0.24484946  0.13837214  1
  Cl  Cl284  1  0.30161009  0.70153188  0.18847038  1
  Cl  Cl285  1  0.58936698  0.24841751  0.14056427  1
  Cl  Cl286  1  0.63849003  0.70579814  0.18936975  1
  Cl  Cl287  1  0.57775891  0.09410558  0.11977676  1
  Cl  Cl288  1  0.63183080  0.54764956  0.17158521  1
  Cl  Cl289  1  0.23671255  0.09999980  0.12134594  1
  Cl  Cl290  1  0.28110405  0.55729560  0.17234278  1
  Cl  Cl291  1  0.90341465  0.09026032  0.12056456  1
  Cl  Cl292  1  0.95471135  0.54590862  0.17036187  1
  Cl  Cl293  1  0.33393735  0.85266988  0.20404509  1
  Cl  Cl294  1  0.28970740  0.39748995  0.15464462  1
  Cl  Cl295  1  0.93137187  0.24776215  0.13636009  1
  Cl  Cl296  1  0.97459910  0.70513221  0.18646822  1
  Cl  Cl297  1  0.98363438  0.85804557  0.20265815  1
  Cl  Cl298  1  0.94081387  0.40233029  0.15273212  1
  Cl  Cl299  1  0.64896008  0.85530268  0.20261947  1
  Cl  Cl300  1  0.60475227  0.39866531  0.15358603  1
  Cl  Cl301  1  0.18794811  0.15686037  0.29659384  1
  Cl  Cl302  1  0.13703901  0.70392918  0.24530442  1
  Cl  Cl303  1  0.84467591  0.16021561  0.29675984  1
  Cl  Cl304  1  0.79662495  0.70678773  0.24587843  1
  Cl  Cl305  1  0.81928602  0.85890330  0.26278539  1
  Cl  Cl306  1  0.77403902  0.40316706  0.21245808  1
  Cl  Cl307  1  0.48595941  0.01490335  0.27800561  1
  Cl  Cl308  1  0.43843850  0.56006167  0.22735838  1
  Cl  Cl309  1  0.52487087  0.16240063  0.29527733  1
  Cl  Cl310  1  0.47587621  0.71024139  0.24389144  1
  Cl  Cl311  1  0.83582723  0.00408379  0.27696486  1
  Cl  Cl312  1  0.78826037  0.54943915  0.22596482  1
  Cl  Cl313  1  0.16673484  0.01358778  0.27709129  1
  Cl  Cl314  1  0.11770175  0.55987185  0.22630120  1
  Cl  Cl315  1  0.14128501  0.86026995  0.25967215  1
  Cl  Cl316  1  0.09608805  0.40476415  0.20970365  1
  Cl  Cl317  1  0.48629536  0.85745716  0.25956716  1
  Cl  Cl318  1  0.43949001  0.40158749  0.20970006  1
  Cl  Cl319  1  0.34549920  0.15584907  0.23921384  1
  Cl  Cl320  1  0.39160669  0.61007998  0.28800124  1
  Cl  Cl321  1  0.68428346  0.15852721  0.23967679  1
  Cl  Cl322  1  0.72909912  0.61389153  0.28872830  1
  Cl  Cl323  1  0.67621927  0.00219608  0.22188849  1
  Cl  Cl324  1  0.72146356  0.45639381  0.27168492  1
  Cl  Cl325  1  0.32692061  0.01195745  0.22212206  1
  Cl  Cl326  1  0.37014940  0.46610235  0.27153073  1
  Cl  Cl327  1  0.99755730  0.00079972  0.22094998  1
  Cl  Cl328  1  0.04231102  0.45561186  0.27057175  1
  Cl  Cl329  1  0.42329084  0.76163547  0.30451770  1
  Cl  Cl330  1  0.37967253  0.30540107  0.25511915  1
  Cl  Cl331  1  0.02019213  0.15664321  0.23622765  1
  Cl  Cl332  1  0.06546184  0.61180216  0.28549357  1
  Cl  Cl333  1  0.07446669  0.76720369  0.30304603  1
  Cl  Cl334  1  0.02761643  0.31220270  0.25330942  1
  Cl  Cl335  1  0.73881869  0.76415441  0.30303280  1
  Cl  Cl336  1  0.69298114  0.30955765  0.25301952  1
  Cl  Cl337  1  0.27567607  0.06798897  0.39756678  1
  Cl  Cl338  1  0.22336149  0.61222425  0.34259408  1
  Cl  Cl339  1  0.93656733  0.07461223  0.40066701  1
  Cl  Cl340  1  0.88684957  0.61640402  0.34513043  1
  Cl  Cl341  1  0.90722893  0.76896118  0.36264302  1
  Cl  Cl342  1  0.87014841  0.30899505  0.31218223  1
  Cl  Cl343  1  0.57347131  0.92542477  0.37828718  1
  Cl  Cl344  1  0.53137443  0.46610683  0.32620602  1
  Cl  Cl345  1  0.62345498  0.07302227  0.39536227  1
  Cl  Cl346  1  0.56968019  0.61745955  0.34234775  1
  Cl  Cl347  1  0.92320280  0.91492004  0.37749508  1
  Cl  Cl348  1  0.88011345  0.45683232  0.32574429  1
  Cl  Cl349  1  0.25191898  0.92504332  0.37759641  1
  Cl  Cl350  1  0.21273764  0.46538823  0.32614501  1
  Cl  Cl351  1  0.22726257  0.77141196  0.36055126  1
  Cl  Cl352  1  0.18965909  0.31314464  0.31023740  1
  Cl  Cl353  1  0.56886780  0.76614715  0.35980900  1
  Cl  Cl354  1  0.53489573  0.30832598  0.31008909  1
  Cl  Cl355  1  0.43986649  0.06473525  0.34002219  1
  Cl  Cl356  1  0.48604742  0.51962654  0.38474572  1
  Cl  Cl357  1  0.78052861  0.06683048  0.34030462  1
  Cl  Cl358  1  0.83261793  0.52155732  0.38899171  1
  Cl  Cl359  1  0.76749226  0.91158057  0.32218858  1
  Cl  Cl360  1  0.81586433  0.36426769  0.37065092  1
  Cl  Cl361  1  0.41834123  0.92145552  0.32254879  1
  Cl  Cl362  1  0.47225899  0.37373287  0.37303314  1
  Cl  Cl363  1  0.09007832  0.90991407  0.32143794  1
  Cl  Cl364  1  0.13529535  0.36459063  0.37092238  1
  Cl  Cl365  1  0.50727030  0.65983323  0.40386932  1
  Cl  Cl366  1  0.47408900  0.21503909  0.35629989  1
  Cl  Cl367  1  0.11415539  0.06575946  0.33669818  1
  Cl  Cl368  1  0.16340607  0.51902691  0.38429178  1
  Cl  Cl369  1  0.16568469  0.66905658  0.40106327  1
  Cl  Cl370  1  0.12368546  0.22054828  0.35442822  1
  Cl  Cl371  1  0.82757280  0.67301458  0.40227672  1
  Cl  Cl372  1  0.78664828  0.21699328  0.35436391  1
  Cl  Cl373  1  0.37869218  0.52231003  0.43882132  1
  Cl  Cl374  1  0.04081562  0.53308363  0.44250678  1
  Cl  Cl375  1  0.12988891  0.68303394  0.46433663  1
  Cl  Cl376  1  0.96201173  0.22575914  0.42240745  1
  Cl  Cl377  1  0.66773576  0.37299688  0.45222255  1
  Cl  Cl378  1  0.67608385  0.56165324  0.45399821  1
  Cl  Cl379  1  0.87507374  0.84714821  0.47962919  1
  Cl  Cl380  1  0.98958451  0.36925229  0.42832998  1
  Cl  Cl381  1  0.46504232  0.87286131  0.49181232  1
  Cl  Cl382  1  0.33470276  0.36703918  0.42614524  1
  Cl  Cl383  1  0.30464444  0.22112911  0.41192884  1
  Cl  Cl384  1  0.76474241  0.68713918  0.46359265  1
  Cl  Cl385  1  0.64557628  0.22079560  0.42245180  1
  Cl  Cl386  1  0.52784577  0.97394513  0.44173064  1
  Cl  Cl387  1  0.87197669  0.97719362  0.44064580  1
  Cl  Cl388  1  0.96239004  0.44647941  0.49005984  1
  Cl  Cl389  1  0.85493028  0.81787401  0.42148436  1
  Cl  Cl390  1  0.91929940  0.25932119  0.49224831  1
  Cl  Cl391  1  0.51016371  0.83252066  0.42257030  1
  Cl  Cl392  1  0.58821991  0.25325983  0.48319142  1
  Cl  Cl393  1  0.16686881  0.82228643  0.42390033  1
  Cl  Cl394  1  0.23423371  0.28037532  0.47086353  1
  Cl  Cl395  1  0.56265736  0.12191672  0.45706632  1
  Cl  Cl396  1  0.20474031  0.97467399  0.43766280  1
  Cl  Cl397  1  0.29774349  0.41728873  0.48457966  1
  Cl  Cl398  1  0.22964142  0.12996269  0.45583179  1
  Cl  Cl399  1  0.89831270  0.11786713  0.46381421  1
  Cl  Cl400  1  0.13238715  0.95408074  0.59445852  1
  Cl  Cl401  1  0.16745466  0.41434301  0.54559592  1
  Cl  Cl402  1  0.46211756  0.96001943  0.59642930  1
  Cl  Cl403  1  0.51902126  0.40909118  0.54191420  1
  Cl  Cl404  1  0.49652096  0.25651603  0.56036750  1
  Cl  Cl405  1  0.54695397  0.70365005  0.51180466  1
  Cl  Cl406  1  0.84389765  0.10149247  0.57613293  1
  Cl  Cl407  1  0.84912419  0.57308875  0.52869963  1
  Cl  Cl408  1  0.77946205  0.96196101  0.59438704  1
  Cl  Cl409  1  0.83758565  0.40831075  0.54423666  1
  Cl  Cl410  1  0.47039876  0.11286794  0.57618321  1
  Cl  Cl411  1  0.51851420  0.56661533  0.52628950  1
  Cl  Cl412  1  0.15003279  0.10460239  0.57827852  1
  Cl  Cl413  1  0.17849482  0.55586568  0.52520625  1
  Cl  Cl414  1  0.17214800  0.26305364  0.55971556  1
  Cl  Cl415  1  0.83712152  0.25492319  0.55600856  1
  Cl  Cl416  1  0.82147909  0.74214726  0.51420505  1
  Cl  Cl417  1  0.90453129  0.51071966  0.58653020  1
  Cl  Cl418  1  0.60848130  0.95767645  0.53598234  1
  Cl  Cl419  1  0.57631910  0.50468723  0.58563280  1
  Cl  Cl420  1  0.65226919  0.10264015  0.52342664  1
  Cl  Cl421  1  0.58671693  0.65399326  0.57179361  1
  Cl  Cl422  1  0.27152310  0.13711530  0.52136359  1
  Cl  Cl423  1  0.93207659  0.65619043  0.57310225  1
  Cl  Cl424  1  0.25125266  0.66216682  0.56629344  1
  Cl  Cl425  1  0.88037066  0.35737376  0.60443147  1
  Cl  Cl426  1  0.90645139  0.82474022  0.55535253  1
  Cl  Cl427  1  0.21476385  0.98501695  0.53078200  1
  Cl  Cl428  1  0.24063336  0.50504170  0.58490716  1
  Cl  Cl429  1  0.24114861  0.35178812  0.60297632  1
  Cl  Cl430  1  0.25774674  0.81114840  0.54458806  1
  Cl  Cl431  1  0.57357098  0.35299630  0.59966926  1
  Cl  Cl432  1  0.56099518  0.81984775  0.55607863  1
  Cl  Cl433  1  0.03223968  0.05213809  0.69591756  1
  Cl  Cl434  1  0.07584933  0.50553461  0.64483735  1
  Cl  Cl435  1  0.37397856  0.04883202  0.69621128  1
  Cl  Cl436  1  0.41980408  0.50180804  0.64542722  1
  Cl  Cl437  1  0.39769567  0.34986634  0.66225613  1
  Cl  Cl438  1  0.43918088  0.80784187  0.61282905  1
  Cl  Cl439  1  0.73231692  0.19420247  0.67739651  1
  Cl  Cl440  1  0.77529189  0.65047209  0.62759247  1
  Cl  Cl441  1  0.69456265  0.04590113  0.69443657  1
  Cl  Cl442  1  0.73847420  0.49996729  0.64337662  1
  Cl  Cl443  1  0.38243951  0.20535177  0.67637751  1
  Cl  Cl444  1  0.42341805  0.65799226  0.62707373  1
  Cl  Cl445  1  0.05178960  0.19621406  0.67676393  1
  Cl  Cl446  1  0.09657437  0.64891435  0.62773241  1
  Cl  Cl447  1  0.07415722  0.34963101  0.65930615  1
  Cl  Cl448  1  0.11595631  0.80906833  0.60815966  1
  Cl  Cl449  1  0.72742279  0.35264059  0.65898469  1
  Cl  Cl450  1  0.76731641  0.80942375  0.60987399  1
  Cl  Cl451  1  0.87373629  0.05524807  0.63837699  1
  Cl  Cl452  1  0.82345943  0.59852436  0.68849449  1
  Cl  Cl453  1  0.53559081  0.05170010  0.64063124  1
  Cl  Cl454  1  0.48658220  0.59413057  0.68943987  1
  Cl  Cl455  1  0.54729576  0.20589719  0.61978941  1
  Cl  Cl456  1  0.49321112  0.75241873  0.67159605  1
  Cl  Cl457  1  0.88856657  0.20007384  0.62136562  1
  Cl  Cl458  1  0.84387224  0.74280619  0.67236622  1
  Cl  Cl459  1  0.22143642  0.20982612  0.62058031  1
  Cl  Cl460  1  0.17039148  0.75406253  0.67038219  1
  Cl  Cl461  1  0.79131248  0.44721632  0.70408544  1
  Cl  Cl462  1  0.83531259  0.90262887  0.65463250  1
  Cl  Cl463  1  0.19435179  0.05216519  0.63649365  1
  Cl  Cl464  1  0.15035404  0.59490184  0.68648414  1
  Cl  Cl465  1  0.14153925  0.44198350  0.70267450  1
  Cl  Cl466  1  0.18433667  0.89765308  0.65274620  1
  Cl  Cl467  1  0.47603219  0.44466093  0.70263893  1
  Cl  Cl468  1  0.52016298  0.90143056  0.65361562  1
  Cl  Cl469  1  0.93709021  0.14310664  0.79659934  1
  Cl  Cl470  1  0.98774146  0.59611352  0.74533665  1
  Cl  Cl471  1  0.28037624  0.13975517  0.79675148  1
  Cl  Cl472  1  0.32820166  0.59326153  0.74589942  1
  Cl  Cl473  1  0.30566522  0.44110849  0.76278888  1
  Cl  Cl474  1  0.35099021  0.89683241  0.71246775  1
  Cl  Cl475  1  0.63893094  0.28510831  0.77801617  1
  Cl  Cl476  1  0.68641028  0.73989133  0.72742884  1
  Cl  Cl477  1  0.60011529  0.13762773  0.79528121  1
  Cl  Cl478  1  0.64915648  0.58960283  0.74395637  1
  Cl  Cl479  1  0.28916265  0.29591996  0.77695394  1
  Cl  Cl480  1  0.33673056  0.75063890  0.72597885  1
  Cl  Cl481  1  0.95823105  0.28634483  0.77709856  1
  Cl  Cl482  1  0.00729334  0.74015048  0.72632478  1
  Cl  Cl483  1  0.98365278  0.43975726  0.75969001  1
  Cl  Cl484  1  0.02894360  0.89528460  0.70970613  1
  Cl  Cl485  1  0.63853125  0.44249007  0.75955907  1
  Cl  Cl486  1  0.68545599  0.89842458  0.70971351  1
  Cl  Cl487  1  0.77936543  0.14416795  0.73922246  1
  Cl  Cl488  1  0.73363254  0.68976565  0.78817605  1
  Cl  Cl489  1  0.44065743  0.14148274  0.73968961  1
  Cl  Cl490  1  0.39599479  0.68612277  0.78873917  1
  Cl  Cl491  1  0.44875910  0.29781326  0.72188756  1
  Cl  Cl492  1  0.40352235  0.84359754  0.77171610  1
  Cl  Cl493  1  0.79788363  0.28804259  0.72213443  1
  Cl  Cl494  1  0.75485888  0.83387903  0.77155179  1
  Cl  Cl495  1  0.12741037  0.29925749  0.72096817  1
  Cl  Cl496  1  0.08260894  0.84444085  0.77057221  1
  Cl  Cl497  1  0.70153530  0.53831294  0.80455897  1
  Cl  Cl498  1  0.74530870  0.99461686  0.75512273  1
  Cl  Cl499  1  0.10477476  0.14337883  0.73624500  1
  Cl  Cl500  1  0.05952009  0.68825362  0.78550232  1
  Cl  Cl501  1  0.05058140  0.53269021  0.80308711  1
  Cl  Cl502  1  0.09736109  0.98783542  0.75331884  1
  Cl  Cl503  1  0.38610591  0.53586036  0.80302973  1
  Cl  Cl504  1  0.43198684  0.99046065  0.75303202  1
  Cl  Cl505  1  0.84923172  0.23204711  0.89757078  1
  Cl  Cl506  1  0.90174591  0.68773905  0.84262140  1
  Cl  Cl507  1  0.18843143  0.22540782  0.90066698  1
  Cl  Cl508  1  0.23814006  0.68360793  0.84512144  1
  Cl  Cl509  1  0.21807631  0.53112207  0.86265587  1
  Cl  Cl510  1  0.25482849  0.99101417  0.81219449  1
  Cl  Cl511  1  0.55145146  0.37462642  0.87829227  1
  Cl  Cl512  1  0.59370214  0.83387639  0.82625759  1
  Cl  Cl513  1  0.50144185  0.22702144  0.89534292  1
  Cl  Cl514  1  0.55523976  0.68256140  0.84236488  1
  Cl  Cl515  1  0.20151951  0.38514288  0.87753435  1
  Cl  Cl516  1  0.24487701  0.84313511  0.82574283  1
  Cl  Cl517  1  0.87292194  0.37501012  0.87760651  1
  Cl  Cl518  1  0.91222833  0.83463471  0.82617006  1
  Cl  Cl519  1  0.89788469  0.52858896  0.86055995  1
  Cl  Cl520  1  0.93534531  0.98685248  0.81023730  1
  Cl  Cl521  1  0.55616940  0.53389117  0.85984217  1
  Cl  Cl522  1  0.59002923  0.99170718  0.81010209  1
  Cl  Cl523  1  0.68515937  0.23526553  0.84002572  1
  Cl  Cl524  1  0.63904980  0.78027872  0.88479877  1
  Cl  Cl525  1  0.34446868  0.23318981  0.84029242  1
  Cl  Cl526  1  0.29248473  0.77844983  0.88898804  1
  Cl  Cl527  1  0.35750840  0.38836050  0.82220740  1
  Cl  Cl528  1  0.30919949  0.93565264  0.87065644  1
  Cl  Cl529  1  0.70666798  0.37855803  0.82254428  1
  Cl  Cl530  1  0.65265138  0.92623062  0.87305788  1
  Cl  Cl531  1  0.03489723  0.39003866  0.82145143  1
  Cl  Cl532  1  0.98976510  0.93540493  0.87090712  1
  Cl  Cl533  1  0.61781041  0.64000111  0.90384597  1
  Cl  Cl534  1  0.65088735  0.08497309  0.85630092  1
  Cl  Cl535  1  0.01083074  0.23425223  0.83669560  1
  Cl  Cl536  1  0.96164524  0.78093279  0.88430955  1
  Cl  Cl537  1  0.95930107  0.63090762  0.90107687  1
  Cl  Cl538  1  0.00137735  0.07941343  0.85442430  1
  Cl  Cl539  1  0.29735442  0.62709505  0.90228315  1
  Cl  Cl540  1  0.33833977  0.08303386  0.85438504  1
  Cl  Cl541  1  0.74643574  0.77750258  0.93884703  1
  Cl  Cl542  1  0.08410230  0.76699736  0.94249649  1
  Cl  Cl543  1  0.99477082  0.61703754  0.96439476  1
  Cl  Cl544  1  0.16331924  0.07408407  0.92245837  1
  Cl  Cl545  1  0.45817844  0.92658135  0.95269928  1
  Cl  Cl546  1  0.44922518  0.73822682  0.95399826  1
  Cl  Cl547  1  0.24975271  0.45283963  0.97959267  1
  Cl  Cl548  1  0.13560402  0.93070519  0.92834203  1
  Cl  Cl549  1  0.65965140  0.42710918  0.99186801  1
  Cl  Cl550  1  0.79082090  0.93324261  0.92603938  1
  Cl  Cl551  1  0.82066583  0.07885391  0.91185969  1
  Cl  Cl552  1  0.35987584  0.61303616  0.96356742  1
  Cl  Cl553  1  0.47944926  0.07902403  0.92249956  1
  Cl  Cl554  1  0.59681267  0.32575987  0.94176767  1
  Cl  Cl555  1  0.25296058  0.32281135  0.94065958  1
  Cl  Cl556  1  0.16234975  0.85366646  0.99004812  1
  Cl  Cl557  1  0.26963260  0.48231423  0.92144668  1
  Cl  Cl558  1  0.20546485  0.04082833  0.99229424  1
  Cl  Cl559  1  0.61468833  0.46702896  0.92274180  1
  Cl  Cl560  1  0.53653982  0.04691254  0.98331227  1
  Cl  Cl561  1  0.95788406  0.47774428  0.92390611  1
  Cl  Cl562  1  0.89067581  0.01972694  0.97084860  1
  Cl  Cl563  1  0.56241952  0.17799657  0.95704979  1
  Cl  Cl564  1  0.92035434  0.32507236  0.93768302  1
  Cl  Cl565  1  0.82703334  0.88272156  0.98456943  1
  Cl  Cl566  1  0.89539595  0.17003621  0.95580960  1
  Cl  Cl567  1  0.22679614  0.18192064  0.96379928  1
