# generated using pymatgen
data_Li87Y25Cl162
_symmetry_space_group_name_H-M   'P 1'
_cell_length_a   11.17722800
_cell_length_b   23.17114807
_cell_length_c   57.24793071
_cell_angle_alpha   90.00000000
_cell_angle_beta   90.00000000
_cell_angle_gamma   61.15890919
_symmetry_Int_Tables_number   1
_chemical_formula_structural   Li87Y25Cl162
_chemical_formula_sum   'Li174 Y50 Cl324'
_cell_volume   12987.51925051
_cell_formula_units_Z   2
loop_
 _symmetry_equiv_pos_site_id
 _symmetry_equiv_pos_as_xyz
  1  'x, y, z'
loop_
 _atom_site_type_symbol
 _atom_site_label
 _atom_site_symmetry_multiplicity
 _atom_site_fract_x
 _atom_site_fract_y
 _atom_site_fract_z
 _atom_site_occupancy
  Li  Li0  1  0.74233659  0.92244536  0.09843575  1
  Li  Li1  1  0.71993115  0.45454777  0.05042780  1
  Li  Li2  1  0.41543813  0.92367105  0.09789684  1
  Li  Li3  1  0.33378461  0.48853503  0.04574318  1
  Li  Li4  1  0.65829782  0.17954633  0.01110796  1
  Li  Li5  1  0.72633616  0.60860903  0.06456905  1
  Li  Li6  1  0.00790987  0.14605720  0.01549268  1
  Li  Li7  1  0.03830300  0.62615399  0.05786820  1
  Li  Li8  1  0.89810000  0.23457495  0.06035250  1
  Li  Li9  1  0.11129358  0.86658321  0.03883758  1
  Li  Li10  1  0.65924677  0.13716008  0.06509438  1
  Li  Li11  1  0.68718542  0.64545267  0.01731569  1
  Li  Li12  1  0.34055583  0.97124088  0.04904527  1
  Li  Li13  1  0.41384030  0.42984501  0.10094275  1
  Li  Li14  1  0.28997569  0.20746041  0.05320181  1
  Li  Li15  1  0.98782011  0.03808567  0.04320328  1
  Li  Li16  1  0.98011878  0.32487618  0.03457253  1
  Li  Li17  1  0.04366132  0.76818062  0.07455246  1
  Li  Li18  1  0.83240182  0.83155520  0.19957616  1
  Li  Li19  1  0.79628641  0.37432582  0.14715146  1
  Li  Li20  1  0.50227939  0.83208797  0.19940008  1
  Li  Li21  1  0.45926615  0.37295481  0.14877554  1
  Li  Li22  1  0.75779390  0.07055583  0.11400008  1
  Li  Li23  1  0.80820235  0.52588242  0.16581017  1
  Li  Li24  1  0.13583402  0.03022555  0.16651348  1
  Li  Li25  1  0.09153871  0.56934758  0.12220716  1
  Li  Li26  1  0.14032646  0.18689954  0.18011869  1
  Li  Li27  1  0.07683895  0.73862981  0.13146332  1
  Li  Li28  1  0.80328004  0.02285590  0.16487577  1
  Li  Li29  1  0.76408233  0.55868739  0.11417632  1
  Li  Li30  1  0.46945100  0.87571086  0.14841144  1
  Li  Li31  1  0.51247462  0.33211820  0.19948355  1
  Li  Li32  1  0.48402465  0.18109040  0.17968975  1
  Li  Li33  1  0.43765494  0.72386945  0.13293932  1
  Li  Li34  1  0.09370272  0.23092382  0.12356174  1
  Li  Li35  1  0.15154117  0.68104055  0.18220782  1
  Li  Li36  1  0.92409267  0.73924813  0.30056828  1
  Li  Li37  1  0.88141308  0.28592542  0.24980153  1
  Li  Li38  1  0.59448156  0.73885884  0.30080599  1
  Li  Li39  1  0.54770330  0.28585159  0.24999605  1
  Li  Li40  1  0.84797396  0.98172662  0.21609827  1
  Li  Li41  1  0.89764836  0.43464652  0.26719105  1
  Li  Li42  1  0.22627278  0.93707627  0.26722871  1
  Li  Li43  1  0.18726341  0.47943134  0.21764699  1
  Li  Li44  1  0.23336411  0.09529317  0.28426781  1
  Li  Li45  1  0.18412403  0.64013529  0.23389094  1
  Li  Li46  1  0.89251590  0.93137279  0.26637729  1
  Li  Li47  1  0.85271898  0.47450973  0.21566362  1
  Li  Li48  1  0.56192293  0.78555637  0.25006136  1
  Li  Li49  1  0.60214281  0.24162864  0.30066506  1
  Li  Li50  1  0.57418401  0.09303838  0.28210176  1
  Li  Li51  1  0.53124966  0.63332114  0.23293547  1
  Li  Li52  1  0.19445844  0.13576594  0.23208970  1
  Li  Li53  1  0.24042510  0.58931684  0.28416681  1
  Li  Li54  1  0.01435224  0.64942429  0.40421671  1
  Li  Li55  1  0.97202812  0.19620089  0.35051653  1
  Li  Li56  1  0.67990018  0.64655092  0.40159021  1
  Li  Li57  1  0.63275193  0.19886083  0.35098468  1
  Li  Li58  1  0.94058650  0.89018831  0.31794057  1
  Li  Li59  1  0.98538737  0.34472778  0.37173161  1
  Li  Li60  1  0.30793811  0.84832725  0.36856474  1
  Li  Li61  1  0.27388927  0.39074740  0.32076596  1
  Li  Li62  1  0.30796625  0.00708202  0.38848618  1
  Li  Li63  1  0.28096261  0.54745498  0.33567267  1
  Li  Li64  1  0.97635421  0.83096290  0.36763761  1
  Li  Li65  1  0.94168244  0.38540631  0.31804809  1
  Li  Li66  1  0.64720098  0.69551811  0.35170625  1
  Li  Li67  1  0.68540974  0.14700747  0.39921079  1
  Li  Li68  1  0.65960459  0.00369699  0.37813665  1
  Li  Li69  1  0.62526198  0.54077227  0.33430741  1
  Li  Li70  1  0.28767988  0.04399496  0.33535219  1
  Li  Li71  1  0.33090309  0.50205398  0.38751013  1
  Li  Li72  1  0.02918600  0.13759475  0.45149228  1
  Li  Li73  1  0.71072999  0.08935924  0.45560447  1
  Li  Li74  1  0.00582493  0.80270993  0.42382132  1
  Li  Li75  1  0.99103358  0.27879160  0.48210093  1
  Li  Li76  1  0.44948647  0.59811619  0.45622926  1
  Li  Li77  1  0.19997773  0.34095303  0.43963385  1
  Li  Li78  1  0.28915021  0.86319550  0.47902506  1
  Li  Li79  1  0.40501575  0.43503235  0.43877022  1
  Li  Li80  1  0.13052898  0.78265129  0.48914026  1
  Li  Li81  1  0.96147584  0.29991192  0.42879254  1
  Li  Li82  1  0.72388797  0.60732763  0.44924622  1
  Li  Li83  1  0.70050190  0.94902223  0.44404222  1
  Li  Li84  1  0.74956463  0.44884149  0.46251314  1
  Li  Li85  1  0.37491363  0.95856455  0.44568268  1
  Li  Li86  1  0.61513861  0.31867176  0.46057571  1
  Li  Li87  1  0.43315330  0.87794225  0.59847603  1
  Li  Li88  1  0.45615280  0.34485587  0.55062554  1
  Li  Li89  1  0.76172257  0.87583843  0.59757272  1
  Li  Li90  1  0.84380353  0.31030607  0.54610042  1
  Li  Li91  1  0.51655162  0.62017671  0.51127951  1
  Li  Li92  1  0.44727333  0.19147935  0.56460505  1
  Li  Li93  1  0.16714697  0.65401398  0.51563591  1
  Li  Li94  1  0.13724721  0.17292032  0.55825750  1
  Li  Li95  1  0.27777161  0.56519186  0.56051156  1
  Li  Li96  1  0.06386867  0.93291244  0.53915023  1
  Li  Li97  1  0.51342403  0.66430842  0.56497167  1
  Li  Li98  1  0.48752650  0.15519192  0.51740711  1
  Li  Li99  1  0.83357001  0.82834724  0.54905604  1
  Li  Li100  1  0.75897071  0.37007163  0.60098823  1
  Li  Li101  1  0.88570176  0.59110947  0.55319230  1
  Li  Li102  1  0.18521319  0.76237367  0.54323892  1
  Li  Li103  1  0.19588314  0.47508734  0.53468823  1
  Li  Li104  1  0.13030131  0.03167029  0.57496197  1
  Li  Li105  1  0.34190482  0.96852984  0.69947867  1
  Li  Li106  1  0.37839303  0.42499619  0.64738778  1
  Li  Li107  1  0.67332444  0.96744212  0.69943852  1
  Li  Li108  1  0.71884919  0.42508272  0.64917072  1
  Li  Li109  1  0.42015923  0.72771119  0.61415542  1
  Li  Li110  1  0.36540132  0.27427576  0.66580400  1
  Li  Li111  1  0.04235194  0.76865910  0.66607797  1
  Li  Li112  1  0.08243106  0.23100151  0.62232756  1
  Li  Li113  1  0.03734083  0.61225864  0.68032305  1
  Li  Li114  1  0.09829659  0.06030645  0.63172649  1
  Li  Li115  1  0.37443443  0.77615883  0.66530051  1
  Li  Li116  1  0.41134520  0.24170290  0.61414757  1
  Li  Li117  1  0.70529880  0.92474720  0.64832604  1
  Li  Li118  1  0.66382774  0.46800329  0.69942445  1
  Li  Li119  1  0.69408345  0.61871784  0.67992460  1
  Li  Li120  1  0.73589637  0.07640456  0.63309388  1
  Li  Li121  1  0.08224034  0.56994382  0.62390532  1
  Li  Li122  1  0.02276146  0.11885925  0.68226546  1
  Li  Li123  1  0.25090677  0.06051707  0.80058974  1
  Li  Li124  1  0.29348105  0.51456580  0.74987382  1
  Li  Li125  1  0.57854294  0.06180517  0.80136473  1
  Li  Li126  1  0.62571250  0.51445003  0.75004043  1
  Li  Li127  1  0.32593700  0.81842606  0.71622818  1
  Li  Li128  1  0.27821944  0.36509365  0.76756428  1
  Li  Li129  1  0.94758838  0.86329051  0.76756543  1
  Li  Li130  1  0.98921097  0.32130685  0.71795364  1
  Li  Li131  1  0.94408983  0.70426715  0.78437274  1
  Li  Li132  1  0.98886428  0.16011404  0.73389716  1
  Li  Li133  1  0.28172558  0.86999379  0.76663866  1
  Li  Li134  1  0.32376157  0.32588204  0.71586134  1
  Li  Li135  1  0.61223340  0.01561745  0.75022639  1
  Li  Li136  1  0.57109939  0.55954332  0.80068792  1
  Li  Li137  1  0.60057266  0.70801147  0.78206816  1
  Li  Li138  1  0.64266771  0.16701103  0.73360962  1
  Li  Li139  1  0.98017179  0.66410679  0.73227535  1
  Li  Li140  1  0.93369540  0.21071152  0.78419987  1
  Li  Li141  1  0.16113311  0.15051496  0.90415009  1
  Li  Li142  1  0.20284165  0.60445891  0.85125730  1
  Li  Li143  1  0.49360720  0.15444952  0.90180086  1
  Li  Li144  1  0.54385026  0.59970601  0.85124343  1
  Li  Li145  1  0.23454585  0.90957954  0.81838097  1
  Li  Li146  1  0.18700637  0.45695410  0.87178311  1
  Li  Li147  1  0.86468295  0.95278023  0.86825708  1
  Li  Li148  1  0.90118065  0.40964655  0.82106149  1
  Li  Li149  1  0.86597988  0.79350694  0.88852082  1
  Li  Li150  1  0.89336544  0.25247817  0.83551662  1
  Li  Li151  1  0.19891401  0.96874842  0.86816023  1
  Li  Li152  1  0.23376054  0.41492697  0.81843813  1
  Li  Li153  1  0.52815064  0.10404946  0.85240390  1
  Li  Li154  1  0.48793623  0.65332686  0.89937281  1
  Li  Li155  1  0.51445510  0.79664875  0.87862779  1
  Li  Li156  1  0.54797039  0.25911015  0.83444300  1
  Li  Li157  1  0.88692705  0.75654113  0.83534334  1
  Li  Li158  1  0.84442560  0.29777574  0.88757289  1
  Li  Li159  1  0.14732340  0.66239101  0.95154436  1
  Li  Li160  1  0.46513350  0.71111655  0.95581303  1
  Li  Li161  1  0.17033087  0.99731604  0.92436769  1
  Li  Li162  1  0.18168353  0.52131207  0.98209834  1
  Li  Li163  1  0.72324874  0.20247572  0.95638776  1
  Li  Li164  1  0.97260105  0.45889105  0.93957517  1
  Li  Li165  1  0.88679770  0.93669463  0.97899237  1
  Li  Li166  1  0.76648803  0.36511771  0.93895483  1
  Li  Li167  1  0.04562273  0.01719819  0.98914328  1
  Li  Li168  1  0.21074418  0.50004305  0.92879295  1
  Li  Li169  1  0.44982365  0.19342946  0.94915914  1
  Li  Li170  1  0.47718774  0.84995230  0.94409220  1
  Li  Li171  1  0.42198954  0.35235327  0.96399173  1
  Li  Li172  1  0.80344276  0.84105797  0.94527411  1
  Li  Li173  1  0.55710770  0.48238697  0.96064582  1
  Y  Y174  1  0.71357683  0.76687357  0.07834766  1
  Y  Y175  1  0.37781694  0.62501429  0.06273746  1
  Y  Y176  1  0.08659493  0.91589898  0.10008873  1
  Y  Y177  1  0.05383431  0.45395062  0.04543559  1
  Y  Y178  1  0.77170792  0.22006175  0.13110863  1
  Y  Y179  1  0.81562667  0.67624571  0.18214456  1
  Y  Y180  1  0.41651410  0.07494593  0.11452174  1
  Y  Y181  1  0.46545363  0.53191008  0.16676179  1
  Y  Y182  1  0.17548676  0.83122509  0.19946362  1
  Y  Y183  1  0.13470454  0.37440399  0.14842800  1
  Y  Y184  1  0.86470050  0.13035985  0.23235499  1
  Y  Y185  1  0.90984136  0.58410580  0.28361711  1
  Y  Y186  1  0.50688233  0.98720076  0.21644470  1
  Y  Y187  1  0.55433438  0.44112467  0.26767096  1
  Y  Y188  1  0.26645038  0.73993629  0.30059378  1
  Y  Y189  1  0.22290475  0.28521601  0.24983153  1
  Y  Y190  1  0.95700187  0.03914172  0.33346010  1
  Y  Y191  1  0.99739221  0.49764823  0.38525944  1
  Y  Y192  1  0.59435047  0.89489959  0.31834912  1
  Y  Y193  1  0.64588217  0.35190356  0.36873634  1
  Y  Y194  1  0.34074260  0.65743347  0.40003058  1
  Y  Y195  1  0.31133815  0.19535961  0.35118725  1
  Y  Y196  1  0.02961166  0.95959152  0.43727651  1
  Y  Y197  1  0.67000402  0.80565429  0.42225626  1
  Y  Y198  1  0.36655548  0.12095697  0.45199547  1
  Y  Y199  1  0.46188953  0.03281382  0.57837161  1
  Y  Y200  1  0.79739363  0.17448151  0.56288397  1
  Y  Y201  1  0.09044794  0.88318626  0.60038626  1
  Y  Y202  1  0.12139932  0.34568003  0.54553767  1
  Y  Y203  1  0.40606013  0.57890372  0.63115947  1
  Y  Y204  1  0.35869085  0.12376731  0.68223612  1
  Y  Y205  1  0.75966281  0.72471051  0.61449020  1
  Y  Y206  1  0.70959904  0.26755680  0.66696697  1
  Y  Y207  1  0.99905669  0.96865232  0.69963680  1
  Y  Y208  1  0.04086524  0.42557411  0.64850096  1
  Y  Y209  1  0.31021000  0.66991245  0.73242324  1
  Y  Y210  1  0.26420465  0.21618252  0.78381913  1
  Y  Y211  1  0.66805920  0.81315608  0.71660983  1
  Y  Y212  1  0.62052327  0.35917966  0.76781601  1
  Y  Y213  1  0.90850622  0.05996817  0.80076441  1
  Y  Y214  1  0.95197676  0.51488793  0.75013414  1
  Y  Y215  1  0.21832493  0.76097062  0.83368998  1
  Y  Y216  1  0.17695871  0.30268709  0.88531323  1
  Y  Y217  1  0.58015580  0.90539164  0.81854786  1
  Y  Y218  1  0.52835199  0.44786204  0.86887417  1
  Y  Y219  1  0.83415604  0.14258377  0.90025552  1
  Y  Y220  1  0.86235832  0.60544983  0.85135423  1
  Y  Y221  1  0.14662341  0.84039135  0.93730604  1
  Y  Y222  1  0.50549033  0.99442637  0.92243226  1
  Y  Y223  1  0.80937240  0.67942948  0.95205619  1
  Cl  Cl224  1  0.90196360  0.43061114  0.01707327  1
  Cl  Cl225  1  0.94391796  0.88711562  0.06879404  1
  Cl  Cl226  1  0.58119578  0.89136102  0.06464348  1
  Cl  Cl227  1  0.62556339  0.04164359  0.08535079  1
  Cl  Cl228  1  0.58844876  0.58062457  0.03366470  1
  Cl  Cl229  1  0.29180873  0.19219985  0.09644585  1
  Cl  Cl230  1  0.23926151  0.74588635  0.04724883  1
  Cl  Cl231  1  0.25250392  0.44358153  0.01709891  1
  Cl  Cl232  1  0.25104029  0.89803841  0.06341242  1
  Cl  Cl233  1  0.63581686  0.18863106  0.10141470  1
  Cl  Cl234  1  0.59924956  0.72556672  0.04744173  1
  Cl  Cl235  1  0.95654310  0.20016418  0.09940728  1
  Cl  Cl236  1  0.90944895  0.74140467  0.04824360  1
  Cl  Cl237  1  0.94769466  0.03647098  0.08381522  1
  Cl  Cl238  1  0.91436939  0.58209898  0.03313220  1
  Cl  Cl239  1  0.29688475  0.03667099  0.08277781  1
  Cl  Cl240  1  0.23944014  0.59601296  0.03195707  1
  Cl  Cl241  1  0.16869019  0.33048183  0.05574555  1
  Cl  Cl242  1  0.96285171  0.96074114  0.01474209  1
  Cl  Cl243  1  0.17430483  0.03286193  0.02015903  1
  Cl  Cl244  1  0.50511584  0.16332460  0.03523128  1
  Cl  Cl245  1  0.53709256  0.63643383  0.09459263  1
  Cl  Cl246  1  0.09346096  0.20854179  0.03384229  1
  Cl  Cl247  1  0.17208843  0.65040614  0.09156928  1
  Cl  Cl248  1  0.82571340  0.15907824  0.04322644  1
  Cl  Cl249  1  0.85700654  0.64067919  0.09228417  1
  Cl  Cl250  1  0.18307453  0.49220525  0.07649996  1
  Cl  Cl251  1  0.77209126  0.34431020  0.05006004  1
  Cl  Cl252  1  0.84837109  0.49013828  0.07645739  1
  Cl  Cl253  1  0.49339607  0.49289192  0.07212816  1
  Cl  Cl254  1  0.98770440  0.34846305  0.11930285  1
  Cl  Cl255  1  0.03283355  0.79947867  0.16987386  1
  Cl  Cl256  1  0.64197075  0.34780649  0.11876371  1
  Cl  Cl257  1  0.69050290  0.80262401  0.17013177  1
  Cl  Cl258  1  0.71539015  0.95358743  0.18747104  1
  Cl  Cl259  1  0.67044098  0.49871286  0.13685137  1
  Cl  Cl260  1  0.37944775  0.11006006  0.20197221  1
  Cl  Cl261  1  0.33513587  0.65479301  0.15147229  1
  Cl  Cl262  1  0.32323845  0.35791468  0.11833334  1
  Cl  Cl263  1  0.37213593  0.80420026  0.16861482  1
  Cl  Cl264  1  0.72981396  0.09929686  0.20147340  1
  Cl  Cl265  1  0.68528636  0.64554199  0.15012437  1
  Cl  Cl266  1  0.05896505  0.11013344  0.20122909  1
  Cl  Cl267  1  0.01045566  0.65840091  0.15062642  1
  Cl  Cl268  1  0.03788092  0.95523382  0.18455633  1
  Cl  Cl269  1  0.98981876  0.50235835  0.13428979  1
  Cl  Cl270  1  0.38156999  0.95214310  0.18409058  1
  Cl  Cl271  1  0.33196217  0.50344887  0.13368150  1
  Cl  Cl272  1  0.24851525  0.24945253  0.16174991  1
  Cl  Cl273  1  0.20129571  0.78997952  0.11218947  1
  Cl  Cl274  1  0.57886603  0.25514327  0.16411549  1
  Cl  Cl275  1  0.52473844  0.80015879  0.11147423  1
  Cl  Cl276  1  0.57212697  0.09481051  0.14574550  1
  Cl  Cl277  1  0.61878937  0.55333913  0.19712246  1
  Cl  Cl278  1  0.21933061  0.10664469  0.14519098  1
  Cl  Cl279  1  0.26611727  0.56290250  0.19694236  1
  Cl  Cl280  1  0.89344743  0.09492366  0.14518762  1
  Cl  Cl281  1  0.93848809  0.55279039  0.19596650  1
  Cl  Cl282  1  0.23342614  0.94503612  0.12834890  1
  Cl  Cl283  1  0.27404675  0.40340536  0.17985677  1
  Cl  Cl284  1  0.91725891  0.25367301  0.15904693  1
  Cl  Cl285  1  0.86226384  0.79814640  0.10716787  1
  Cl  Cl286  1  0.87778489  0.94883807  0.12805589  1
  Cl  Cl287  1  0.92653269  0.40885655  0.17815910  1
  Cl  Cl288  1  0.54971768  0.94615442  0.12594780  1
  Cl  Cl289  1  0.58984349  0.40498568  0.17700610  1
  Cl  Cl290  1  0.08049860  0.25385133  0.22029897  1
  Cl  Cl291  1  0.12230151  0.70869974  0.27143760  1
  Cl  Cl292  1  0.73807483  0.25701045  0.22106878  1
  Cl  Cl293  1  0.78237214  0.71130967  0.27192510  1
  Cl  Cl294  1  0.80290377  0.86338935  0.28957503  1
  Cl  Cl295  1  0.76106807  0.40879979  0.23826404  1
  Cl  Cl296  1  0.47116512  0.01838062  0.30481174  1
  Cl  Cl297  1  0.42477637  0.56525733  0.25332526  1
  Cl  Cl298  1  0.41834577  0.25966824  0.21926608  1
  Cl  Cl299  1  0.46223682  0.71409615  0.27001641  1
  Cl  Cl300  1  0.81871569  0.00879475  0.30322494  1
  Cl  Cl301  1  0.77523434  0.55422734  0.25231817  1
  Cl  Cl302  1  0.15278340  0.01741288  0.30311957  1
  Cl  Cl303  1  0.10484652  0.56426864  0.25251921  1
  Cl  Cl304  1  0.12552215  0.86491636  0.28622561  1
  Cl  Cl305  1  0.08353914  0.41053353  0.23559267  1
  Cl  Cl306  1  0.47097194  0.86114547  0.28576256  1
  Cl  Cl307  1  0.42781050  0.40749560  0.23508862  1
  Cl  Cl308  1  0.33412684  0.16019193  0.26431671  1
  Cl  Cl309  1  0.28544056  0.70644307  0.21391660  1
  Cl  Cl310  1  0.67191311  0.16414651  0.26504564  1
  Cl  Cl311  1  0.62273673  0.71024324  0.21439929  1
  Cl  Cl312  1  0.66170303  0.00700779  0.24759996  1
  Cl  Cl313  1  0.70884084  0.46169224  0.29840587  1
  Cl  Cl314  1  0.31235885  0.01675623  0.24766986  1
  Cl  Cl315  1  0.35882705  0.47171997  0.29876337  1
  Cl  Cl316  1  0.98333517  0.00614946  0.24673057  1
  Cl  Cl317  1  0.02986838  0.46061273  0.29765935  1
  Cl  Cl318  1  0.31917249  0.85731227  0.23005834  1
  Cl  Cl319  1  0.36631479  0.31129976  0.28058695  1
  Cl  Cl320  1  0.00810256  0.16220575  0.26148647  1
  Cl  Cl321  1  0.96006200  0.70833439  0.21087224  1
  Cl  Cl322  1  0.96888784  0.86270082  0.22861346  1
  Cl  Cl323  1  0.01684290  0.31679462  0.27921110  1
  Cl  Cl324  1  0.63395315  0.86003644  0.22818811  1
  Cl  Cl325  1  0.68113248  0.31438522  0.27886858  1
  Cl  Cl326  1  0.17262348  0.16071620  0.32148421  1
  Cl  Cl327  1  0.20567103  0.61950418  0.37219883  1
  Cl  Cl328  1  0.82743195  0.16639694  0.32293460  1
  Cl  Cl329  1  0.86727665  0.62625687  0.37456924  1
  Cl  Cl330  1  0.87606537  0.77768072  0.39270267  1
  Cl  Cl331  1  0.85088594  0.31874718  0.33914624  1
  Cl  Cl332  1  0.54872907  0.93315279  0.41101563  1
  Cl  Cl333  1  0.51707251  0.47760070  0.35523527  1
  Cl  Cl334  1  0.50894327  0.16776867  0.32012057  1
  Cl  Cl335  1  0.54703276  0.62654580  0.37087747  1
  Cl  Cl336  1  0.88461702  0.92735667  0.40905734  1
  Cl  Cl337  1  0.86427033  0.46499672  0.35421093  1
  Cl  Cl338  1  0.22309409  0.93386253  0.40655569  1
  Cl  Cl339  1  0.19501411  0.47547700  0.35434858  1
  Cl  Cl340  1  0.19916577  0.78361453  0.38794257  1
  Cl  Cl341  1  0.17495726  0.32007522  0.33702058  1
  Cl  Cl342  1  0.54923162  0.77351362  0.38864587  1
  Cl  Cl343  1  0.51780526  0.31713810  0.33635877  1
  Cl  Cl344  1  0.41915347  0.06950418  0.36721474  1
  Cl  Cl345  1  0.37620389  0.61616405  0.31538417  1
  Cl  Cl346  1  0.76589599  0.07035989  0.36701936  1
  Cl  Cl347  1  0.71445178  0.61924720  0.31591173  1
  Cl  Cl348  1  0.75214642  0.91434731  0.34976320  1
  Cl  Cl349  1  0.80211868  0.36700413  0.39988716  1
  Cl  Cl350  1  0.40399461  0.92542247  0.35074054  1
  Cl  Cl351  1  0.45467291  0.38836093  0.39982763  1
  Cl  Cl352  1  0.07028330  0.91668091  0.34859167  1
  Cl  Cl353  1  0.11724485  0.37637708  0.39940078  1
  Cl  Cl354  1  0.40683289  0.76764155  0.33151013  1
  Cl  Cl355  1  0.46193069  0.21686699  0.38095038  1
  Cl  Cl356  1  0.09547746  0.07157092  0.36351851  1
  Cl  Cl357  1  0.05124072  0.61722995  0.31262856  1
  Cl  Cl358  1  0.05876468  0.77142441  0.33004019  1
  Cl  Cl359  1  0.10355045  0.22412044  0.37863584  1
  Cl  Cl360  1  0.72332950  0.76853131  0.33013774  1
  Cl  Cl361  1  0.76449397  0.22451329  0.38139976  1
  Cl  Cl362  1  0.23054161  0.07712234  0.42586208  1
  Cl  Cl363  1  0.88573194  0.09287060  0.43211594  1
  Cl  Cl364  1  0.85540599  0.25065661  0.45427079  1
  Cl  Cl365  1  0.57516580  0.42416158  0.46621621  1
  Cl  Cl366  1  0.58272022  0.08310634  0.42291021  1
  Cl  Cl367  1  0.97702217  0.36910553  0.45834065  1
  Cl  Cl368  1  0.38982577  0.34382825  0.45421827  1
  Cl  Cl369  1  0.30175354  0.66747081  0.48578352  1
  Cl  Cl370  1  0.22391638  0.23406229  0.43221716  1
  Cl  Cl371  1  0.65982420  0.55683899  0.47785548  1
  Cl  Cl372  1  0.49594870  0.00037935  0.46919754  1
  Cl  Cl373  1  0.44501197  0.54032322  0.42031583  1
  Cl  Cl374  1  0.83824557  0.98278852  0.46901197  1
  Cl  Cl375  1  0.80384640  0.53208139  0.41746301  1
  Cl  Cl376  1  0.81914249  0.83205199  0.45171429  1
  Cl  Cl377  1  0.48772393  0.83909527  0.45590372  1
  Cl  Cl378  1  0.14885553  0.83553058  0.45279612  1
  Cl  Cl379  1  0.48873349  0.67717112  0.43239038  1
  Cl  Cl380  1  0.51649759  0.15882918  0.47761493  1
  Cl  Cl381  1  0.17354342  0.97891296  0.46997056  1
  Cl  Cl382  1  0.13869763  0.52761545  0.41559126  1
  Cl  Cl383  1  0.14149627  0.68625995  0.43026389  1
  Cl  Cl384  1  0.16441435  0.15707152  0.48165727  1
  Cl  Cl385  1  0.80464275  0.67995267  0.43483176  1
  Cl  Cl386  1  0.27348691  0.36898968  0.51723543  1
  Cl  Cl387  1  0.23131829  0.91280550  0.56899428  1
  Cl  Cl388  1  0.59435037  0.90826518  0.56456891  1
  Cl  Cl389  1  0.55019995  0.75811278  0.58545164  1
  Cl  Cl390  1  0.58672594  0.21950270  0.53382618  1
  Cl  Cl391  1  0.88494448  0.60747923  0.59646343  1
  Cl  Cl392  1  0.93563587  0.05355691  0.54752395  1
  Cl  Cl393  1  0.92331727  0.35553735  0.51727403  1
  Cl  Cl394  1  0.92536623  0.90079387  0.56371229  1
  Cl  Cl395  1  0.54041245  0.61057991  0.60120435  1
  Cl  Cl396  1  0.57520155  0.07448415  0.54739440  1
  Cl  Cl397  1  0.22021804  0.59953749  0.59955511  1
  Cl  Cl398  1  0.26543906  0.05796280  0.54846687  1
  Cl  Cl399  1  0.22957588  0.76284841  0.58386295  1
  Cl  Cl400  1  0.26086699  0.21746571  0.53337429  1
  Cl  Cl401  1  0.87964891  0.76274581  0.58274208  1
  Cl  Cl402  1  0.93676701  0.20302279  0.53216422  1
  Cl  Cl403  1  0.00609940  0.46917093  0.55578551  1
  Cl  Cl404  1  0.21310064  0.83889589  0.51487229  1
  Cl  Cl405  1  0.00007891  0.76734438  0.52010545  1
  Cl  Cl406  1  0.66962252  0.63644342  0.53532243  1
  Cl  Cl407  1  0.63746650  0.16345442  0.59471664  1
  Cl  Cl408  1  0.08181251  0.59115485  0.53389945  1
  Cl  Cl409  1  0.00253939  0.14922301  0.59178980  1
  Cl  Cl410  1  0.34838543  0.64103018  0.54318298  1
  Cl  Cl411  1  0.31781921  0.15881987  0.59235524  1
  Cl  Cl412  1  0.99306285  0.30726558  0.57675215  1
  Cl  Cl413  1  0.40319772  0.45538718  0.55037195  1
  Cl  Cl414  1  0.32674534  0.30979517  0.57661055  1
  Cl  Cl415  1  0.68264529  0.30661510  0.57230208  1
  Cl  Cl416  1  0.18738401  0.45184834  0.61941758  1
  Cl  Cl417  1  0.14201392  0.00025078  0.67002317  1
  Cl  Cl418  1  0.53391900  0.45125388  0.61894967  1
  Cl  Cl419  1  0.48395056  0.99744456  0.67011409  1
  Cl  Cl420  1  0.45955013  0.84629989  0.68762765  1
  Cl  Cl421  1  0.50458898  0.30114802  0.63698806  1
  Cl  Cl422  1  0.79569419  0.69010855  0.70221597  1
  Cl  Cl423  1  0.83941340  0.14465578  0.65160759  1
  Cl  Cl424  1  0.85261442  0.44128939  0.61858013  1
  Cl  Cl425  1  0.80279865  0.99547257  0.66870420  1
  Cl  Cl426  1  0.44622930  0.70048076  0.70163431  1
  Cl  Cl427  1  0.48934222  0.15440442  0.65022983  1
  Cl  Cl428  1  0.11665341  0.68954144  0.70126820  1
  Cl  Cl429  1  0.16407142  0.14151708  0.65063281  1
  Cl  Cl430  1  0.13744261  0.84457860  0.68474371  1
  Cl  Cl431  1  0.18562144  0.29748874  0.63437116  1
  Cl  Cl432  1  0.79252078  0.84789219  0.68411053  1
  Cl  Cl433  1  0.84275310  0.29640362  0.63387564  1
  Cl  Cl434  1  0.92792195  0.55030488  0.66207230  1
  Cl  Cl435  1  0.97459684  0.00926462  0.61234416  1
  Cl  Cl436  1  0.59876859  0.54412329  0.66412782  1
  Cl  Cl437  1  0.65176960  0.99950579  0.61134759  1
  Cl  Cl438  1  0.60525392  0.70435855  0.64584224  1
  Cl  Cl439  1  0.55591844  0.24653606  0.69727488  1
  Cl  Cl440  1  0.95722417  0.69255507  0.64521057  1
  Cl  Cl441  1  0.90887247  0.23664980  0.69708165  1
  Cl  Cl442  1  0.28399202  0.70422454  0.64526789  1
  Cl  Cl443  1  0.23611184  0.24725198  0.69606766  1
  Cl  Cl444  1  0.94270837  0.85439373  0.62856295  1
  Cl  Cl445  1  0.90237770  0.39619222  0.68007528  1
  Cl  Cl446  1  0.25970946  0.54593685  0.65917871  1
  Cl  Cl447  1  0.31379864  0.00157329  0.60734921  1
  Cl  Cl448  1  0.29907236  0.85049471  0.62827200  1
  Cl  Cl449  1  0.24902332  0.39114909  0.67824148  1
  Cl  Cl450  1  0.62676745  0.85354300  0.62579112  1
  Cl  Cl451  1  0.58655480  0.39439774  0.67726651  1
  Cl  Cl452  1  0.09450442  0.54616264  0.72053180  1
  Cl  Cl453  1  0.05170444  0.09128456  0.77146496  1
  Cl  Cl454  1  0.43685805  0.54317547  0.72113303  1
  Cl  Cl455  1  0.39171108  0.08894958  0.77214170  1
  Cl  Cl456  1  0.37113602  0.93710514  0.78980030  1
  Cl  Cl457  1  0.41394321  0.39136469  0.73840273  1
  Cl  Cl458  1  0.70351813  0.78203342  0.80491901  1
  Cl  Cl459  1  0.74931599  0.23497527  0.75348665  1
  Cl  Cl460  1  0.75677451  0.54036974  0.71947989  1
  Cl  Cl461  1  0.71197694  0.08597939  0.77026141  1
  Cl  Cl462  1  0.35602536  0.79172753  0.80350026  1
  Cl  Cl463  1  0.39989467  0.24569866  0.75255509  1
  Cl  Cl464  1  0.02260316  0.78261321  0.80327880  1
  Cl  Cl465  1  0.06940924  0.23603556  0.75271150  1
  Cl  Cl466  1  0.04899200  0.93501088  0.78638530  1
  Cl  Cl467  1  0.09219833  0.38960966  0.73578166  1
  Cl  Cl468  1  0.70341758  0.93930672  0.78605897  1
  Cl  Cl469  1  0.74701256  0.39270860  0.73525586  1
  Cl  Cl470  1  0.84127021  0.64006022  0.76452866  1
  Cl  Cl471  1  0.88868762  0.09348802  0.71402690  1
  Cl  Cl472  1  0.50290149  0.63632819  0.76516412  1
  Cl  Cl473  1  0.55158922  0.09001042  0.71446734  1
  Cl  Cl474  1  0.51284117  0.79353188  0.74782723  1
  Cl  Cl475  1  0.46586271  0.33851864  0.79856065  1
  Cl  Cl476  1  0.86290885  0.78345247  0.74779814  1
  Cl  Cl477  1  0.81617916  0.32831195  0.79885075  1
  Cl  Cl478  1  0.19151255  0.79389833  0.74685223  1
  Cl  Cl479  1  0.14490913  0.33963596  0.79790968  1
  Cl  Cl480  1  0.85514920  0.94307358  0.73029517  1
  Cl  Cl481  1  0.80805829  0.48915718  0.78084622  1
  Cl  Cl482  1  0.16726344  0.63782136  0.76162003  1
  Cl  Cl483  1  0.21436574  0.09158311  0.71094612  1
  Cl  Cl484  1  0.20573278  0.93745407  0.72872570  1
  Cl  Cl485  1  0.15834665  0.48330298  0.77942907  1
  Cl  Cl486  1  0.54086956  0.94031266  0.72825899  1
  Cl  Cl487  1  0.49395765  0.48591265  0.77902278  1
  Cl  Cl488  1  0.00175121  0.63962420  0.82170801  1
  Cl  Cl489  1  0.96887770  0.18045656  0.87232444  1
  Cl  Cl490  1  0.34748283  0.63372423  0.82327600  1
  Cl  Cl491  1  0.30765722  0.17398285  0.87467574  1
  Cl  Cl492  1  0.29890508  0.02264761  0.89295987  1
  Cl  Cl493  1  0.32266832  0.48192340  0.83934723  1
  Cl  Cl494  1  0.62716544  0.86699354  0.91098302  1
  Cl  Cl495  1  0.65720665  0.32241196  0.85528447  1
  Cl  Cl496  1  0.66487370  0.63243613  0.82037120  1
  Cl  Cl497  1  0.62741822  0.17375933  0.87111662  1
  Cl  Cl498  1  0.29061632  0.87288227  0.90892836  1
  Cl  Cl499  1  0.31008694  0.33530132  0.85427471  1
  Cl  Cl500  1  0.95208440  0.86576698  0.90691168  1
  Cl  Cl501  1  0.97958419  0.32435345  0.85440961  1
  Cl  Cl502  1  0.97483857  0.01661846  0.88807903  1
  Cl  Cl503  1  0.99926591  0.48045440  0.83741337  1
  Cl  Cl504  1  0.62599985  0.02668882  0.88879340  1
  Cl  Cl505  1  0.65672691  0.48278556  0.83657728  1
  Cl  Cl506  1  0.75478876  0.73122580  0.86732366  1
  Cl  Cl507  1  0.79836196  0.18378415  0.81547036  1
  Cl  Cl508  1  0.40827380  0.73021379  0.86737955  1
  Cl  Cl509  1  0.45909204  0.18100758  0.81622678  1
  Cl  Cl510  1  0.42275774  0.88614414  0.85009050  1
  Cl  Cl511  1  0.37102547  0.43336693  0.89990772  1
  Cl  Cl512  1  0.77109319  0.87507052  0.85085365  1
  Cl  Cl513  1  0.71944018  0.41134248  0.89996616  1
  Cl  Cl514  1  0.10450289  0.88344912  0.84882845  1
  Cl  Cl515  1  0.05655366  0.42397307  0.89945125  1
  Cl  Cl516  1  0.76730946  0.03287999  0.83178898  1
  Cl  Cl517  1  0.71259917  0.58371728  0.88127565  1
  Cl  Cl518  1  0.07881873  0.72890025  0.86366164  1
  Cl  Cl519  1  0.12324757  0.18257439  0.81272030  1
  Cl  Cl520  1  0.11565564  0.02857778  0.83024244  1
  Cl  Cl521  1  0.06985729  0.57681191  0.87895019  1
  Cl  Cl522  1  0.45113220  0.03165379  0.83047722  1
  Cl  Cl523  1  0.41030592  0.57546968  0.88161825  1
  Cl  Cl524  1  0.94655851  0.72243360  0.92585503  1
  Cl  Cl525  1  0.29133516  0.70693040  0.93229934  1
  Cl  Cl526  1  0.31777626  0.54929093  0.95409230  1
  Cl  Cl527  1  0.59686892  0.37684351  0.96669336  1
  Cl  Cl528  1  0.59234863  0.71830234  0.92309745  1
  Cl  Cl529  1  0.19529200  0.43108323  0.95842996  1
  Cl  Cl530  1  0.78289663  0.45624419  0.95427344  1
  Cl  Cl531  1  0.87257313  0.13271807  0.98578985  1
  Cl  Cl532  1  0.94912187  0.56597049  0.93240858  1
  Cl  Cl533  1  0.51340033  0.24343494  0.97812669  1
  Cl  Cl534  1  0.68114357  0.80003346  0.96917869  1
  Cl  Cl535  1  0.72960766  0.25977486  0.92059635  1
  Cl  Cl536  1  0.33770520  0.81764398  0.96910145  1
  Cl  Cl537  1  0.37042221  0.26849723  0.91750981  1
  Cl  Cl538  1  0.35771821  0.96737063  0.95194755  1
  Cl  Cl539  1  0.68845036  0.96080113  0.95591363  1
  Cl  Cl540  1  0.02693984  0.96455998  0.95270961  1
  Cl  Cl541  1  0.68511174  0.12328486  0.93258264  1
  Cl  Cl542  1  0.65923471  0.64139177  0.97758614  1
  Cl  Cl543  1  0.00334084  0.82090436  0.97006048  1
  Cl  Cl544  1  0.03632068  0.27224307  0.91557618  1
  Cl  Cl545  1  0.03375363  0.11379698  0.93040681  1
  Cl  Cl546  1  0.01104454  0.64319588  0.98178388  1
  Cl  Cl547  1  0.37048294  0.12019588  0.93489284  1
