# generated using pymatgen
data_Li81Y23Cl150
_symmetry_space_group_name_H-M   'P 1'
_cell_length_a   11.17722800
_cell_length_b   23.17114807
_cell_length_c   52.66620164
_cell_angle_alpha   90.00000000
_cell_angle_beta   90.00000000
_cell_angle_gamma   61.15890919
_symmetry_Int_Tables_number   1
_chemical_formula_structural   Li81Y23Cl150
_chemical_formula_sum   'Li162 Y46 Cl300'
_cell_volume   11948.08789191
_cell_formula_units_Z   2
loop_
 _symmetry_equiv_pos_site_id
 _symmetry_equiv_pos_as_xyz
  1  'x, y, z'
loop_
 _atom_site_type_symbol
 _atom_site_label
 _atom_site_symmetry_multiplicity
 _atom_site_fract_x
 _atom_site_fract_y
 _atom_site_fract_z
 _atom_site_occupancy
  Li  Li0  1  0.75458086  0.92375748  0.09166941  1
  Li  Li1  1  0.94318860  0.39645837  0.05460427  1
  Li  Li2  1  0.40317441  0.93221622  0.08113438  1
  Li  Li3  1  0.44680055  0.47775190  0.01832656  1
  Li  Li4  1  0.77942468  0.07771695  0.10025512  1
  Li  Li5  1  0.70301153  0.61889380  0.04615557  1
  Li  Li6  1  0.29629658  0.15609935  0.04534591  1
  Li  Li7  1  0.07849788  0.59026939  0.11066704  1
  Li  Li8  1  0.08106342  0.28825018  0.00269149  1
  Li  Li9  1  0.81311698  0.85543501  0.02202445  1
  Li  Li10  1  0.71387604  0.13565595  0.04363666  1
  Li  Li11  1  0.77351603  0.55831864  0.09700046  1
  Li  Li12  1  0.53277078  0.01619203  0.04444208  1
  Li  Li13  1  0.62415700  0.38111294  0.06111119  1
  Li  Li14  1  0.30469337  0.35934879  0.05383882  1
  Li  Li15  1  0.39733124  0.77531607  0.05706198  1
  Li  Li16  1  0.93388598  0.21789577  0.04023205  1
  Li  Li17  1  0.06492381  0.77556836  0.06404796  1
  Li  Li18  1  0.82547958  0.84265046  0.19524423  1
  Li  Li19  1  0.78128550  0.38825005  0.13782606  1
  Li  Li20  1  0.49294517  0.84415226  0.19551850  1
  Li  Li21  1  0.43216251  0.39984679  0.13184757  1
  Li  Li22  1  0.84012935  0.99385098  0.21332154  1
  Li  Li23  1  0.79835162  0.53864940  0.15693360  1
  Li  Li24  1  0.12961180  0.03842625  0.16029186  1
  Li  Li25  1  0.17166002  0.49636496  0.21659930  1
  Li  Li26  1  0.12532552  0.20107416  0.17453070  1
  Li  Li27  1  0.10147485  0.73962709  0.12205452  1
  Li  Li28  1  0.79966283  0.03238309  0.15731186  1
  Li  Li29  1  0.84395081  0.48587134  0.21121684  1
  Li  Li30  1  0.45213354  0.88751232  0.13950930  1
  Li  Li31  1  0.50075937  0.34401736  0.19063326  1
  Li  Li32  1  0.47264019  0.19496793  0.17397421  1
  Li  Li33  1  0.44993317  0.72561091  0.12300102  1
  Li  Li34  1  0.08539453  0.23954424  0.11254512  1
  Li  Li35  1  0.14315291  0.69256942  0.17801247  1
  Li  Li36  1  0.91700106  0.75026443  0.30686120  1
  Li  Li37  1  0.87149635  0.29765064  0.24875263  1
  Li  Li38  1  0.58720887  0.74969867  0.30669522  1
  Li  Li39  1  0.54126796  0.29788511  0.24818700  1
  Li  Li40  1  0.93701791  0.90175307  0.32304835  1
  Li  Li41  1  0.88699857  0.44747189  0.26819505  1
  Li  Li42  1  0.21693586  0.94874047  0.26906911  1
  Li  Li43  1  0.26961729  0.40034259  0.32538744  1
  Li  Li44  1  0.22229580  0.10630633  0.28661560  1
  Li  Li45  1  0.17805338  0.65234668  0.23324206  1
  Li  Li46  1  0.88562687  0.94323292  0.26772832  1
  Li  Li47  1  0.93296473  0.39693686  0.32357157  1
  Li  Li48  1  0.55176077  0.79718342  0.25097240  1
  Li  Li49  1  0.59408637  0.25438323  0.30439452  1
  Li  Li50  1  0.56281019  0.10573397  0.28401564  1
  Li  Li51  1  0.52364996  0.64425133  0.23012072  1
  Li  Li52  1  0.18529750  0.14814826  0.23034831  1
  Li  Li53  1  0.23109083  0.60101026  0.28765119  1
  Li  Li54  1  0.00343203  0.66387651  0.41620670  1
  Li  Li55  1  0.96576046  0.20754501  0.35927925  1
  Li  Li56  1  0.68807551  0.65190911  0.42163146  1
  Li  Li57  1  0.62722460  0.20983618  0.35982639  1
  Li  Li58  1  0.00816238  0.82003267  0.43357948  1
  Li  Li59  1  0.97755057  0.35281263  0.38185845  1
  Li  Li60  1  0.31605682  0.86696859  0.37368742  1
  Li  Li61  1  0.30900678  0.17274499  0.45084497  1
  Li  Li62  1  0.30368003  0.03929806  0.40134809  1
  Li  Li63  1  0.27261787  0.55854324  0.34223267  1
  Li  Li64  1  0.97742656  0.85592986  0.37841677  1
  Li  Li65  1  0.97669297  0.36780753  0.44298239  1
  Li  Li66  1  0.63770446  0.70539410  0.36338562  1
  Li  Li67  1  0.65545646  0.16414470  0.41486429  1
  Li  Li68  1  0.66492049  0.00602396  0.39010549  1
  Li  Li69  1  0.61510785  0.55136070  0.34005275  1
  Li  Li70  1  0.27989405  0.05520274  0.34143978  1
  Li  Li71  1  0.31012302  0.50326164  0.39387586  1
  Li  Li72  1  0.99274771  0.17523109  0.44886437  1
  Li  Li73  1  0.71941188  0.15520849  0.47088529  1
  Li  Li74  1  0.88343900  0.30126861  0.48131312  1
  Li  Li75  1  0.33953544  0.81882696  0.43857337  1
  Li  Li76  1  0.35594190  0.47919379  0.44769061  1
  Li  Li77  1  0.04595138  0.76942575  0.48310442  1
  Li  Li78  1  0.62318165  0.72519290  0.48029491  1
  Li  Li79  1  0.85276273  0.51091631  0.50338238  1
  Li  Li80  1  0.32318549  0.97842301  0.45420302  1
  Li  Li81  1  0.76977986  0.92647720  0.59110377  1
  Li  Li82  1  0.57954525  0.45424550  0.55435412  1
  Li  Li83  1  0.12144058  0.91831058  0.58108698  1
  Li  Li84  1  0.07897553  0.37119875  0.51814552  1
  Li  Li85  1  0.74608987  0.77263922  0.60001438  1
  Li  Li86  1  0.81965937  0.23100400  0.54595661  1
  Li  Li87  1  0.22915921  0.69336897  0.54502774  1
  Li  Li88  1  0.44539657  0.26000086  0.61030100  1
  Li  Li89  1  0.44866709  0.56124901  0.50286812  1
  Li  Li90  1  0.71129122  0.99510993  0.52159421  1
  Li  Li91  1  0.80878160  0.71711461  0.54362273  1
  Li  Li92  1  0.75267558  0.29284543  0.59643952  1
  Li  Li93  1  0.99471000  0.83422883  0.54434576  1
  Li  Li94  1  0.89871155  0.46991821  0.56012641  1
  Li  Li95  1  0.21888848  0.49056814  0.55293136  1
  Li  Li96  1  0.12796179  0.07444014  0.55728041  1
  Li  Li97  1  0.59221333  0.63374648  0.53924751  1
  Li  Li98  1  0.46025243  0.07461932  0.56383211  1
  Li  Li99  1  0.69922829  0.00702361  0.69503204  1
  Li  Li100  1  0.74325666  0.46177942  0.63735433  1
  Li  Li101  1  0.03062719  0.00604097  0.69503036  1
  Li  Li102  1  0.09061341  0.45119733  0.63078289  1
  Li  Li103  1  0.68306183  0.85633461  0.71326637  1
  Li  Li104  1  0.72689932  0.31117872  0.65626780  1
  Li  Li105  1  0.39145469  0.81212242  0.65999801  1
  Li  Li106  1  0.35190932  0.35361793  0.71607329  1
  Li  Li107  1  0.40166778  0.64831438  0.67370421  1
  Li  Li108  1  0.42423606  0.11019691  0.62186851  1
  Li  Li109  1  0.72333437  0.81718491  0.65726275  1
  Li  Li110  1  0.68001046  0.36446550  0.71054875  1
  Li  Li111  1  0.07339661  0.96366487  0.63894507  1
  Li  Li112  1  0.02201547  0.50767007  0.68988299  1
  Li  Li113  1  0.05502828  0.65448541  0.67320915  1
  Li  Li114  1  0.07428328  0.12589345  0.62292536  1
  Li  Li115  1  0.44092902  0.60991243  0.61179068  1
  Li  Li116  1  0.38244283  0.15724157  0.67763240  1
  Li  Li117  1  0.60879532  0.09832485  0.80605967  1
  Li  Li118  1  0.65512357  0.55208837  0.74833636  1
  Li  Li119  1  0.93747434  0.09997663  0.80613609  1
  Li  Li120  1  0.98705107  0.55146628  0.74771798  1
  Li  Li121  1  0.58880567  0.94845331  0.82294226  1
  Li  Li122  1  0.64009580  0.40174926  0.76783759  1
  Li  Li123  1  0.30682983  0.89986789  0.76904911  1
  Li  Li124  1  0.25773098  0.44887532  0.82482668  1
  Li  Li125  1  0.30279600  0.74333135  0.78621868  1
  Li  Li126  1  0.34631613  0.19756990  0.73278126  1
  Li  Li127  1  0.63684743  0.90670206  0.76759965  1
  Li  Li128  1  0.59435586  0.45326552  0.82343126  1
  Li  Li129  1  0.97486799  0.05258994  0.75045934  1
  Li  Li130  1  0.93030997  0.59581761  0.80396592  1
  Li  Li131  1  0.96279334  0.74331077  0.78328753  1
  Li  Li132  1  0.99977830  0.20572464  0.72962974  1
  Li  Li133  1  0.33887978  0.70162049  0.72967287  1
  Li  Li134  1  0.29227461  0.24908719  0.78694743  1
  Li  Li135  1  0.52215598  0.18639186  0.91618620  1
  Li  Li136  1  0.55860212  0.64259205  0.85909525  1
  Li  Li137  1  0.83695500  0.19887793  0.92090713  1
  Li  Li138  1  0.89714547  0.63988894  0.85923865  1
  Li  Li139  1  0.51650107  0.03050004  0.93363896  1
  Li  Li140  1  0.54590696  0.49793444  0.88181033  1
  Li  Li141  1  0.20981748  0.98248115  0.87365360  1
  Li  Li142  1  0.21855025  0.67415990  0.95061745  1
  Li  Li143  1  0.22204120  0.80908477  0.90151560  1
  Li  Li144  1  0.25212897  0.29125328  0.84177181  1
  Li  Li145  1  0.54850547  0.99468032  0.87828889  1
  Li  Li146  1  0.55078203  0.47912224  0.94327003  1
  Li  Li147  1  0.88716609  0.14350337  0.86297126  1
  Li  Li148  1  0.87190987  0.68458771  0.91432445  1
  Li  Li149  1  0.85896309  0.84381124  0.88983534  1
  Li  Li150  1  0.90712900  0.29790218  0.83993168  1
  Li  Li151  1  0.24485520  0.79458401  0.84116611  1
  Li  Li152  1  0.21484864  0.34683511  0.89339282  1
  Li  Li153  1  0.53439689  0.67249134  0.94869122  1
  Li  Li154  1  0.81042635  0.68881816  0.97001203  1
  Li  Li155  1  0.64173967  0.54596313  0.98184530  1
  Li  Li156  1  0.18718597  0.03092973  0.93890276  1
  Li  Li157  1  0.17003959  0.37065498  0.94733595  1
  Li  Li158  1  0.48291922  0.08098187  0.98319827  1
  Li  Li159  1  0.89971133  0.12733086  0.98048273  1
  Li  Li160  1  0.67521237  0.33465371  0.00480688  1
  Li  Li161  1  0.20394631  0.86992108  0.95402426  1
  Y  Y162  1  0.74423706  0.76510554  0.06925836  1
  Y  Y163  1  0.41564284  0.08225910  0.10791970  1
  Y  Y164  1  0.36424942  0.62069511  0.04989493  1
  Y  Y165  1  0.08143115  0.93040749  0.08262153  1
  Y  Y166  1  0.76559692  0.22785220  0.11908333  1
  Y  Y167  1  0.80956078  0.68712798  0.17819656  1
  Y  Y168  1  0.49872414  0.99900336  0.21376507  1
  Y  Y169  1  0.45427482  0.54274030  0.15865526  1
  Y  Y170  1  0.16847353  0.84283143  0.19548678  1
  Y  Y171  1  0.12423066  0.38583599  0.13657899  1
  Y  Y172  1  0.85591072  0.14245853  0.23047824  1
  Y  Y173  1  0.89887651  0.59611639  0.28743411  1
  Y  Y174  1  0.59124536  0.90667475  0.32290332  1
  Y  Y175  1  0.54376671  0.45264407  0.26826213  1
  Y  Y176  1  0.25952017  0.75086405  0.30604831  1
  Y  Y177  1  0.21379199  0.29773190  0.24884520  1
  Y  Y178  1  0.94630998  0.05193154  0.34166980  1
  Y  Y179  1  0.97991122  0.50759406  0.39783977  1
  Y  Y180  1  0.67583970  0.82729283  0.43265065  1
  Y  Y181  1  0.64069420  0.36197985  0.38041317  1
  Y  Y182  1  0.35311308  0.65613827  0.42112604  1
  Y  Y183  1  0.30471579  0.20793915  0.35749454  1
  Y  Y184  1  0.00803685  0.97280315  0.45382286  1
  Y  Y185  1  0.78040609  0.08518896  0.56893542  1
  Y  Y186  1  0.10866804  0.76839100  0.60768454  1
  Y  Y187  1  0.15980596  0.22972130  0.54988234  1
  Y  Y188  1  0.44336578  0.92020157  0.58257029  1
  Y  Y189  1  0.75853138  0.62284289  0.61839231  1
  Y  Y190  1  0.71481230  0.16300646  0.67778564  1
  Y  Y191  1  0.02513231  0.85106146  0.71342731  1
  Y  Y192  1  0.07061198  0.30798143  0.65830039  1
  Y  Y193  1  0.35576479  0.00725644  0.69524879  1
  Y  Y194  1  0.40016240  0.46424943  0.63584635  1
  Y  Y195  1  0.66858480  0.70749395  0.73012513  1
  Y  Y196  1  0.62550666  0.25365419  0.78698823  1
  Y  Y197  1  0.93415297  0.94293552  0.82259412  1
  Y  Y198  1  0.98142640  0.39730408  0.76788702  1
  Y  Y199  1  0.26496788  0.09895094  0.80580639  1
  Y  Y200  1  0.31272351  0.55187169  0.74831913  1
  Y  Y201  1  0.57816664  0.79828913  0.84152062  1
  Y  Y202  1  0.54509794  0.34248621  0.89735832  1
  Y  Y203  1  0.85083197  0.02314071  0.93282226  1
  Y  Y204  1  0.88448622  0.48778102  0.88003834  1
  Y  Y205  1  0.17262896  0.19394156  0.92104099  1
  Y  Y206  1  0.21963348  0.64204608  0.85709236  1
  Y  Y207  1  0.51891627  0.87695373  0.95398176  1
  Cl  Cl208  1  0.97815820  0.35900654  0.10303082  1
  Cl  Cl209  1  0.93638852  0.89574291  0.05180971  1
  Cl  Cl210  1  0.64159616  0.35429785  0.10479167  1
  Cl  Cl211  1  0.62125947  0.89611177  0.05192223  1
  Cl  Cl212  1  0.63651060  0.04091514  0.07795762  1
  Cl  Cl213  1  0.55579870  0.60587131  0.01811352  1
  Cl  Cl214  1  0.29636106  0.19893861  0.08625770  1
  Cl  Cl215  1  0.25023827  0.74486797  0.03476860  1
  Cl  Cl216  1  0.29948475  0.37029746  0.09997242  1
  Cl  Cl217  1  0.28494333  0.89681409  0.05171476  1
  Cl  Cl218  1  0.64233040  0.19411649  0.08415260  1
  Cl  Cl219  1  0.61343347  0.73720810  0.03477704  1
  Cl  Cl220  1  0.95898916  0.20363090  0.08530198  1
  Cl  Cl221  1  0.92882337  0.74652429  0.03517031  1
  Cl  Cl222  1  0.93576150  0.04955548  0.06401967  1
  Cl  Cl223  1  0.32231807  0.05012789  0.06555169  1
  Cl  Cl224  1  0.25114846  0.58016718  0.01689406  1
  Cl  Cl225  1  0.14549066  0.34815936  0.02941973  1
  Cl  Cl226  1  0.20138659  0.80448075  0.09874092  1
  Cl  Cl227  1  0.47529807  0.36979638  0.03101213  1
  Cl  Cl228  1  0.52859637  0.80654990  0.09996907  1
  Cl  Cl229  1  0.51937470  0.65392579  0.08199437  1
  Cl  Cl230  1  0.12948050  0.18542544  0.01563952  1
  Cl  Cl231  1  0.17070261  0.66000783  0.08509892  1
  Cl  Cl232  1  0.86312369  0.64367065  0.08325272  1
  Cl  Cl233  1  0.51105145  0.11121851  0.02295132  1
  Cl  Cl234  1  0.82992590  0.33600071  0.03622074  1
  Cl  Cl235  1  0.87368696  0.80650361  0.10044635  1
  Cl  Cl236  1  0.85004231  0.50878074  0.05800897  1
  Cl  Cl237  1  0.51522673  0.49584770  0.06115396  1
  Cl  Cl238  1  0.07020861  0.26649835  0.21677556  1
  Cl  Cl239  1  0.02784331  0.81029076  0.16375093  1
  Cl  Cl240  1  0.72907257  0.26877714  0.21724937  1
  Cl  Cl241  1  0.68316511  0.81304633  0.16460887  1
  Cl  Cl242  1  0.70754718  0.96486703  0.18222228  1
  Cl  Cl243  1  0.66071832  0.51148578  0.12632574  1
  Cl  Cl244  1  0.37047243  0.12199643  0.19789229  1
  Cl  Cl245  1  0.33041309  0.66847647  0.14476913  1
  Cl  Cl246  1  0.40699106  0.27295037  0.21483684  1
  Cl  Cl247  1  0.36312431  0.81743964  0.16185131  1
  Cl  Cl248  1  0.72272187  0.11068673  0.19714195  1
  Cl  Cl249  1  0.67790623  0.65759914  0.14398889  1
  Cl  Cl250  1  0.04953920  0.12278914  0.19670070  1
  Cl  Cl251  1  0.00615771  0.66871829  0.14525537  1
  Cl  Cl252  1  0.03114407  0.96744985  0.17962246  1
  Cl  Cl253  1  0.98375398  0.51302432  0.12406503  1
  Cl  Cl254  1  0.37229742  0.96409911  0.17877782  1
  Cl  Cl255  1  0.32026187  0.51688100  0.12377150  1
  Cl  Cl256  1  0.23342619  0.26132643  0.15208492  1
  Cl  Cl257  1  0.27903376  0.71833517  0.21197512  1
  Cl  Cl258  1  0.56869483  0.26435413  0.15333717  1
  Cl  Cl259  1  0.61389238  0.72122947  0.21291934  1
  Cl  Cl260  1  0.56685432  0.10756190  0.13903632  1
  Cl  Cl261  1  0.61230731  0.56194817  0.19236911  1
  Cl  Cl262  1  0.20739252  0.11561973  0.13747151  1
  Cl  Cl263  1  0.26164199  0.57387929  0.19343424  1
  Cl  Cl264  1  0.88932842  0.10488294  0.13543973  1
  Cl  Cl265  1  0.93354035  0.56162377  0.19183709  1
  Cl  Cl266  1  0.22344576  0.95970689  0.11553807  1
  Cl  Cl267  1  0.27039762  0.41180866  0.16883084  1
  Cl  Cl268  1  0.90891800  0.26523584  0.14868454  1
  Cl  Cl269  1  0.95282847  0.72046753  0.20959952  1
  Cl  Cl270  1  0.89130309  0.95864201  0.11819225  1
  Cl  Cl271  1  0.91993809  0.41739611  0.16924772  1
  Cl  Cl272  1  0.53982713  0.95331948  0.11707039  1
  Cl  Cl273  1  0.58229816  0.41452550  0.16797294  1
  Cl  Cl274  1  0.16292463  0.17246767  0.32636680  1
  Cl  Cl275  1  0.11552690  0.71932526  0.27473046  1
  Cl  Cl276  1  0.82148501  0.17803887  0.32919604  1
  Cl  Cl277  1  0.77433362  0.72280900  0.27508560  1
  Cl  Cl278  1  0.80168199  0.87288754  0.29222295  1
  Cl  Cl279  1  0.75136311  0.42101809  0.23666804  1
  Cl  Cl280  1  0.46420889  0.03032272  0.30810520  1
  Cl  Cl281  1  0.41594043  0.57767138  0.25439511  1
  Cl  Cl282  1  0.50290636  0.18083809  0.32408479  1
  Cl  Cl283  1  0.45595477  0.72476711  0.27334368  1
  Cl  Cl284  1  0.81647364  0.01917132  0.30784132  1
  Cl  Cl285  1  0.76684512  0.56632534  0.25307394  1
  Cl  Cl286  1  0.14244154  0.02917110  0.30792355  1
  Cl  Cl287  1  0.09538770  0.57649975  0.25384004  1
  Cl  Cl288  1  0.12145086  0.87499360  0.28962728  1
  Cl  Cl289  1  0.07395000  0.42274715  0.23313723  1
  Cl  Cl290  1  0.46186322  0.87221792  0.28922888  1
  Cl  Cl291  1  0.41853158  0.42011072  0.23230306  1
  Cl  Cl292  1  0.32390192  0.17317907  0.26466052  1
  Cl  Cl293  1  0.36935741  0.62657047  0.32278232  1
  Cl  Cl294  1  0.66113195  0.17719229  0.26542597  1
  Cl  Cl295  1  0.70686348  0.62996248  0.32344188  1
  Cl  Cl296  1  0.65335179  0.01946466  0.24750581  1
  Cl  Cl297  1  0.69858171  0.47256144  0.30220541  1
  Cl  Cl298  1  0.30186274  0.02919015  0.24734450  1
  Cl  Cl299  1  0.35024014  0.48278946  0.30282469  1
  Cl  Cl300  1  0.97502829  0.01864674  0.24663497  1
  Cl  Cl301  1  0.02012020  0.47204341  0.30163770  1
  Cl  Cl302  1  0.31132936  0.86890087  0.22907021  1
  Cl  Cl303  1  0.35684654  0.32462709  0.28204534  1
  Cl  Cl304  1  0.99839838  0.17521810  0.26204539  1
  Cl  Cl305  1  0.04381642  0.62801398  0.31922330  1
  Cl  Cl306  1  0.96093364  0.87522524  0.22713926  1
  Cl  Cl307  1  0.00783478  0.32911738  0.28074022  1
  Cl  Cl308  1  0.62444055  0.87249572  0.22695196  1
  Cl  Cl309  1  0.67165423  0.32602865  0.28043551  1
  Cl  Cl310  1  0.23965640  0.09086364  0.44116849  1
  Cl  Cl311  1  0.21929492  0.62387709  0.38794037  1
  Cl  Cl312  1  0.89235484  0.09555595  0.43706970  1
  Cl  Cl313  1  0.85968314  0.63648388  0.38659746  1
  Cl  Cl314  1  0.88786477  0.78630251  0.40157380  1
  Cl  Cl315  1  0.84214442  0.33069669  0.34748441  1
  Cl  Cl316  1  0.53806735  0.95290812  0.42175385  1
  Cl  Cl317  1  0.50397756  0.48698820  0.36485355  1
  Cl  Cl318  1  0.54526989  0.63298093  0.38779610  1
  Cl  Cl319  1  0.89429993  0.93407682  0.41629296  1
  Cl  Cl320  1  0.85032307  0.47752912  0.36309353  1
  Cl  Cl321  1  0.22513234  0.93504114  0.42128770  1
  Cl  Cl322  1  0.17756534  0.48758828  0.36302557  1
  Cl  Cl323  1  0.21856125  0.78168289  0.40475131  1
  Cl  Cl324  1  0.16470458  0.33337810  0.34317891  1
  Cl  Cl325  1  0.53565274  0.79204904  0.40054324  1
  Cl  Cl326  1  0.51130801  0.33038483  0.34390569  1
  Cl  Cl327  1  0.42085438  0.08275657  0.37532409  1
  Cl  Cl328  1  0.44678209  0.54993043  0.45309051  1
  Cl  Cl329  1  0.74964951  0.08395748  0.37632580  1
  Cl  Cl330  1  0.81043464  0.53972766  0.43522309  1
  Cl  Cl331  1  0.74893023  0.92594280  0.35664981  1
  Cl  Cl332  1  0.79266555  0.38161731  0.41307437  1
  Cl  Cl333  1  0.40089296  0.93890168  0.35788546  1
  Cl  Cl334  1  0.44844971  0.40074834  0.41579100  1
  Cl  Cl335  1  0.07186624  0.92656862  0.35720779  1
  Cl  Cl336  1  0.10872977  0.38497268  0.41207490  1
  Cl  Cl337  1  0.40262464  0.77625677  0.34036348  1
  Cl  Cl338  1  0.44604568  0.23387628  0.38992822  1
  Cl  Cl339  1  0.09236808  0.08245897  0.37338045  1
  Cl  Cl340  1  0.13518543  0.53670729  0.42989491  1
  Cl  Cl341  1  0.05458181  0.78360537  0.33843505  1
  Cl  Cl342  1  0.10486747  0.23342452  0.38875657  1
  Cl  Cl343  1  0.71472444  0.78113761  0.33761087  1
  Cl  Cl344  1  0.75818364  0.23582819  0.39253561  1
  Cl  Cl345  1  0.77106814  0.24212952  0.46786674  1
  Cl  Cl346  1  0.73979558  0.65963451  0.51499539  1
  Cl  Cl347  1  0.90793477  0.40697182  0.48512641  1
  Cl  Cl348  1  0.07698039  0.25511227  0.45438438  1
  Cl  Cl349  1  0.53003306  0.16050265  0.45045489  1
  Cl  Cl350  1  0.79956430  0.00752610  0.48306313  1
  Cl  Cl351  1  0.82412994  0.84460330  0.46688952  1
  Cl  Cl352  1  0.49219274  0.84326119  0.46787938  1
  Cl  Cl353  1  0.13604673  0.84384968  0.46782140  1
  Cl  Cl354  1  0.48273070  0.69820694  0.45139754  1
  Cl  Cl355  1  0.15986931  0.99258949  0.48478160  1
  Cl  Cl356  1  0.12896568  0.69492033  0.44918394  1
  Cl  Cl357  1  0.79676061  0.70120698  0.44831702  1
  Cl  Cl358  1  0.54728873  0.49089408  0.60230379  1
  Cl  Cl359  1  0.58812962  0.95469370  0.55151579  1
  Cl  Cl360  1  0.88249595  0.49650160  0.60387018  1
  Cl  Cl361  1  0.90341337  0.95428961  0.55147478  1
  Cl  Cl362  1  0.88835705  0.80961407  0.57755974  1
  Cl  Cl363  1  0.96793780  0.24456851  0.51826679  1
  Cl  Cl364  1  0.22863710  0.65161086  0.58603210  1
  Cl  Cl365  1  0.27360072  0.10555214  0.53484481  1
  Cl  Cl366  1  0.22479949  0.48046153  0.59912192  1
  Cl  Cl367  1  0.23986636  0.95368594  0.55165152  1
  Cl  Cl368  1  0.88239824  0.65672494  0.58372202  1
  Cl  Cl369  1  0.91213105  0.11262189  0.53457254  1
  Cl  Cl370  1  0.56602723  0.64636085  0.58456507  1
  Cl  Cl371  1  0.59529840  0.10400616  0.53490094  1
  Cl  Cl372  1  0.58812596  0.80122824  0.56397043  1
  Cl  Cl373  1  0.20368977  0.80035215  0.56558013  1
  Cl  Cl374  1  0.27491393  0.26933857  0.51694354  1
  Cl  Cl375  1  0.37814566  0.50241301  0.52894462  1
  Cl  Cl376  1  0.32370836  0.04601177  0.59871984  1
  Cl  Cl377  1  0.04861043  0.48011810  0.52990213  1
  Cl  Cl378  1  0.99622315  0.04415231  0.59962674  1
  Cl  Cl379  1  0.00402050  0.19710992  0.58203228  1
  Cl  Cl380  1  0.39471250  0.66523191  0.51522919  1
  Cl  Cl381  1  0.35391410  0.19050255  0.58497052  1
  Cl  Cl382  1  0.66138202  0.20670529  0.58269989  1
  Cl  Cl383  1  0.01459687  0.74001032  0.52273920  1
  Cl  Cl384  1  0.69292650  0.51497346  0.53480104  1
  Cl  Cl385  1  0.65138708  0.04375968  0.60016786  1
  Cl  Cl386  1  0.67363996  0.34187282  0.55748478  1
  Cl  Cl387  1  0.00982523  0.35501104  0.56092851  1
  Cl  Cl388  1  0.45560434  0.58332293  0.71618230  1
  Cl  Cl389  1  0.49688702  0.03960412  0.66351004  1
  Cl  Cl390  1  0.79673906  0.58127319  0.71675418  1
  Cl  Cl391  1  0.84104234  0.03718944  0.66415411  1
  Cl  Cl392  1  0.81594301  0.88523968  0.68203178  1
  Cl  Cl393  1  0.86432063  0.33895093  0.62588052  1
  Cl  Cl394  1  0.15366994  0.72810389  0.69745792  1
  Cl  Cl395  1  0.19467860  0.18217722  0.64446904  1
  Cl  Cl396  1  0.11901076  0.57702992  0.71430686  1
  Cl  Cl397  1  0.16093169  0.03325161  0.66157621  1
  Cl  Cl398  1  0.80090074  0.73977793  0.69687478  1
  Cl  Cl399  1  0.84647528  0.19268079  0.64360601  1
  Cl  Cl400  1  0.47477037  0.72721375  0.69635608  1
  Cl  Cl401  1  0.51805117  0.18154958  0.64487847  1
  Cl  Cl402  1  0.49207578  0.88271963  0.67932316  1
  Cl  Cl403  1  0.54119870  0.33730786  0.62335296  1
  Cl  Cl404  1  0.15140984  0.88631503  0.67845496  1
  Cl  Cl405  1  0.20441578  0.33392704  0.62337002  1
  Cl  Cl406  1  0.29177658  0.58876584  0.65141488  1
  Cl  Cl407  1  0.24532036  0.13186856  0.71158543  1
  Cl  Cl408  1  0.95526614  0.58649502  0.65269351  1
  Cl  Cl409  1  0.91011649  0.12899466  0.71253391  1
  Cl  Cl410  1  0.95719329  0.74290500  0.63868364  1
  Cl  Cl411  1  0.91229330  0.28868428  0.69187619  1
  Cl  Cl412  1  0.31693445  0.73488916  0.63723988  1
  Cl  Cl413  1  0.26327473  0.27657394  0.69305288  1
  Cl  Cl414  1  0.63480920  0.74540586  0.63495889  1
  Cl  Cl415  1  0.59111355  0.28856574  0.69124381  1
  Cl  Cl416  1  0.30111118  0.89080697  0.61541698  1
  Cl  Cl417  1  0.25298295  0.43932185  0.66807667  1
  Cl  Cl418  1  0.61562390  0.58481661  0.64795248  1
  Cl  Cl419  1  0.57189373  0.12953882  0.70919353  1
  Cl  Cl420  1  0.63394998  0.89172897  0.61798622  1
  Cl  Cl421  1  0.60452510  0.43266100  0.66855285  1
  Cl  Cl422  1  0.98455623  0.89743018  0.61667395  1
  Cl  Cl423  1  0.94141291  0.43633947  0.66732585  1
  Cl  Cl424  1  0.36132963  0.67765821  0.82605776  1
  Cl  Cl425  1  0.40834114  0.13042111  0.77428483  1
  Cl  Cl426  1  0.70279861  0.67219939  0.82884383  1
  Cl  Cl427  1  0.75066221  0.12690551  0.77460995  1
  Cl  Cl428  1  0.72323006  0.97693768  0.79186993  1
  Cl  Cl429  1  0.77419998  0.42872104  0.73624573  1
  Cl  Cl430  1  0.06048039  0.81933220  0.80783889  1
  Cl  Cl431  1  0.10883670  0.27230899  0.75390833  1
  Cl  Cl432  1  0.02102863  0.66942382  0.82374560  1
  Cl  Cl433  1  0.06868145  0.12505734  0.77300068  1
  Cl  Cl434  1  0.70745424  0.83119363  0.80770213  1
  Cl  Cl435  1  0.75829382  0.28344382  0.75269857  1
  Cl  Cl436  1  0.38207102  0.82059880  0.80773530  1
  Cl  Cl437  1  0.42970696  0.27337451  0.75324011  1
  Cl  Cl438  1  0.40276332  0.97473254  0.78953030  1
  Cl  Cl439  1  0.45121151  0.42702212  0.73257173  1
  Cl  Cl440  1  0.06289064  0.97727095  0.78875505  1
  Cl  Cl441  1  0.10636682  0.43001276  0.73190590  1
  Cl  Cl442  1  0.20199867  0.67645111  0.76425558  1
  Cl  Cl443  1  0.15495042  0.22327143  0.82235609  1
  Cl  Cl444  1  0.86372751  0.67270333  0.76506240  1
  Cl  Cl445  1  0.81742158  0.21968577  0.82305823  1
  Cl  Cl446  1  0.87103642  0.83048335  0.74725570  1
  Cl  Cl447  1  0.82682037  0.37733926  0.80192240  1
  Cl  Cl448  1  0.22218932  0.82077777  0.74702482  1
  Cl  Cl449  1  0.17510911  0.36693892  0.80239904  1
  Cl  Cl450  1  0.54906076  0.83117283  0.74649431  1
  Cl  Cl451  1  0.50470110  0.37777380  0.80113089  1
  Cl  Cl452  1  0.21275890  0.98119347  0.72874586  1
  Cl  Cl453  1  0.16883892  0.52548873  0.78150846  1
  Cl  Cl454  1  0.52675639  0.67447806  0.76166243  1
  Cl  Cl455  1  0.48064520  0.22158680  0.81862911  1
  Cl  Cl456  1  0.56295685  0.97475250  0.72698683  1
  Cl  Cl457  1  0.51830192  0.52045548  0.78024359  1
  Cl  Cl458  1  0.89983657  0.97763490  0.72657017  1
  Cl  Cl459  1  0.85379597  0.52387809  0.77999105  1
  Cl  Cl460  1  0.28711701  0.75717629  0.94120890  1
  Cl  Cl461  1  0.30649075  0.22630655  0.88786818  1
  Cl  Cl462  1  0.63552244  0.75326008  0.93769045  1
  Cl  Cl463  1  0.66595960  0.21349877  0.88625050  1
  Cl  Cl464  1  0.63865040  0.06355882  0.90166302  1
  Cl  Cl465  1  0.68220760  0.51963816  0.84720872  1
  Cl  Cl466  1  0.98937443  0.89721743  0.92222902  1
  Cl  Cl467  1  0.02095101  0.36280737  0.86458987  1
  Cl  Cl468  1  0.98161850  0.21660773  0.88747774  1
  Cl  Cl469  1  0.63188943  0.91583959  0.91624971  1
  Cl  Cl470  1  0.67446168  0.37227551  0.86249207  1
  Cl  Cl471  1  0.30122298  0.91492919  0.92147339  1
  Cl  Cl472  1  0.34747985  0.36248514  0.86253276  1
  Cl  Cl473  1  0.30746619  0.06853627  0.90475445  1
  Cl  Cl474  1  0.36090359  0.51675917  0.84272982  1
  Cl  Cl475  1  0.99004102  0.05789627  0.90034396  1
  Cl  Cl476  1  0.01350999  0.51950813  0.84339851  1
  Cl  Cl477  1  0.10351139  0.76705781  0.87528068  1
  Cl  Cl478  1  0.08027023  0.29992754  0.95329712  1
  Cl  Cl479  1  0.77502655  0.76592049  0.87616877  1
  Cl  Cl480  1  0.71640533  0.31098718  0.93433823  1
  Cl  Cl481  1  0.77652471  0.92398510  0.85646052  1
  Cl  Cl482  1  0.73229777  0.46816724  0.91262453  1
  Cl  Cl483  1  0.12452245  0.91081410  0.85752724  1
  Cl  Cl484  1  0.07670559  0.44901832  0.91542759  1
  Cl  Cl485  1  0.45360240  0.92347244  0.85719177  1
  Cl  Cl486  1  0.41619193  0.46486663  0.91186924  1
  Cl  Cl487  1  0.12190776  0.07358196  0.84010107  1
  Cl  Cl488  1  0.07893638  0.61523058  0.88935896  1
  Cl  Cl489  1  0.43261676  0.76729680  0.87320778  1
  Cl  Cl490  1  0.39095738  0.31347353  0.92962397  1
  Cl  Cl491  1  0.47039101  0.06623397  0.83811453  1
  Cl  Cl492  1  0.41874631  0.61686558  0.88855223  1
  Cl  Cl493  1  0.81039048  0.06850390  0.83718281  1
  Cl  Cl494  1  0.76667026  0.61404134  0.89219215  1
  Cl  Cl495  1  0.75598455  0.60379644  0.96747889  1
  Cl  Cl496  1  0.78256736  0.19466870  0.01504123  1
  Cl  Cl497  1  0.61894653  0.43993947  0.98553126  1
  Cl  Cl498  1  0.44996006  0.59223023  0.95430061  1
  Cl  Cl499  1  0.99706926  0.68701009  0.95020358  1
  Cl  Cl500  1  0.72562354  0.84572144  0.98312763  1
  Cl  Cl501  1  0.70240293  0.00609785  0.96702468  1
  Cl  Cl502  1  0.03246623  0.00857310  0.96817955  1
  Cl  Cl503  1  0.39062250  0.00624783  0.96788662  1
  Cl  Cl504  1  0.04246433  0.15240754  0.95127700  1
  Cl  Cl505  1  0.36579885  0.85727644  0.98471230  1
  Cl  Cl506  1  0.39682514  0.15525152  0.94918510  1
  Cl  Cl507  1  0.72853032  0.14983245  0.94813678  1
