# generated using pymatgen
data_Li87Y25Cl162
_symmetry_space_group_name_H-M   'P 1'
_cell_length_a   11.17722800
_cell_length_b   23.17114807
_cell_length_c   56.89045509
_cell_angle_alpha   90.00000000
_cell_angle_beta   90.00000000
_cell_angle_gamma   61.15890919
_symmetry_Int_Tables_number   1
_chemical_formula_structural   Li87Y25Cl162
_chemical_formula_sum   'Li174 Y50 Cl324'
_cell_volume   12906.42074754
_cell_formula_units_Z   2
loop_
 _symmetry_equiv_pos_site_id
 _symmetry_equiv_pos_as_xyz
  1  'x, y, z'
loop_
 _atom_site_type_symbol
 _atom_site_label
 _atom_site_symmetry_multiplicity
 _atom_site_fract_x
 _atom_site_fract_y
 _atom_site_fract_z
 _atom_site_occupancy
  Li  Li0  1  0.73447601  0.92749755  0.09267014  1
  Li  Li1  1  0.72230055  0.44551073  0.05031492  1
  Li  Li2  1  0.39406988  0.93013061  0.09681090  1
  Li  Li3  1  0.31663462  0.48642562  0.04555050  1
  Li  Li4  1  0.69084518  0.26305701  0.03932917  1
  Li  Li5  1  0.71481490  0.61877508  0.05589557  1
  Li  Li6  1  0.08243977  0.13827714  0.01903947  1
  Li  Li7  1  0.02336261  0.62865772  0.05598505  1
  Li  Li8  1  0.01102917  0.25972642  0.07134651  1
  Li  Li9  1  0.91037223  0.91519726  0.98673287  1
  Li  Li10  1  0.70746297  0.14406750  0.06139481  1
  Li  Li11  1  0.43311330  0.70699409  0.02271168  1
  Li  Li12  1  0.34504764  0.97028763  0.04963365  1
  Li  Li13  1  0.41048062  0.42865629  0.10102568  1
  Li  Li14  1  0.32079731  0.23407036  0.05832175  1
  Li  Li15  1  0.96771772  0.03847527  0.03424875  1
  Li  Li16  1  0.99580638  0.31867439  0.02792850  1
  Li  Li17  1  0.03165219  0.77650817  0.07194613  1
  Li  Li18  1  0.82708577  0.83520555  0.19884247  1
  Li  Li19  1  0.78886622  0.37982267  0.14855132  1
  Li  Li20  1  0.49409127  0.83725941  0.19850975  1
  Li  Li21  1  0.45360027  0.37740967  0.14894714  1
  Li  Li22  1  0.75229906  0.07449207  0.11104676  1
  Li  Li23  1  0.80410524  0.53042236  0.16475736  1
  Li  Li24  1  0.13239564  0.03230086  0.16308863  1
  Li  Li25  1  0.09352461  0.57394839  0.12045469  1
  Li  Li26  1  0.13668277  0.18936921  0.18139714  1
  Li  Li27  1  0.05955394  0.74649013  0.13012316  1
  Li  Li28  1  0.79987603  0.02493980  0.16276822  1
  Li  Li29  1  0.74972074  0.57150886  0.11261306  1
  Li  Li30  1  0.45831328  0.88031500  0.14687418  1
  Li  Li31  1  0.50883728  0.33465964  0.19941317  1
  Li  Li32  1  0.48040588  0.18301630  0.17777963  1
  Li  Li33  1  0.42150012  0.73070631  0.12815997  1
  Li  Li34  1  0.09704940  0.23143498  0.12846247  1
  Li  Li35  1  0.14435638  0.68441626  0.18068968  1
  Li  Li36  1  0.91866463  0.74390178  0.30147429  1
  Li  Li37  1  0.87530726  0.28854820  0.25021607  1
  Li  Li38  1  0.58881241  0.74394489  0.30139110  1
  Li  Li39  1  0.54297923  0.29008402  0.25033811  1
  Li  Li40  1  0.84546890  0.98509823  0.21497592  1
  Li  Li41  1  0.89122494  0.43938434  0.26778363  1
  Li  Li42  1  0.22206961  0.94172232  0.26638277  1
  Li  Li43  1  0.18044072  0.48435734  0.21689680  1
  Li  Li44  1  0.22236127  0.10184275  0.28458559  1
  Li  Li45  1  0.17895024  0.64444644  0.23323150  1
  Li  Li46  1  0.88746308  0.93427426  0.26614014  1
  Li  Li47  1  0.84715775  0.48046188  0.21575690  1
  Li  Li48  1  0.55714374  0.78988118  0.24994574  1
  Li  Li49  1  0.59744982  0.24374985  0.30114977  1
  Li  Li50  1  0.56676512  0.09592274  0.28095826  1
  Li  Li51  1  0.52310436  0.63952946  0.23180451  1
  Li  Li52  1  0.18822846  0.13923433  0.23227878  1
  Li  Li53  1  0.23495467  0.59312015  0.28433528  1
  Li  Li54  1  0.01077503  0.65548449  0.40309338  1
  Li  Li55  1  0.96214803  0.20066251  0.35243189  1
  Li  Li56  1  0.67996208  0.65692888  0.40334055  1
  Li  Li57  1  0.62454360  0.20111679  0.35198454  1
  Li  Li58  1  0.93695242  0.89341432  0.31855011  1
  Li  Li59  1  0.97325891  0.35037400  0.37277422  1
  Li  Li60  1  0.30653657  0.85047281  0.36782815  1
  Li  Li61  1  0.26856635  0.39470394  0.31882813  1
  Li  Li62  1  0.29878531  0.01650486  0.38700188  1
  Li  Li63  1  0.27740095  0.55126922  0.33618202  1
  Li  Li64  1  0.97711337  0.83678022  0.36968044  1
  Li  Li65  1  0.93385808  0.38899066  0.31889421  1
  Li  Li66  1  0.64086034  0.70222331  0.35278638  1
  Li  Li67  1  0.69254282  0.14458085  0.40001873  1
  Li  Li68  1  0.64806053  0.00592212  0.37973304  1
  Li  Li69  1  0.61851860  0.54815700  0.33269300  1
  Li  Li70  1  0.27807508  0.04865361  0.33492953  1
  Li  Li71  1  0.32990791  0.50423291  0.38899814  1
  Li  Li72  1  0.05462749  0.11774058  0.45236837  1
  Li  Li73  1  0.72454825  0.09130438  0.45465958  1
  Li  Li74  1  0.00054306  0.80984130  0.42724353  1
  Li  Li75  1  0.95388509  0.25941599  0.48107799  1
  Li  Li76  1  0.46674672  0.53882781  0.46550288  1
  Li  Li77  1  0.13563403  0.35577234  0.44374874  1
  Li  Li78  1  0.39747777  0.93548241  0.48482395  1
  Li  Li79  1  0.34398315  0.44521967  0.43907443  1
  Li  Li80  1  0.26360812  0.71160776  0.46318723  1
  Li  Li81  1  0.96868993  0.28010806  0.42641045  1
  Li  Li82  1  0.70089145  0.60494411  0.45250623  1
  Li  Li83  1  0.70253597  0.95489171  0.44388426  1
  Li  Li84  1  0.75634636  0.45449860  0.43604088  1
  Li  Li85  1  0.36131640  0.96699148  0.43679154  1
  Li  Li86  1  0.42782286  0.36686843  0.48554601  1
  Li  Li87  1  0.91447757  0.39764731  0.59298280  1
  Li  Li88  1  0.93003357  0.87832426  0.55026105  1
  Li  Li89  1  0.25459578  0.39620668  0.59695623  1
  Li  Li90  1  0.33451276  0.83762792  0.54545051  1
  Li  Li91  1  0.96017207  0.06137058  0.53971201  1
  Li  Li92  1  0.93462107  0.70545324  0.55578143  1
  Li  Li93  1  0.56759783  0.18651802  0.51906481  1
  Li  Li94  1  0.62587939  0.69541954  0.55640354  1
  Li  Li95  1  0.64016259  0.06315327  0.57188481  1
  Li  Li96  1  0.73814511  0.41024991  0.48698117  1
  Li  Li97  1  0.94391807  0.18074090  0.56139285  1
  Li  Li98  1  0.21567268  0.61847747  0.52236677  1
  Li  Li99  1  0.30693830  0.35428683  0.55001095  1
  Li  Li100  1  0.24043640  0.89660779  0.60115133  1
  Li  Li101  1  0.33013048  0.09115357  0.55844778  1
  Li  Li102  1  0.68172710  0.28541797  0.53418037  1
  Li  Li103  1  0.65652833  0.00517506  0.52814975  1
  Li  Li104  1  0.61785474  0.54669049  0.57214609  1
  Li  Li105  1  0.82206628  0.48978741  0.69883630  1
  Li  Li106  1  0.86139976  0.94556419  0.64884908  1
  Li  Li107  1  0.15595947  0.48823911  0.69859162  1
  Li  Li108  1  0.19519864  0.94859644  0.64916174  1
  Li  Li109  1  0.89735488  0.25077601  0.61132000  1
  Li  Li110  1  0.84728576  0.79437649  0.66503937  1
  Li  Li111  1  0.51685888  0.29473528  0.66270136  1
  Li  Li112  1  0.55603759  0.75178191  0.62058355  1
  Li  Li113  1  0.51447337  0.13767764  0.68132590  1
  Li  Li114  1  0.58753294  0.57973859  0.62994674  1
  Li  Li115  1  0.85122685  0.29977524  0.66309577  1
  Li  Li116  1  0.90192295  0.75386621  0.61281427  1
  Li  Li117  1  0.18679693  0.44547788  0.64694809  1
  Li  Li118  1  0.14145588  0.99034612  0.69997968  1
  Li  Li119  1  0.17108385  0.14105011  0.67812753  1
  Li  Li120  1  0.22541010  0.59506868  0.62837675  1
  Li  Li121  1  0.55380802  0.09332940  0.62878895  1
  Li  Li122  1  0.50598028  0.63958445  0.68149647  1
  Li  Li123  1  0.73214408  0.58117512  0.80139031  1
  Li  Li124  1  0.77419099  0.03570187  0.75043471  1
  Li  Li125  1  0.06237559  0.58105037  0.80134079  1
  Li  Li126  1  0.10655219  0.03567958  0.75075827  1
  Li  Li127  1  0.80548111  0.33946554  0.71538707  1
  Li  Li128  1  0.75956349  0.88539042  0.76783172  1
  Li  Li129  1  0.42912322  0.38320399  0.76639393  1
  Li  Li130  1  0.46984988  0.84016436  0.71593228  1
  Li  Li131  1  0.42610952  0.22407119  0.78467584  1
  Li  Li132  1  0.47125561  0.68111206  0.73378751  1
  Li  Li133  1  0.76248557  0.39024166  0.76613240  1
  Li  Li134  1  0.80184835  0.84586762  0.71573114  1
  Li  Li135  1  0.09408932  0.53374286  0.74998158  1
  Li  Li136  1  0.05379505  0.08052179  0.80144831  1
  Li  Li137  1  0.08296906  0.22964758  0.78133977  1
  Li  Li138  1  0.12823955  0.68495175  0.73216604  1
  Li  Li139  1  0.46335084  0.18535515  0.73254463  1
  Li  Li140  1  0.41517108  0.73203826  0.78450320  1
  Li  Li141  1  0.64046623  0.66915520  0.90303071  1
  Li  Li142  1  0.68777416  0.12396708  0.85288551  1
  Li  Li143  1  0.97236390  0.66722358  0.90333383  1
  Li  Li144  1  0.02463032  0.12396019  0.85210659  1
  Li  Li145  1  0.71412703  0.43157569  0.81847867  1
  Li  Li146  1  0.67782632  0.97394319  0.87303043  1
  Li  Li147  1  0.34280527  0.47423430  0.86851928  1
  Li  Li148  1  0.38264959  0.93115633  0.81930611  1
  Li  Li149  1  0.34783265  0.30989172  0.88692550  1
  Li  Li150  1  0.37412931  0.77284462  0.83625589  1
  Li  Li151  1  0.67218603  0.48760745  0.86951623  1
  Li  Li152  1  0.71738072  0.93655881  0.81910396  1
  Li  Li153  1  0.00898175  0.62399297  0.85231060  1
  Li  Li154  1  0.95427831  0.18067109  0.90016892  1
  Li  Li155  1  0.00123425  0.31853656  0.87965300  1
  Li  Li156  1  0.03013038  0.77771440  0.83269193  1
  Li  Li157  1  0.37209038  0.27558167  0.83492844  1
  Li  Li158  1  0.32034225  0.82025316  0.88892924  1
  Li  Li159  1  0.59592800  0.20798999  0.95151659  1
  Li  Li160  1  0.92507128  0.23428441  0.95489239  1
  Li  Li161  1  0.64817126  0.51585071  0.92661658  1
  Li  Li162  1  0.69338096  0.06686833  0.98120745  1
  Li  Li163  1  0.18197791  0.78559279  0.96540328  1
  Li  Li164  1  0.51228390  0.96875759  0.94398545  1
  Li  Li165  1  0.25284738  0.38950015  0.98460016  1
  Li  Li166  1  0.30412908  0.87984805  0.93906483  1
  Li  Li167  1  0.38686455  0.61363224  0.96362555  1
  Li  Li168  1  0.67947165  0.04503956  0.92641159  1
  Li  Li169  1  0.94902962  0.71918187  0.95262893  1
  Li  Li170  1  0.94782352  0.36988685  0.94379034  1
  Li  Li171  1  0.89129796  0.87121771  0.93625727  1
  Li  Li172  1  0.28829085  0.35832605  0.93658917  1
  Li  Li173  1  0.22257098  0.95734643  0.98555157  1
  Y  Y174  1  0.70193750  0.77244111  0.07646375  1
  Y  Y175  1  0.37063072  0.61657471  0.06513637  1
  Y  Y176  1  0.07561323  0.92171490  0.09588595  1
  Y  Y177  1  0.02872997  0.46122071  0.04763424  1
  Y  Y178  1  0.77272459  0.22316158  0.13160710  1
  Y  Y179  1  0.80920938  0.68053099  0.18171766  1
  Y  Y180  1  0.41255634  0.07828081  0.11317553  1
  Y  Y181  1  0.46078103  0.53648148  0.16653977  1
  Y  Y182  1  0.16997092  0.83509583  0.19884364  1
  Y  Y183  1  0.12722450  0.37996361  0.14820084  1
  Y  Y184  1  0.85903911  0.13379019  0.23221312  1
  Y  Y185  1  0.90518040  0.58859560  0.28404901  1
  Y  Y186  1  0.50089292  0.99109715  0.21591466  1
  Y  Y187  1  0.54882749  0.44494781  0.26784013  1
  Y  Y188  1  0.26117056  0.74411693  0.30113180  1
  Y  Y189  1  0.21613506  0.29000407  0.25037329  1
  Y  Y190  1  0.94904601  0.04287734  0.33389163  1
  Y  Y191  1  0.99475735  0.50206351  0.38475864  1
  Y  Y192  1  0.58944066  0.89986951  0.31874115  1
  Y  Y193  1  0.63132261  0.35477114  0.37080852  1
  Y  Y194  1  0.34474706  0.65855614  0.40217510  1
  Y  Y195  1  0.30235691  0.20111326  0.35269861  1
  Y  Y196  1  0.04310941  0.95301604  0.43940495  1
  Y  Y197  1  0.66857326  0.81025463  0.42343439  1
  Y  Y198  1  0.37069773  0.12868352  0.45520490  1
  Y  Y199  1  0.94736759  0.55241867  0.57650276  1
  Y  Y200  1  0.27936113  0.70793586  0.56515328  1
  Y  Y201  1  0.57459613  0.40298804  0.59601155  1
  Y  Y202  1  0.62172729  0.86336031  0.54783429  1
  Y  Y203  1  0.87741034  0.10214024  0.63168366  1
  Y  Y204  1  0.84060533  0.64465960  0.68183190  1
  Y  Y205  1  0.23764305  0.24686993  0.61341171  1
  Y  Y206  1  0.18981850  0.78856102  0.66671859  1
  Y  Y207  1  0.48020972  0.48987262  0.69892251  1
  Y  Y208  1  0.52317690  0.94533368  0.64820356  1
  Y  Y209  1  0.79140535  0.19095779  0.73254152  1
  Y  Y210  1  0.74485789  0.73658022  0.78404896  1
  Y  Y211  1  0.14968217  0.33394205  0.71604642  1
  Y  Y212  1  0.10224076  0.88003292  0.76792914  1
  Y  Y213  1  0.38946582  0.58080506  0.80129420  1
  Y  Y214  1  0.43444624  0.03495816  0.75045821  1
  Y  Y215  1  0.69977872  0.28222341  0.83404777  1
  Y  Y216  1  0.65578457  0.82269732  0.88485154  1
  Y  Y217  1  0.06062217  0.42529914  0.81882692  1
  Y  Y218  1  0.01879671  0.96994470  0.87091651  1
  Y  Y219  1  0.30592815  0.66655059  0.90243996  1
  Y  Y220  1  0.34711279  0.12380520  0.85288204  1
  Y  Y221  1  0.60595749  0.37272466  0.93952871  1
  Y  Y222  1  0.98037857  0.51487974  0.92340964  1
  Y  Y223  1  0.27843361  0.19647019  0.95517707  1
  Cl  Cl224  1  0.88922230  0.43172955  0.01744661  1
  Cl  Cl225  1  0.93524810  0.89222876  0.06599285  1
  Cl  Cl226  1  0.58361609  0.89779941  0.06353453  1
  Cl  Cl227  1  0.61111940  0.05063445  0.08271329  1
  Cl  Cl228  1  0.56313391  0.58969734  0.03355839  1
  Cl  Cl229  1  0.28522953  0.20058007  0.09816193  1
  Cl  Cl230  1  0.25083270  0.73677504  0.05021748  1
  Cl  Cl231  1  0.25996802  0.41824740  0.02288785  1
  Cl  Cl232  1  0.27192771  0.89762473  0.06617770  1
  Cl  Cl233  1  0.64790666  0.19009779  0.10035106  1
  Cl  Cl234  1  0.58686205  0.73533803  0.04390801  1
  Cl  Cl235  1  0.96187197  0.20406279  0.10059890  1
  Cl  Cl236  1  0.90361315  0.74324012  0.04673359  1
  Cl  Cl237  1  0.93657322  0.04291696  0.07743174  1
  Cl  Cl238  1  0.91679149  0.58029567  0.03070053  1
  Cl  Cl239  1  0.28652238  0.04483291  0.08138638  1
  Cl  Cl240  1  0.23152772  0.59213467  0.03230342  1
  Cl  Cl241  1  0.11493708  0.34052721  0.06277808  1
  Cl  Cl242  1  0.83771827  0.00553515  0.01156103  1
  Cl  Cl243  1  0.18776518  0.01952551  0.01894524  1
  Cl  Cl244  1  0.51588407  0.23627753  0.04467355  1
  Cl  Cl245  1  0.51701014  0.64163200  0.09569891  1
  Cl  Cl246  1  0.15409440  0.20664317  0.03714745  1
  Cl  Cl247  1  0.15779399  0.64781715  0.09278990  1
  Cl  Cl248  1  0.86250133  0.15745538  0.03113689  1
  Cl  Cl249  1  0.83616715  0.64524993  0.08933810  1
  Cl  Cl250  1  0.16960420  0.49440838  0.07771983  1
  Cl  Cl251  1  0.79730945  0.32798709  0.04880017  1
  Cl  Cl252  1  0.85359827  0.80193633  0.10530520  1
  Cl  Cl253  1  0.81738576  0.49820539  0.07602160  1
  Cl  Cl254  1  0.49561043  0.48067791  0.07003911  1
  Cl  Cl255  1  0.97968864  0.35069786  0.12009681  1
  Cl  Cl256  1  0.02532889  0.80376313  0.16939719  1
  Cl  Cl257  1  0.63978432  0.35066982  0.11889358  1
  Cl  Cl258  1  0.68455442  0.80661472  0.16968185  1
  Cl  Cl259  1  0.70857792  0.95792052  0.18676667  1
  Cl  Cl260  1  0.66578480  0.50266427  0.13668440  1
  Cl  Cl261  1  0.37366352  0.11492851  0.20219158  1
  Cl  Cl262  1  0.32827211  0.65845188  0.15123491  1
  Cl  Cl263  1  0.32130195  0.35852804  0.11833792  1
  Cl  Cl264  1  0.36574699  0.80857881  0.16811787  1
  Cl  Cl265  1  0.72463296  0.10341546  0.20111951  1
  Cl  Cl266  1  0.68135957  0.64826078  0.14990934  1
  Cl  Cl267  1  0.05440115  0.11386140  0.20154706  1
  Cl  Cl268  1  0.00314285  0.66217536  0.14997756  1
  Cl  Cl269  1  0.03082522  0.95890000  0.18402392  1
  Cl  Cl270  1  0.98578562  0.50624714  0.13318773  1
  Cl  Cl271  1  0.37570199  0.95643148  0.18342552  1
  Cl  Cl272  1  0.33132644  0.50449669  0.13342237  1
  Cl  Cl273  1  0.24001047  0.25463020  0.16219808  1
  Cl  Cl274  1  0.18442154  0.79748288  0.11137772  1
  Cl  Cl275  1  0.57489519  0.25821420  0.16400007  1
  Cl  Cl276  1  0.52135811  0.80259078  0.11116738  1
  Cl  Cl277  1  0.56709534  0.09981571  0.14461862  1
  Cl  Cl278  1  0.61325185  0.55744430  0.19743511  1
  Cl  Cl279  1  0.21782202  0.11088107  0.14537495  1
  Cl  Cl280  1  0.26069269  0.56668398  0.19694668  1
  Cl  Cl281  1  0.89359262  0.09778120  0.14464774  1
  Cl  Cl282  1  0.93420283  0.55671653  0.19594173  1
  Cl  Cl283  1  0.21829369  0.95027243  0.12746411  1
  Cl  Cl284  1  0.26902708  0.40687720  0.17991790  1
  Cl  Cl285  1  0.91220763  0.25767321  0.16084686  1
  Cl  Cl286  1  0.95496855  0.71222882  0.21060299  1
  Cl  Cl287  1  0.86678214  0.95811115  0.12513237  1
  Cl  Cl288  1  0.92099363  0.41370140  0.17842010  1
  Cl  Cl289  1  0.54024349  0.95068978  0.12430409  1
  Cl  Cl290  1  0.58399072  0.40920417  0.17737714  1
  Cl  Cl291  1  0.07371646  0.25836361  0.22096167  1
  Cl  Cl292  1  0.11849337  0.71218858  0.27201397  1
  Cl  Cl293  1  0.73275412  0.26103662  0.22140738  1
  Cl  Cl294  1  0.77778639  0.71567849  0.27255041  1
  Cl  Cl295  1  0.79892231  0.86680111  0.28992669  1
  Cl  Cl296  1  0.75597865  0.41270624  0.23871500  1
  Cl  Cl297  1  0.46385120  0.02329155  0.30507101  1
  Cl  Cl298  1  0.41977423  0.56904446  0.25388326  1
  Cl  Cl299  1  0.41198588  0.26458797  0.22002283  1
  Cl  Cl300  1  0.45737776  0.71839513  0.27065137  1
  Cl  Cl301  1  0.81318790  0.01178810  0.30351707  1
  Cl  Cl302  1  0.76994094  0.55840577  0.25301087  1
  Cl  Cl303  1  0.14494556  0.02263984  0.30353902  1
  Cl  Cl304  1  0.10003438  0.56822554  0.25299280  1
  Cl  Cl305  1  0.12109308  0.86863277  0.28678542  1
  Cl  Cl306  1  0.07735263  0.41511378  0.23619398  1
  Cl  Cl307  1  0.46593560  0.86540391  0.28623962  1
  Cl  Cl308  1  0.42223517  0.41150471  0.23539822  1
  Cl  Cl309  1  0.32663462  0.16479142  0.26497400  1
  Cl  Cl310  1  0.28012886  0.71044210  0.21388701  1
  Cl  Cl311  1  0.66570744  0.16787880  0.26548007  1
  Cl  Cl312  1  0.61737306  0.71416241  0.21453209  1
  Cl  Cl313  1  0.65589114  0.01090814  0.24744909  1
  Cl  Cl314  1  0.70273933  0.46554154  0.29930644  1
  Cl  Cl315  1  0.30735223  0.02084103  0.24780746  1
  Cl  Cl316  1  0.35416356  0.47553412  0.29960399  1
  Cl  Cl317  1  0.97830964  0.00994436  0.24684780  1
  Cl  Cl318  1  0.02396214  0.46526240  0.29873717  1
  Cl  Cl319  1  0.31313080  0.86113832  0.23005420  1
  Cl  Cl320  1  0.35958852  0.31596981  0.28170988  1
  Cl  Cl321  1  0.00093908  0.16626419  0.26204437  1
  Cl  Cl322  1  0.04714908  0.62113074  0.31354162  1
  Cl  Cl323  1  0.96315809  0.86682500  0.22842326  1
  Cl  Cl324  1  0.01066239  0.32156757  0.28026684  1
  Cl  Cl325  1  0.62759243  0.86435561  0.22801730  1
  Cl  Cl326  1  0.67471596  0.31840620  0.27968597  1
  Cl  Cl327  1  0.16188635  0.16729816  0.32287921  1
  Cl  Cl328  1  0.20524794  0.62357867  0.37390073  1
  Cl  Cl329  1  0.81863709  0.17047450  0.32380792  1
  Cl  Cl330  1  0.86488829  0.63104868  0.37519835  1
  Cl  Cl331  1  0.87819434  0.77909014  0.39414053  1
  Cl  Cl332  1  0.83983287  0.32410931  0.34179525  1
  Cl  Cl333  1  0.55611615  0.93656450  0.40935094  1
  Cl  Cl334  1  0.50984761  0.47983328  0.35731099  1
  Cl  Cl335  1  0.49747569  0.17341583  0.32122300  1
  Cl  Cl336  1  0.54761893  0.63090502  0.37330011  1
  Cl  Cl337  1  0.89434039  0.92564592  0.40990839  1
  Cl  Cl338  1  0.85482654  0.47073728  0.35506173  1
  Cl  Cl339  1  0.22792549  0.93947137  0.40745190  1
  Cl  Cl340  1  0.19240287  0.47846487  0.35486736  1
  Cl  Cl341  1  0.20648110  0.78393436  0.38891567  1
  Cl  Cl342  1  0.16385766  0.32590479  0.33899503  1
  Cl  Cl343  1  0.54678429  0.77695495  0.38985413  1
  Cl  Cl344  1  0.50886761  0.32089953  0.33761019  1
  Cl  Cl345  1  0.41054931  0.07431553  0.36718663  1
  Cl  Cl346  1  0.37333115  0.61973305  0.31656897  1
  Cl  Cl347  1  0.75614524  0.07218724  0.36691105  1
  Cl  Cl348  1  0.71029777  0.62381323  0.31694897  1
  Cl  Cl349  1  0.74800924  0.91734858  0.35063507  1
  Cl  Cl350  1  0.78769140  0.37319848  0.40250974  1
  Cl  Cl351  1  0.39659289  0.93019252  0.35096229  1
  Cl  Cl352  1  0.44187131  0.38862238  0.40273196  1
  Cl  Cl353  1  0.06605130  0.92015590  0.34952193  1
  Cl  Cl354  1  0.09789277  0.38397143  0.40171560  1
  Cl  Cl355  1  0.40336006  0.77102963  0.33247189  1
  Cl  Cl356  1  0.45818054  0.21817113  0.38275378  1
  Cl  Cl357  1  0.08580882  0.07667043  0.36423626  1
  Cl  Cl358  1  0.13101599  0.53447636  0.41601084  1
  Cl  Cl359  1  0.05538346  0.77519700  0.33111912  1
  Cl  Cl360  1  0.09449810  0.23035342  0.38160001  1
  Cl  Cl361  1  0.71752847  0.77340195  0.33097536  1
  Cl  Cl362  1  0.75887143  0.22723231  0.38246035  1
  Cl  Cl363  1  0.24624863  0.08423114  0.42526894  1
  Cl  Cl364  1  0.89627365  0.08205533  0.42812734  1
  Cl  Cl365  1  0.88233266  0.22474960  0.44846573  1
  Cl  Cl366  1  0.52451864  0.42588674  0.46871156  1
  Cl  Cl367  1  0.58452641  0.08045284  0.42446982  1
  Cl  Cl368  1  0.92886502  0.36274119  0.45841382  1
  Cl  Cl369  1  0.23525868  0.40570606  0.46375753  1
  Cl  Cl370  1  0.29445703  0.62258259  0.48559978  1
  Cl  Cl371  1  0.23366561  0.24150693  0.43558862  1
  Cl  Cl372  1  0.68623193  0.52192229  0.47318482  1
  Cl  Cl373  1  0.49456931  0.00208290  0.47078125  1
  Cl  Cl374  1  0.45133484  0.53785710  0.42078641  1
  Cl  Cl375  1  0.84249524  0.98584411  0.47028373  1
  Cl  Cl376  1  0.79693456  0.53762221  0.41752961  1
  Cl  Cl377  1  0.81043649  0.83797003  0.45333104  1
  Cl  Cl378  1  0.47078170  0.85450411  0.45453738  1
  Cl  Cl379  1  0.14838707  0.83234183  0.45500736  1
  Cl  Cl380  1  0.47085896  0.68164950  0.43783473  1
  Cl  Cl381  1  0.53647065  0.16282479  0.47756616  1
  Cl  Cl382  1  0.16582759  0.99814082  0.46880487  1
  Cl  Cl383  1  0.13866652  0.69065521  0.43209842  1
  Cl  Cl384  1  0.17528520  0.15573455  0.48487593  1
  Cl  Cl385  1  0.78538872  0.68497457  0.43672099  1
  Cl  Cl386  1  0.76131881  0.89264387  0.51754041  1
  Cl  Cl387  1  0.71555330  0.43169861  0.56597763  1
  Cl  Cl388  1  0.06679461  0.42704697  0.56368239  1
  Cl  Cl389  1  0.03901224  0.27466587  0.58297253  1
  Cl  Cl390  1  0.08618816  0.73535152  0.53360488  1
  Cl  Cl391  1  0.36487224  0.12467736  0.59831464  1
  Cl  Cl392  1  0.39816491  0.58797829  0.55006712  1
  Cl  Cl393  1  0.39058124  0.90622088  0.52302285  1
  Cl  Cl394  1  0.37796801  0.42761281  0.56630452  1
  Cl  Cl395  1  0.00277280  0.13507770  0.60052311  1
  Cl  Cl396  1  0.06265059  0.58934134  0.54386819  1
  Cl  Cl397  1  0.68860139  0.12064648  0.60071646  1
  Cl  Cl398  1  0.74537013  0.58110170  0.54697072  1
  Cl  Cl399  1  0.71373202  0.28176897  0.57759334  1
  Cl  Cl400  1  0.73210364  0.74435175  0.53093191  1
  Cl  Cl401  1  0.36418590  0.28050788  0.58179884  1
  Cl  Cl402  1  0.41929765  0.73194159  0.53235764  1
  Cl  Cl403  1  0.53503450  0.98400516  0.56300518  1
  Cl  Cl404  1  0.81010230  0.31964339  0.51162300  1
  Cl  Cl405  1  0.46211880  0.30498541  0.51900243  1
  Cl  Cl406  1  0.13495056  0.08845327  0.54481238  1
  Cl  Cl407  1  0.13316821  0.68315095  0.59584726  1
  Cl  Cl408  1  0.49815522  0.11734729  0.53738419  1
  Cl  Cl409  1  0.49115478  0.67741123  0.59301581  1
  Cl  Cl410  1  0.78808313  0.16696053  0.53120739  1
  Cl  Cl411  1  0.81392047  0.67943764  0.58940285  1
  Cl  Cl412  1  0.47980201  0.83081656  0.57792415  1
  Cl  Cl413  1  0.85432911  0.99599517  0.54909279  1
  Cl  Cl414  1  0.79586642  0.52288802  0.60543083  1
  Cl  Cl415  1  0.83301783  0.82661191  0.57615407  1
  Cl  Cl416  1  0.15542245  0.84363008  0.57005319  1
  Cl  Cl417  1  0.67153690  0.97431841  0.62013660  1
  Cl  Cl418  1  0.62490532  0.52118454  0.66950276  1
  Cl  Cl419  1  0.01054153  0.97467171  0.61895916  1
  Cl  Cl420  1  0.96515187  0.51859804  0.66972295  1
  Cl  Cl421  1  0.94125037  0.36696745  0.68705577  1
  Cl  Cl422  1  0.98508209  0.82226967  0.63681610  1
  Cl  Cl423  1  0.27713321  0.21011988  0.70239791  1
  Cl  Cl424  1  0.32233659  0.66645322  0.65152311  1
  Cl  Cl425  1  0.32854216  0.96708766  0.61849214  1
  Cl  Cl426  1  0.28394714  0.51693759  0.66828278  1
  Cl  Cl427  1  0.92549326  0.22147160  0.70141237  1
  Cl  Cl428  1  0.96936140  0.67638187  0.64995794  1
  Cl  Cl429  1  0.59603006  0.21155739  0.70186448  1
  Cl  Cl430  1  0.64621961  0.66330573  0.65027000  1
  Cl  Cl431  1  0.61917455  0.36616130  0.68413528  1
  Cl  Cl432  1  0.66484795  0.81895912  0.63333055  1
  Cl  Cl433  1  0.27358784  0.36902682  0.68347511  1
  Cl  Cl434  1  0.31851432  0.82094837  0.63361067  1
  Cl  Cl435  1  0.41111507  0.07066140  0.66217749  1
  Cl  Cl436  1  0.46534496  0.52766474  0.61120507  1
  Cl  Cl437  1  0.07488075  0.06689985  0.66424525  1
  Cl  Cl438  1  0.12784760  0.52256394  0.61127607  1
  Cl  Cl439  1  0.08326010  0.22526427  0.64489368  1
  Cl  Cl440  1  0.03683734  0.76759335  0.69749371  1
  Cl  Cl441  1  0.43302303  0.21469468  0.64548015  1
  Cl  Cl442  1  0.38950191  0.75882872  0.69718907  1
  Cl  Cl443  1  0.75625261  0.22760151  0.64466934  1
  Cl  Cl444  1  0.71650125  0.76848046  0.69608714  1
  Cl  Cl445  1  0.43100956  0.37553542  0.62769275  1
  Cl  Cl446  1  0.38121819  0.91855179  0.67997315  1
  Cl  Cl447  1  0.73796102  0.06778271  0.66102068  1
  Cl  Cl448  1  0.69539951  0.61291679  0.71082050  1
  Cl  Cl449  1  0.78255535  0.36728787  0.62535184  1
  Cl  Cl450  1  0.72939929  0.91156248  0.67841592  1
  Cl  Cl451  1  0.10939310  0.37457819  0.62450069  1
  Cl  Cl452  1  0.06597191  0.91597700  0.67757209  1
  Cl  Cl453  1  0.57702032  0.06664977  0.72111791  1
  Cl  Cl454  1  0.53270022  0.61255724  0.77218287  1
  Cl  Cl455  1  0.91772986  0.06377670  0.72173120  1
  Cl  Cl456  1  0.87299379  0.60947409  0.77257394  1
  Cl  Cl457  1  0.85161302  0.45806394  0.78996761  1
  Cl  Cl458  1  0.89470957  0.91220045  0.73880222  1
  Cl  Cl459  1  0.18608032  0.30172809  0.80510472  1
  Cl  Cl460  1  0.23110580  0.75573608  0.75400878  1
  Cl  Cl461  1  0.23789661  0.06089624  0.72014925  1
  Cl  Cl462  1  0.19349711  0.60660655  0.77073448  1
  Cl  Cl463  1  0.83646945  0.31303604  0.80371700  1
  Cl  Cl464  1  0.88065717  0.76658245  0.75309771  1
  Cl  Cl465  1  0.50435526  0.30247602  0.80360626  1
  Cl  Cl466  1  0.54994607  0.75704334  0.75309124  1
  Cl  Cl467  1  0.52939936  0.45626107  0.78690268  1
  Cl  Cl468  1  0.57301314  0.90996375  0.73618770  1
  Cl  Cl469  1  0.18445901  0.45953657  0.78629818  1
  Cl  Cl470  1  0.22862244  0.91373714  0.73560821  1
  Cl  Cl471  1  0.32389286  0.16010284  0.76516291  1
  Cl  Cl472  1  0.37099440  0.61457097  0.71409537  1
  Cl  Cl473  1  0.98491212  0.15696814  0.76576326  1
  Cl  Cl474  1  0.03278282  0.61077851  0.71465753  1
  Cl  Cl475  1  0.99482754  0.31416791  0.74767467  1
  Cl  Cl476  1  0.94781377  0.85958020  0.79936991  1
  Cl  Cl477  1  0.34325603  0.30441778  0.74790574  1
  Cl  Cl478  1  0.29664430  0.84920104  0.79964242  1
  Cl  Cl479  1  0.67255965  0.31508381  0.74710973  1
  Cl  Cl480  1  0.62704626  0.85966933  0.79887009  1
  Cl  Cl481  1  0.33724944  0.46365275  0.73014102  1
  Cl  Cl482  1  0.29142584  0.00891475  0.78187350  1
  Cl  Cl483  1  0.64886085  0.15881946  0.76232275  1
  Cl  Cl484  1  0.60357988  0.70364692  0.81360200  1
  Cl  Cl485  1  0.68676423  0.45822411  0.72856914  1
  Cl  Cl486  1  0.64005702  0.00323464  0.78039205  1
  Cl  Cl487  1  0.02209087  0.46085654  0.72803158  1
  Cl  Cl488  1  0.97586592  0.00646317  0.77991729  1
  Cl  Cl489  1  0.48777015  0.15750978  0.82307666  1
  Cl  Cl490  1  0.44527986  0.70118062  0.87397161  1
  Cl  Cl491  1  0.83056008  0.15463865  0.82399303  1
  Cl  Cl492  1  0.78619431  0.69381633  0.87517666  1
  Cl  Cl493  1  0.77124066  0.54610360  0.89395586  1
  Cl  Cl494  1  0.80999647  0.00096517  0.84192786  1
  Cl  Cl495  1  0.09317350  0.38859479  0.90931763  1
  Cl  Cl496  1  0.14065175  0.84498724  0.85736055  1
  Cl  Cl497  1  0.15228345  0.15146473  0.82134712  1
  Cl  Cl498  1  0.10422956  0.69368130  0.87340736  1
  Cl  Cl499  1  0.75490152  0.39946688  0.90990905  1
  Cl  Cl500  1  0.79581162  0.85451752  0.85525823  1
  Cl  Cl501  1  0.42136278  0.38602634  0.90746388  1
  Cl  Cl502  1  0.45800522  0.84631512  0.85489994  1
  Cl  Cl503  1  0.44420505  0.54102473  0.88929380  1
  Cl  Cl504  1  0.48617528  0.99897162  0.83914497  1
  Cl  Cl505  1  0.10356381  0.54772286  0.88994665  1
  Cl  Cl506  1  0.14105456  0.00394831  0.83772954  1
  Cl  Cl507  1  0.23831558  0.25070457  0.86720410  1
  Cl  Cl508  1  0.27741928  0.70519906  0.81663940  1
  Cl  Cl509  1  0.89282572  0.25259654  0.86704221  1
  Cl  Cl510  1  0.94034773  0.70152811  0.81696964  1
  Cl  Cl511  1  0.90242920  0.40749689  0.85067914  1
  Cl  Cl512  1  0.86234198  0.95180349  0.90263512  1
  Cl  Cl513  1  0.25326239  0.39469646  0.85108271  1
  Cl  Cl514  1  0.20851419  0.93626639  0.90270838  1
  Cl  Cl515  1  0.58376772  0.40488406  0.84973250  1
  Cl  Cl516  1  0.55199389  0.94081805  0.90185271  1
  Cl  Cl517  1  0.24720620  0.55385392  0.83256478  1
  Cl  Cl518  1  0.19066086  0.10704983  0.88288548  1
  Cl  Cl519  1  0.56268470  0.24856239  0.86437037  1
  Cl  Cl520  1  0.51939561  0.79031035  0.91595750  1
  Cl  Cl521  1  0.59562187  0.54952127  0.83121928  1
  Cl  Cl522  1  0.55525198  0.09435713  0.88181463  1
  Cl  Cl523  1  0.93294750  0.55180555  0.83094962  1
  Cl  Cl524  1  0.89024942  0.09761841  0.88259770  1
  Cl  Cl525  1  0.40229268  0.24100064  0.92510082  1
  Cl  Cl526  1  0.75288689  0.24337736  0.92823744  1
  Cl  Cl527  1  0.76635039  0.10042282  0.94839689  1
  Cl  Cl528  1  0.12422502  0.89896811  0.96861769  1
  Cl  Cl529  1  0.06386518  0.24519358  0.92452465  1
  Cl  Cl530  1  0.71883226  0.96272712  0.95838590  1
  Cl  Cl531  1  0.41533465  0.91767062  0.96394327  1
  Cl  Cl532  1  0.35381484  0.70285513  0.98592150  1
  Cl  Cl533  1  0.41377928  0.08337748  0.93569331  1
  Cl  Cl534  1  0.96185429  0.80326073  0.97315884  1
  Cl  Cl535  1  0.15474356  0.32303076  0.97076674  1
  Cl  Cl536  1  0.19921514  0.78728824  0.92083873  1
  Cl  Cl537  1  0.80626276  0.33966329  0.97040489  1
  Cl  Cl538  1  0.85443793  0.78705433  0.91742553  1
  Cl  Cl539  1  0.83796910  0.48723063  0.95312084  1
  Cl  Cl540  1  0.17790499  0.47068599  0.95454997  1
  Cl  Cl541  1  0.50023988  0.49320968  0.95506315  1
  Cl  Cl542  1  0.17928035  0.64367938  0.93807480  1
  Cl  Cl543  1  0.11257563  0.16240316  0.97761648  1
  Cl  Cl544  1  0.48366021  0.32679710  0.96867327  1
  Cl  Cl545  1  0.51180773  0.63471250  0.93235573  1
  Cl  Cl546  1  0.47301354  0.16951225  0.98489519  1
  Cl  Cl547  1  0.86442116  0.64013394  0.93668222  1
