# generated using pymatgen
data_Li83Y25Cl158
_symmetry_space_group_name_H-M   'P 1'
_cell_length_a   11.17722800
_cell_length_b   23.17114807
_cell_length_c   55.60977223
_cell_angle_alpha   90.00000000
_cell_angle_beta   90.00000000
_cell_angle_gamma   61.15890919
_symmetry_Int_Tables_number   1
_chemical_formula_structural   Li83Y25Cl158
_chemical_formula_sum   'Li166 Y50 Cl316'
_cell_volume   12615.87936010
_cell_formula_units_Z   2
loop_
 _symmetry_equiv_pos_site_id
 _symmetry_equiv_pos_as_xyz
  1  'x, y, z'
loop_
 _atom_site_type_symbol
 _atom_site_label
 _atom_site_symmetry_multiplicity
 _atom_site_fract_x
 _atom_site_fract_y
 _atom_site_fract_z
 _atom_site_occupancy
  Li  Li0  1  0.73070026  0.92565907  0.09058921  1
  Li  Li1  1  0.69588486  0.46361518  0.04375650  1
  Li  Li2  1  0.39101954  0.92661754  0.09271254  1
  Li  Li3  1  0.58972739  0.32495267  0.02741568  1
  Li  Li4  1  0.74180996  0.07706014  0.10785300  1
  Li  Li5  1  0.70507248  0.61475812  0.04832406  1
  Li  Li6  1  0.18163690  0.10523021  0.03606536  1
  Li  Li7  1  0.03419352  0.61680133  0.05497060  1
  Li  Li8  1  0.97927975  0.27814122  0.06376192  1
  Li  Li9  1  0.10502674  0.71372257  0.01737766  1
  Li  Li10  1  0.69938141  0.10656544  0.05511049  1
  Li  Li11  1  0.73973724  0.57041158  0.10804243  1
  Li  Li12  1  0.37539163  0.95429184  0.04256459  1
  Li  Li13  1  0.41013495  0.41708741  0.08432862  1
  Li  Li14  1  0.33508384  0.28734446  0.08008303  1
  Li  Li15  1  0.37962755  0.77171050  0.07083417  1
  Li  Li16  1  0.95368445  0.31407944  0.01300878  1
  Li  Li17  1  0.04105993  0.77781888  0.07189670  1
  Li  Li18  1  0.81247682  0.83804646  0.19582213  1
  Li  Li19  1  0.76601317  0.38039805  0.14496775  1
  Li  Li20  1  0.48150265  0.83875474  0.19691650  1
  Li  Li21  1  0.43252098  0.38444062  0.14399749  1
  Li  Li22  1  0.82819300  0.98811361  0.21364250  1
  Li  Li23  1  0.77926278  0.53273767  0.16299663  1
  Li  Li24  1  0.11215771  0.03642906  0.16103729  1
  Li  Li25  1  0.08165979  0.56728715  0.11573342  1
  Li  Li26  1  0.11154132  0.19338988  0.17937191  1
  Li  Li27  1  0.07830558  0.73253435  0.12644142  1
  Li  Li28  1  0.78319136  0.02940606  0.16069716  1
  Li  Li29  1  0.82619510  0.48295541  0.21494575  1
  Li  Li30  1  0.44488532  0.88451824  0.14504224  1
  Li  Li31  1  0.49259912  0.33530622  0.19679781  1
  Li  Li32  1  0.46099454  0.18877177  0.17523070  1
  Li  Li33  1  0.42487874  0.72422829  0.13168874  1
  Li  Li34  1  0.07259670  0.23424871  0.12365125  1
  Li  Li35  1  0.12706558  0.68738071  0.17962044  1
  Li  Li36  1  0.90265107  0.74621860  0.30239870  1
  Li  Li37  1  0.85971277  0.29053534  0.25001710  1
  Li  Li38  1  0.57537203  0.74443728  0.30173425  1
  Li  Li39  1  0.52720764  0.29101163  0.25001391  1
  Li  Li40  1  0.91995505  0.89730199  0.31783539  1
  Li  Li41  1  0.87458757  0.44093544  0.26766399  1
  Li  Li42  1  0.20674647  0.94528220  0.26568299  1
  Li  Li43  1  0.16696325  0.48375681  0.21569107  1
  Li  Li44  1  0.21058345  0.10138521  0.28547732  1
  Li  Li45  1  0.16476153  0.64514787  0.23246360  1
  Li  Li46  1  0.87120122  0.93940903  0.26552140  1
  Li  Li47  1  0.92224142  0.38995301  0.31995973  1
  Li  Li48  1  0.54323395  0.79118100  0.24906350  1
  Li  Li49  1  0.58463846  0.24626524  0.30342031  1
  Li  Li50  1  0.55321126  0.09817336  0.28255035  1
  Li  Li51  1  0.50531562  0.64270471  0.23014232  1
  Li  Li52  1  0.17326389  0.14015147  0.23144013  1
  Li  Li53  1  0.21907047  0.59530473  0.28416222  1
  Li  Li54  1  0.98757788  0.66706914  0.40309889  1
  Li  Li55  1  0.95431339  0.20152031  0.35511264  1
  Li  Li56  1  0.66185061  0.65046728  0.41097467  1
  Li  Li57  1  0.61973623  0.19592135  0.35783255  1
  Li  Li58  1  0.99866038  0.80498122  0.42469799  1
  Li  Li59  1  0.96138804  0.34837366  0.37608633  1
  Li  Li60  1  0.29494798  0.85859889  0.36385742  1
  Li  Li61  1  0.25958457  0.39214491  0.32032241  1
  Li  Li62  1  0.28553483  0.02502015  0.39686983  1
  Li  Li63  1  0.25360439  0.55604086  0.33621533  1
  Li  Li64  1  0.96063878  0.85131169  0.37043556  1
  Li  Li65  1  0.96121047  0.31307602  0.43565073  1
  Li  Li66  1  0.62705295  0.69724648  0.35497879  1
  Li  Li67  1  0.72774421  0.22705298  0.42648523  1
  Li  Li68  1  0.64883470  0.01015583  0.37931773  1
  Li  Li69  1  0.59475578  0.55240973  0.33430568  1
  Li  Li70  1  0.26891870  0.04940234  0.33831660  1
  Li  Li71  1  0.31753752  0.50836066  0.38726748  1
  Li  Li72  1  0.02606017  0.11899790  0.45927186  1
  Li  Li73  1  0.65401878  0.14230699  0.46015201  1
  Li  Li74  1  0.89608741  0.27179003  0.48446836  1
  Li  Li75  1  0.34011681  0.80599663  0.42783614  1
  Li  Li76  1  0.35884259  0.26208534  0.42689519  1
  Li  Li77  1  0.35179125  0.46978938  0.43546691  1
  Li  Li78  1  0.95921326  0.85831451  0.48468669  1
  Li  Li79  1  0.92994335  0.58155129  0.44873061  1
  Li  Li80  1  0.65006495  0.96867536  0.45775720  1
  Li  Li81  1  0.89471134  0.46154629  0.46250868  1
  Li  Li82  1  0.34612055  0.96266784  0.45171351  1
  Li  Li83  1  0.31873572  0.35027826  0.59053982  1
  Li  Li84  1  0.35485361  0.81162644  0.54375742  1
  Li  Li85  1  0.65946596  0.34874236  0.59279798  1
  Li  Li86  1  0.46030757  0.94978487  0.52692448  1
  Li  Li87  1  0.31077375  0.19816715  0.60812846  1
  Li  Li88  1  0.34418018  0.66095430  0.54800268  1
  Li  Li89  1  0.86687839  0.17018212  0.53614415  1
  Li  Li90  1  0.01382949  0.65876266  0.55464422  1
  Li  Li91  1  0.07092395  0.99754910  0.56376021  1
  Li  Li92  1  0.94526466  0.56043614  0.51744704  1
  Li  Li93  1  0.35173806  0.16919843  0.55509794  1
  Li  Li94  1  0.31010329  0.70475942  0.60815053  1
  Li  Li95  1  0.67416604  0.32163528  0.54280938  1
  Li  Li96  1  0.63905924  0.85820673  0.58374263  1
  Li  Li97  1  0.71352303  0.98821583  0.58029945  1
  Li  Li98  1  0.66829831  0.50447209  0.57174110  1
  Li  Li99  1  0.09592974  0.96103647  0.51278543  1
  Li  Li100  1  0.01002536  0.49753797  0.57193270  1
  Li  Li101  1  0.23860720  0.43723229  0.69660658  1
  Li  Li102  1  0.28374093  0.89521041  0.64485301  1
  Li  Li103  1  0.56730974  0.43769628  0.69693325  1
  Li  Li104  1  0.61883195  0.88965799  0.64404885  1
  Li  Li105  1  0.22225824  0.28625804  0.71370531  1
  Li  Li106  1  0.27005336  0.74338008  0.66278918  1
  Li  Li107  1  0.93754263  0.23846735  0.66105914  1
  Li  Li108  1  0.97042672  0.70672467  0.61536318  1
  Li  Li109  1  0.93906550  0.08143335  0.67920628  1
  Li  Li110  1  0.97295723  0.54196894  0.62670738  1
  Li  Li111  1  0.26660242  0.24590829  0.66068311  1
  Li  Li112  1  0.22254182  0.79216794  0.71483315  1
  Li  Li113  1  0.60704721  0.39037494  0.64501761  1
  Li  Li114  1  0.55821838  0.93983167  0.69684488  1
  Li  Li115  1  0.58771918  0.08743301  0.67625852  1
  Li  Li116  1  0.62537276  0.55181590  0.63243987  1
  Li  Li117  1  0.97727603  0.04131164  0.62369732  1
  Li  Li118  1  0.92361433  0.58680977  0.67995787  1
  Li  Li119  1  0.14753892  0.52846992  0.80181469  1
  Li  Li120  1  0.19086760  0.98267350  0.75004903  1
  Li  Li121  1  0.47583492  0.53000650  0.80178227  1
  Li  Li122  1  0.52251611  0.98237623  0.75018990  1
  Li  Li123  1  0.12922327  0.37764216  0.81759122  1
  Li  Li124  1  0.17619746  0.83347954  0.76782030  1
  Li  Li125  1  0.84401920  0.32955319  0.76647666  1
  Li  Li126  1  0.88595141  0.78979046  0.71564435  1
  Li  Li127  1  0.84186466  0.17314251  0.78548671  1
  Li  Li128  1  0.88357436  0.62973351  0.73260296  1
  Li  Li129  1  0.17809241  0.33616881  0.76544492  1
  Li  Li130  1  0.12897370  0.88483827  0.81998044  1
  Li  Li131  1  0.50853983  0.48343263  0.74891033  1
  Li  Li132  1  0.46829639  0.02782246  0.80390388  1
  Li  Li133  1  0.49601934  0.17653261  0.78132877  1
  Li  Li134  1  0.54280253  0.63314640  0.73109495  1
  Li  Li135  1  0.87636941  0.13313561  0.73155256  1
  Li  Li136  1  0.83177754  0.68032054  0.78421625  1
  Li  Li137  1  0.06429290  0.60698777  0.90345065  1
  Li  Li138  1  0.09576481  0.07394005  0.85527366  1
  Li  Li139  1  0.38905839  0.62324798  0.91081396  1
  Li  Li140  1  0.42967634  0.08002588  0.85804225  1
  Li  Li141  1  0.05197239  0.46821083  0.92465311  1
  Li  Li142  1  0.08940951  0.92655235  0.87562278  1
  Li  Li143  1  0.75625172  0.41609505  0.86410891  1
  Li  Li144  1  0.79341634  0.88123787  0.82032928  1
  Li  Li145  1  0.75983836  0.25223028  0.89661727  1
  Li  Li146  1  0.79707651  0.71792763  0.83646069  1
  Li  Li147  1  0.08766893  0.42466984  0.87023016  1
  Li  Li148  1  0.09016980  0.96043941  0.93492888  1
  Li  Li149  1  0.42061082  0.57789966  0.85497166  1
  Li  Li150  1  0.32219798  0.04714728  0.92640820  1
  Li  Li151  1  0.40217554  0.26530038  0.87944397  1
  Li  Li152  1  0.45359582  0.72248184  0.83512097  1
  Li  Li153  1  0.78174884  0.22547593  0.83825971  1
  Li  Li154  1  0.73420024  0.76661490  0.88743131  1
  Li  Li155  1  0.02396393  0.15483141  0.95819047  1
  Li  Li156  1  0.39105726  0.13508177  0.95952982  1
  Li  Li157  1  0.15338726  0.00332341  0.98420499  1
  Li  Li158  1  0.70875045  0.46776064  0.92780277  1
  Li  Li159  1  0.68693462  0.01562921  0.92715190  1
  Li  Li160  1  0.69981292  0.80525188  0.93529534  1
  Li  Li161  1  0.08707714  0.41714233  0.98475426  1
  Li  Li162  1  0.12105537  0.69267409  0.94870178  1
  Li  Li163  1  0.39704221  0.30737656  0.95780928  1
  Li  Li164  1  0.15876001  0.81133431  0.96250195  1
  Li  Li165  1  0.70216007  0.31246894  0.95200516  1
  Y  Y166  1  0.71587843  0.76739385  0.07565527  1
  Y  Y167  1  0.39719484  0.08077216  0.10972530  1
  Y  Y168  1  0.37177349  0.61162239  0.05862527  1
  Y  Y169  1  0.05720291  0.93005029  0.09116412  1
  Y  Y170  1  0.04183242  0.46001665  0.04495866  1
  Y  Y171  1  0.75010241  0.22641853  0.12492929  1
  Y  Y172  1  0.79825967  0.68138999  0.17966891  1
  Y  Y173  1  0.48650090  0.99310731  0.21449700  1
  Y  Y174  1  0.44145416  0.53655922  0.16386838  1
  Y  Y175  1  0.15336360  0.83788200  0.19674228  1
  Y  Y176  1  0.10302013  0.38168533  0.14737052  1
  Y  Y177  1  0.84147775  0.13662060  0.23121168  1
  Y  Y178  1  0.88972104  0.58938087  0.28417470  1
  Y  Y179  1  0.57597957  0.90118394  0.31829244  1
  Y  Y180  1  0.53214132  0.44681207  0.26794428  1
  Y  Y181  1  0.24339100  0.74681750  0.30067965  1
  Y  Y182  1  0.20088852  0.29113468  0.24985143  1
  Y  Y183  1  0.93426352  0.04768400  0.33548471  1
  Y  Y184  1  0.98200397  0.49695761  0.38914138  1
  Y  Y185  1  0.65494556  0.81887581  0.42312813  1
  Y  Y186  1  0.62372799  0.36011328  0.37175084  1
  Y  Y187  1  0.32787575  0.65720911  0.40573018  1
  Y  Y188  1  0.28815431  0.20213183  0.35456483  1
  Y  Y189  1  0.99739266  0.96727178  0.43930614  1
  Y  Y190  1  0.32535007  0.12643760  0.47462354  1
  Y  Y191  1  0.33355450  0.50832902  0.57582292  1
  Y  Y192  1  0.65318726  0.19471085  0.60983247  1
  Y  Y193  1  0.67832246  0.66321487  0.55857874  1
  Y  Y194  1  0.99305105  0.34527240  0.59128155  1
  Y  Y195  1  0.00732583  0.81561837  0.54500006  1
  Y  Y196  1  0.30154813  0.04856776  0.62507713  1
  Y  Y197  1  0.25138577  0.59381603  0.67979397  1
  Y  Y198  1  0.56434059  0.28187104  0.71453461  1
  Y  Y199  1  0.60871849  0.73859345  0.66408393  1
  Y  Y200  1  0.89706794  0.43686739  0.69694699  1
  Y  Y201  1  0.94625705  0.89383015  0.64742844  1
  Y  Y202  1  0.20808219  0.13787687  0.73134109  1
  Y  Y203  1  0.16057288  0.68509416  0.78435168  1
  Y  Y204  1  0.47414938  0.37349262  0.81840887  1
  Y  Y205  1  0.51793628  0.82787982  0.76814492  1
  Y  Y206  1  0.80615061  0.52843127  0.80086063  1
  Y  Y207  1  0.84894908  0.98320801  0.75004178  1
  Y  Y208  1  0.11691915  0.22725994  0.83563940  1
  Y  Y209  1  0.06982016  0.77754719  0.88906446  1
  Y  Y210  1  0.39388305  0.45587354  0.92294068  1
  Y  Y211  1  0.42775736  0.91449609  0.87163383  1
  Y  Y212  1  0.72261379  0.61748740  0.90577977  1
  Y  Y213  1  0.76254831  0.07271044  0.85458414  1
  Y  Y214  1  0.04992332  0.30821480  0.93937763  1
  Y  Y215  1  0.72324436  0.14925102  0.97449269  1
  Cl  Cl216  1  0.90462064  0.43108710  0.01194236  1
  Cl  Cl217  1  0.92473091  0.89416089  0.06151173  1
  Cl  Cl218  1  0.59082639  0.89286046  0.06143428  1
  Cl  Cl219  1  0.60231084  0.04805945  0.07834878  1
  Cl  Cl220  1  0.56409374  0.58070448  0.02673364  1
  Cl  Cl221  1  0.27478438  0.20231795  0.09588811  1
  Cl  Cl222  1  0.24347576  0.73963317  0.04393029  1
  Cl  Cl223  1  0.22345948  0.43278764  0.01275468  1
  Cl  Cl224  1  0.26724504  0.89498805  0.06093208  1
  Cl  Cl225  1  0.62892042  0.18921553  0.09245995  1
  Cl  Cl226  1  0.57882526  0.73768564  0.04475267  1
  Cl  Cl227  1  0.93961294  0.21221415  0.09375648  1
  Cl  Cl228  1  0.91036645  0.74173780  0.04383573  1
  Cl  Cl229  1  0.92340118  0.04870595  0.07342922  1
  Cl  Cl230  1  0.91100089  0.58313416  0.02799751  1
  Cl  Cl231  1  0.28103529  0.04448563  0.07449364  1
  Cl  Cl232  1  0.21575723  0.60030482  0.02614146  1
  Cl  Cl233  1  0.11086029  0.34285278  0.06165680  1
  Cl  Cl234  1  0.18622872  0.80103144  0.10467097  1
  Cl  Cl235  1  0.45098665  0.33151726  0.05801486  1
  Cl  Cl236  1  0.51048868  0.80260055  0.10684300  1
  Cl  Cl237  1  0.49970292  0.65233726  0.08996173  1
  Cl  Cl238  1  0.10587358  0.21323367  0.03102321  1
  Cl  Cl239  1  0.15984656  0.65353816  0.08931790  1
  Cl  Cl240  1  0.84344594  0.64426203  0.08983259  1
  Cl  Cl241  1  0.30001793  0.01802016  0.00999112  1
  Cl  Cl242  1  0.15867383  0.50354961  0.07627070  1
  Cl  Cl243  1  0.76524581  0.34592766  0.03987699  1
  Cl  Cl244  1  0.85689541  0.80303767  0.10474424  1
  Cl  Cl245  1  0.81069042  0.50365747  0.07163739  1
  Cl  Cl246  1  0.49852046  0.48838966  0.07048165  1
  Cl  Cl247  1  0.95821167  0.35387012  0.11755494  1
  Cl  Cl248  1  0.01427138  0.80486348  0.16616652  1
  Cl  Cl249  1  0.61990296  0.35345190  0.11479202  1
  Cl  Cl250  1  0.67016544  0.80787264  0.16683166  1
  Cl  Cl251  1  0.69321549  0.96035857  0.18432137  1
  Cl  Cl252  1  0.64494895  0.50712745  0.13357683  1
  Cl  Cl253  1  0.35634870  0.11611433  0.20029518  1
  Cl  Cl254  1  0.31222812  0.66136090  0.14826486  1
  Cl  Cl255  1  0.29596626  0.35766684  0.11580552  1
  Cl  Cl256  1  0.35049887  0.81105674  0.16500870  1
  Cl  Cl257  1  0.70869986  0.10567538  0.19902050  1
  Cl  Cl258  1  0.66230183  0.65199320  0.14731000  1
  Cl  Cl259  1  0.03738715  0.11563992  0.19947986  1
  Cl  Cl260  1  0.99428015  0.66010263  0.14790413  1
  Cl  Cl261  1  0.01572468  0.96173831  0.18124561  1
  Cl  Cl262  1  0.96574852  0.50687537  0.13195964  1
  Cl  Cl263  1  0.36073737  0.95821590  0.18120594  1
  Cl  Cl264  1  0.31493877  0.50400453  0.13141329  1
  Cl  Cl265  1  0.21944368  0.25581253  0.16086639  1
  Cl  Cl266  1  0.26351736  0.71338532  0.21231490  1
  Cl  Cl267  1  0.55824901  0.25931377  0.15963645  1
  Cl  Cl268  1  0.60221062  0.71638462  0.21275045  1
  Cl  Cl269  1  0.55224423  0.10170706  0.14117042  1
  Cl  Cl270  1  0.59285518  0.56014605  0.19569395  1
  Cl  Cl271  1  0.19990285  0.11120734  0.14121189  1
  Cl  Cl272  1  0.24380419  0.56931790  0.19575840  1
  Cl  Cl273  1  0.87389633  0.10127192  0.13996277  1
  Cl  Cl274  1  0.91480995  0.55855603  0.19458310  1
  Cl  Cl275  1  0.20785484  0.95312139  0.12309452  1
  Cl  Cl276  1  0.25265401  0.40796914  0.17823999  1
  Cl  Cl277  1  0.89277488  0.25591532  0.15634674  1
  Cl  Cl278  1  0.93854772  0.71554590  0.20937909  1
  Cl  Cl279  1  0.85716941  0.95891612  0.12195669  1
  Cl  Cl280  1  0.89616165  0.41518801  0.17747920  1
  Cl  Cl281  1  0.52581450  0.95271245  0.12115888  1
  Cl  Cl282  1  0.56870707  0.40985606  0.17513930  1
  Cl  Cl283  1  0.05715380  0.25960560  0.21989884  1
  Cl  Cl284  1  0.10002939  0.71425810  0.27143880  1
  Cl  Cl285  1  0.71575849  0.26328448  0.21999229  1
  Cl  Cl286  1  0.76237552  0.71652956  0.27234444  1
  Cl  Cl287  1  0.78474492  0.86887694  0.28885038  1
  Cl  Cl288  1  0.73929983  0.41449654  0.23810422  1
  Cl  Cl289  1  0.45076314  0.02607177  0.30579041  1
  Cl  Cl290  1  0.40272197  0.57085050  0.25337103  1
  Cl  Cl291  1  0.39673202  0.26551918  0.21860995  1
  Cl  Cl292  1  0.44209205  0.71976873  0.26989003  1
  Cl  Cl293  1  0.80161508  0.01540568  0.30351137  1
  Cl  Cl294  1  0.75296512  0.55990801  0.25261609  1
  Cl  Cl295  1  0.13380031  0.02408620  0.30436117  1
  Cl  Cl296  1  0.08357338  0.56962744  0.25245079  1
  Cl  Cl297  1  0.10624226  0.87123267  0.28595363  1
  Cl  Cl298  1  0.06124477  0.41629802  0.23538684  1
  Cl  Cl299  1  0.45050591  0.86672774  0.28559435  1
  Cl  Cl300  1  0.40667938  0.41272393  0.23471435  1
  Cl  Cl301  1  0.31197804  0.16625849  0.26500442  1
  Cl  Cl302  1  0.35458759  0.62278772  0.31665557  1
  Cl  Cl303  1  0.65071882  0.16987921  0.26547440  1
  Cl  Cl304  1  0.69505609  0.62447334  0.31802295  1
  Cl  Cl305  1  0.64055555  0.01367640  0.24655167  1
  Cl  Cl306  1  0.68659434  0.46756042  0.30003649  1
  Cl  Cl307  1  0.29294041  0.02209644  0.24707819  1
  Cl  Cl308  1  0.33503251  0.47764781  0.29999208  1
  Cl  Cl309  1  0.96374677  0.01202535  0.24554213  1
  Cl  Cl310  1  0.00762746  0.46658938  0.29960348  1
  Cl  Cl311  1  0.29858783  0.86319501  0.22831618  1
  Cl  Cl312  1  0.34411338  0.31680107  0.28198820  1
  Cl  Cl313  1  0.98603596  0.16729944  0.26158397  1
  Cl  Cl314  1  0.02996703  0.62334311  0.31433979  1
  Cl  Cl315  1  0.94703581  0.86975889  0.22668711  1
  Cl  Cl316  1  0.99520513  0.32286200  0.28039389  1
  Cl  Cl317  1  0.61369819  0.86602905  0.22646766  1
  Cl  Cl318  1  0.65872116  0.32023091  0.27991218  1
  Cl  Cl319  1  0.14988208  0.16772382  0.32437281  1
  Cl  Cl320  1  0.18678917  0.62546233  0.37467791  1
  Cl  Cl321  1  0.80809514  0.17432851  0.32528621  1
  Cl  Cl322  1  0.84821819  0.62655208  0.37914151  1
  Cl  Cl323  1  0.86227989  0.78608538  0.39231141  1
  Cl  Cl324  1  0.83257151  0.32422614  0.34218432  1
  Cl  Cl325  1  0.52635054  0.94726412  0.41583672  1
  Cl  Cl326  1  0.49322364  0.48391679  0.35674532  1
  Cl  Cl327  1  0.48777204  0.17509241  0.32352526  1
  Cl  Cl328  1  0.53342945  0.62958735  0.37557524  1
  Cl  Cl329  1  0.86203533  0.93833507  0.40720029  1
  Cl  Cl330  1  0.84296964  0.46960329  0.35844177  1
  Cl  Cl331  1  0.20635383  0.94162931  0.41075384  1
  Cl  Cl332  1  0.17533490  0.48001815  0.35831898  1
  Cl  Cl333  1  0.19415228  0.78462444  0.39141282  1
  Cl  Cl334  1  0.15200773  0.32750000  0.34073112  1
  Cl  Cl335  1  0.51947613  0.78522031  0.39180662  1
  Cl  Cl336  1  0.49476568  0.32344872  0.33960871  1
  Cl  Cl337  1  0.40035561  0.07615934  0.37127070  1
  Cl  Cl338  1  0.43912249  0.53560430  0.42173233  1
  Cl  Cl339  1  0.74544627  0.07826517  0.36856580  1
  Cl  Cl340  1  0.80518812  0.53511326  0.42670430  1
  Cl  Cl341  1  0.73208173  0.92259311  0.34998819  1
  Cl  Cl342  1  0.77508846  0.37531179  0.40417547  1
  Cl  Cl343  1  0.38832397  0.93089424  0.35187576  1
  Cl  Cl344  1  0.42921750  0.39185497  0.40461055  1
  Cl  Cl345  1  0.05437594  0.92218531  0.35017136  1
  Cl  Cl346  1  0.08877340  0.37942885  0.40813896  1
  Cl  Cl347  1  0.38958873  0.77108672  0.33296687  1
  Cl  Cl348  1  0.43032574  0.22387382  0.38702392  1
  Cl  Cl349  1  0.07734069  0.07727859  0.36707425  1
  Cl  Cl350  1  0.12126126  0.53382169  0.42080180  1
  Cl  Cl351  1  0.03911896  0.77956186  0.33161162  1
  Cl  Cl352  1  0.08763072  0.23022354  0.38479997  1
  Cl  Cl353  1  0.70193571  0.77526480  0.33186839  1
  Cl  Cl354  1  0.74509286  0.23344514  0.38447874  1
  Cl  Cl355  1  0.23274618  0.08145425  0.43699995  1
  Cl  Cl356  1  0.85741187  0.09758708  0.43625609  1
  Cl  Cl357  1  0.90380944  0.23058259  0.44538858  1
  Cl  Cl358  1  0.54253176  0.08712925  0.44646966  1
  Cl  Cl359  1  0.00386515  0.51223525  0.48061040  1
  Cl  Cl360  1  0.87665219  0.37289753  0.47172827  1
  Cl  Cl361  1  0.21884517  0.24168475  0.45337745  1
  Cl  Cl362  1  0.54124067  0.25081388  0.44983357  1
  Cl  Cl363  1  0.45723762  0.99272298  0.48548128  1
  Cl  Cl364  1  0.83854140  0.97586819  0.47590201  1
  Cl  Cl365  1  0.80277663  0.84464801  0.45299289  1
  Cl  Cl366  1  0.46513275  0.84156482  0.45474054  1
  Cl  Cl367  1  0.12658604  0.84033331  0.45044879  1
  Cl  Cl368  1  0.46131976  0.68875807  0.43670981  1
  Cl  Cl369  1  0.42256949  0.14841205  0.51381518  1
  Cl  Cl370  1  0.13721161  0.99009728  0.47321469  1
  Cl  Cl371  1  0.11923200  0.68891854  0.43438704  1
  Cl  Cl372  1  0.09760726  0.15255695  0.49590886  1
  Cl  Cl373  1  0.79069739  0.69253786  0.43676534  1
  Cl  Cl374  1  0.14296094  0.84453540  0.51175845  1
  Cl  Cl375  1  0.12507066  0.38135561  0.56159094  1
  Cl  Cl376  1  0.45877468  0.38291067  0.56154994  1
  Cl  Cl377  1  0.44844182  0.22752586  0.57839300  1
  Cl  Cl378  1  0.48589693  0.69459996  0.52663563  1
  Cl  Cl379  1  0.77617612  0.07323919  0.59587663  1
  Cl  Cl380  1  0.80666829  0.53520484  0.54413079  1
  Cl  Cl381  1  0.82443911  0.84262892  0.51299855  1
  Cl  Cl382  1  0.78268533  0.38059323  0.56113688  1
  Cl  Cl383  1  0.42270130  0.08621470  0.59272316  1
  Cl  Cl384  1  0.47079755  0.53809295  0.54503542  1
  Cl  Cl385  1  0.11226589  0.06265935  0.59383209  1
  Cl  Cl386  1  0.13977205  0.53346122  0.54387929  1
  Cl  Cl387  1  0.12778422  0.22676526  0.57350294  1
  Cl  Cl388  1  0.13771665  0.69237029  0.52799596  1
  Cl  Cl389  1  0.76986572  0.23103904  0.57467934  1
  Cl  Cl390  1  0.83367804  0.67429802  0.52584731  1
  Cl  Cl391  1  0.93805955  0.93259200  0.56181530  1
  Cl  Cl392  1  0.86394489  0.47429215  0.60489392  1
  Cl  Cl393  1  0.59623479  0.94481819  0.55790610  1
  Cl  Cl394  1  0.53922363  0.47292540  0.60694295  1
  Cl  Cl395  1  0.55039386  0.62306663  0.59012813  1
  Cl  Cl396  1  0.94360206  0.06203189  0.53100895  1
  Cl  Cl397  1  0.89022354  0.62189658  0.58923980  1
  Cl  Cl398  1  0.20522992  0.63141966  0.59005864  1
  Cl  Cl399  1  0.74831830  0.25768164  0.51021577  1
  Cl  Cl400  1  0.88990289  0.77208362  0.57622653  1
  Cl  Cl401  1  0.28452352  0.92901582  0.53960240  1
  Cl  Cl402  1  0.19296881  0.47222599  0.60485611  1
  Cl  Cl403  1  0.23927835  0.77153071  0.57154440  1
  Cl  Cl404  1  0.55104922  0.78650599  0.57051924  1
  Cl  Cl405  1  0.09126206  0.92164066  0.61764316  1
  Cl  Cl406  1  0.03650240  0.46971337  0.66638729  1
  Cl  Cl407  1  0.43113423  0.92150101  0.61484483  1
  Cl  Cl408  1  0.37969328  0.46750087  0.66694582  1
  Cl  Cl409  1  0.35684459  0.31455002  0.68455264  1
  Cl  Cl410  1  0.40563437  0.76802553  0.63363228  1
  Cl  Cl411  1  0.69299717  0.15868564  0.70035888  1
  Cl  Cl412  1  0.73821017  0.61370564  0.64850172  1
  Cl  Cl413  1  0.75352698  0.91774715  0.61587568  1
  Cl  Cl414  1  0.69959819  0.46412365  0.66519151  1
  Cl  Cl415  1  0.34111439  0.16889230  0.69914732  1
  Cl  Cl416  1  0.38715426  0.62345637  0.64745357  1
  Cl  Cl417  1  0.01202681  0.15900201  0.69962308  1
  Cl  Cl418  1  0.05599396  0.61449855  0.64806383  1
  Cl  Cl419  1  0.03434646  0.31294192  0.68142772  1
  Cl  Cl420  1  0.08403506  0.76861273  0.63188787  1
  Cl  Cl421  1  0.68939287  0.31698346  0.68127912  1
  Cl  Cl422  1  0.73690187  0.77033644  0.63169313  1
  Cl  Cl423  1  0.83015327  0.01961088  0.66094188  1
  Cl  Cl424  1  0.78625856  0.56141728  0.71239451  1
  Cl  Cl425  1  0.49224258  0.01594657  0.65989085  1
  Cl  Cl426  1  0.44777431  0.55872769  0.71283647  1
  Cl  Cl427  1  0.49830259  0.17398462  0.64134217  1
  Cl  Cl428  1  0.45688243  0.71500279  0.69578546  1
  Cl  Cl429  1  0.85089878  0.16382915  0.64129686  1
  Cl  Cl430  1  0.80658420  0.70543507  0.69602813  1
  Cl  Cl431  1  0.17703944  0.17380160  0.64010299  1
  Cl  Cl432  1  0.13484053  0.71674872  0.69474733  1
  Cl  Cl433  1  0.84215758  0.32230958  0.62325481  1
  Cl  Cl434  1  0.79790188  0.86700612  0.67843193  1
  Cl  Cl435  1  0.15837981  0.01901113  0.65641181  1
  Cl  Cl436  1  0.11187618  0.55939830  0.70962575  1
  Cl  Cl437  1  0.19314286  0.31648735  0.62206256  1
  Cl  Cl438  1  0.15356285  0.86009333  0.67749907  1
  Cl  Cl439  1  0.52455566  0.32273887  0.62123327  1
  Cl  Cl440  1  0.48155039  0.86532751  0.67518543  1
  Cl  Cl441  1  0.99288481  0.01439387  0.72000403  1
  Cl  Cl442  1  0.94932148  0.56066830  0.77142070  1
  Cl  Cl443  1  0.33413076  0.01123021  0.72009080  1
  Cl  Cl444  1  0.28805498  0.55821266  0.77232119  1
  Cl  Cl445  1  0.26535728  0.40615859  0.78885136  1
  Cl  Cl446  1  0.31085536  0.85994018  0.73825553  1
  Cl  Cl447  1  0.60056539  0.24883062  0.80587370  1
  Cl  Cl448  1  0.64696531  0.70385767  0.75350797  1
  Cl  Cl449  1  0.65277273  0.00936949  0.71881423  1
  Cl  Cl450  1  0.60784407  0.55505477  0.76994254  1
  Cl  Cl451  1  0.24887132  0.25970574  0.80362215  1
  Cl  Cl452  1  0.29728489  0.71466529  0.75278104  1
  Cl  Cl453  1  0.91775893  0.25066868  0.80438969  1
  Cl  Cl454  1  0.96686683  0.70498261  0.75256172  1
  Cl  Cl455  1  0.94350944  0.40387237  0.78598420  1
  Cl  Cl456  1  0.98866306  0.85807076  0.73563886  1
  Cl  Cl457  1  0.59964500  0.40790984  0.78566296  1
  Cl  Cl458  1  0.64325373  0.86188469  0.73492493  1
  Cl  Cl459  1  0.73866814  0.10823738  0.76508617  1
  Cl  Cl460  1  0.69520016  0.65223063  0.81673765  1
  Cl  Cl461  1  0.39920117  0.10459690  0.76554947  1
  Cl  Cl462  1  0.35557443  0.65010195  0.81804997  1
  Cl  Cl463  1  0.40978647  0.26119355  0.74659487  1
  Cl  Cl464  1  0.36375748  0.80703033  0.80016968  1
  Cl  Cl465  1  0.75738096  0.25237629  0.74715766  1
  Cl  Cl466  1  0.71539517  0.79685690  0.80013393  1
  Cl  Cl467  1  0.08717271  0.26246731  0.74572408  1
  Cl  Cl468  1  0.04217788  0.80787982  0.79980366  1
  Cl  Cl469  1  0.75167274  0.41157828  0.72848077  1
  Cl  Cl470  1  0.70575167  0.95771924  0.78220637  1
  Cl  Cl471  1  0.06392216  0.10681058  0.76164748  1
  Cl  Cl472  1  0.02029434  0.65096243  0.81441746  1
  Cl  Cl473  1  0.10349599  0.40506829  0.72688042  1
  Cl  Cl474  1  0.05473980  0.95155034  0.78058765  1
  Cl  Cl475  1  0.43629292  0.40892547  0.72661603  1
  Cl  Cl476  1  0.39115254  0.95426828  0.78016744  1
  Cl  Cl477  1  0.90102756  0.10718774  0.82446689  1
  Cl  Cl478  1  0.86453832  0.64895601  0.87482755  1
  Cl  Cl479  1  0.24319314  0.10055436  0.82553478  1
  Cl  Cl480  1  0.20205123  0.64796945  0.87899934  1
  Cl  Cl481  1  0.18724472  0.48866548  0.89214467  1
  Cl  Cl482  1  0.21845471  0.95065212  0.84212300  1
  Cl  Cl483  1  0.52124764  0.32778507  0.91540529  1
  Cl  Cl484  1  0.55818869  0.79047401  0.85692638  1
  Cl  Cl485  1  0.56274424  0.09962824  0.82369752  1
  Cl  Cl486  1  0.51658047  0.64545600  0.87557348  1
  Cl  Cl487  1  0.18476883  0.33760337  0.90735753  1
  Cl  Cl488  1  0.20855369  0.80457086  0.85809590  1
  Cl  Cl489  1  0.84038239  0.33500574  0.91071326  1
  Cl  Cl490  1  0.87566135  0.79460434  0.85842163  1
  Cl  Cl491  1  0.85514138  0.49016007  0.89130543  1
  Cl  Cl492  1  0.89936577  0.94726582  0.84081334  1
  Cl  Cl493  1  0.52886556  0.49024163  0.89182099  1
  Cl  Cl494  1  0.55776513  0.95063332  0.83966713  1
  Cl  Cl495  1  0.65011032  0.19862183  0.87126795  1
  Cl  Cl496  1  0.61281876  0.73904247  0.92185367  1
  Cl  Cl497  1  0.30494269  0.19719461  0.86884777  1
  Cl  Cl498  1  0.24678416  0.73872663  0.92661124  1
  Cl  Cl499  1  0.31767277  0.35250041  0.85005625  1
  Cl  Cl500  1  0.27682303  0.89859218  0.90387182  1
  Cl  Cl501  1  0.66150984  0.34396983  0.85210464  1
  Cl  Cl502  1  0.62179488  0.88332913  0.90462446  1
  Cl  Cl503  1  0.99579564  0.35288338  0.85011944  1
  Cl  Cl504  1  0.96440303  0.89502188  0.90784058  1
  Cl  Cl505  1  0.66076851  0.50352678  0.83305363  1
  Cl  Cl506  1  0.62001973  0.05129395  0.88710619  1
  Cl  Cl507  1  0.97269607  0.19826906  0.86715024  1
  Cl  Cl508  1  0.93003750  0.74106612  0.92078561  1
  Cl  Cl509  1  0.01099243  0.49546830  0.83155921  1
  Cl  Cl510  1  0.96345734  0.04463941  0.88477931  1
  Cl  Cl511  1  0.34838922  0.49950890  0.83181278  1
  Cl  Cl512  1  0.30584120  0.04119962  0.88446123  1
  Cl  Cl513  1  0.81488194  0.19453666  0.93675656  1
  Cl  Cl514  1  0.18909349  0.17800426  0.93562953  1
  Cl  Cl515  1  0.14535527  0.04361378  0.94489560  1
  Cl  Cl516  1  0.50561613  0.18896188  0.94629375  1
  Cl  Cl517  1  0.04728374  0.76189842  0.98057736  1
  Cl  Cl518  1  0.17286946  0.90159747  0.97127280  1
  Cl  Cl519  1  0.82968874  0.03406644  0.95327986  1
  Cl  Cl520  1  0.50548121  0.02592475  0.95006124  1
  Cl  Cl521  1  0.59090760  0.28283992  0.98552496  1
  Cl  Cl522  1  0.20968709  0.29901831  0.97591805  1
  Cl  Cl523  1  0.24633742  0.43027168  0.95295587  1
  Cl  Cl524  1  0.58271125  0.43337497  0.95473059  1
  Cl  Cl525  1  0.92127338  0.43494320  0.95062819  1
  Cl  Cl526  1  0.58906499  0.58566441  0.93663016  1
  Cl  Cl527  1  0.62804362  0.12747339  0.01394924  1
  Cl  Cl528  1  0.91067494  0.28557592  0.97330851  1
  Cl  Cl529  1  0.93160525  0.58497485  0.93441555  1
  Cl  Cl530  1  0.95207593  0.12297949  0.99530425  1
  Cl  Cl531  1  0.25867706  0.58204323  0.93669248  1
