# generated using pymatgen
data_Li29Y9Cl56
_symmetry_space_group_name_H-M   'P 1'
_cell_length_a   11.17722800
_cell_length_b   23.17114807
_cell_length_c   57.51197560
_cell_angle_alpha   90.00000000
_cell_angle_beta   90.00000000
_cell_angle_gamma   61.15890919
_symmetry_Int_Tables_number   1
_chemical_formula_structural   Li29Y9Cl56
_chemical_formula_sum   'Li174 Y54 Cl336'
_cell_volume   13047.42164602
_cell_formula_units_Z   6
loop_
 _symmetry_equiv_pos_site_id
 _symmetry_equiv_pos_as_xyz
  1  'x, y, z'
loop_
 _atom_site_type_symbol
 _atom_site_label
 _atom_site_symmetry_multiplicity
 _atom_site_fract_x
 _atom_site_fract_y
 _atom_site_fract_z
 _atom_site_occupancy
  Li  Li0  1  0.76121748  0.90375220  0.10185619  1
  Li  Li1  1  0.71482471  0.44724939  0.04976576  1
  Li  Li2  1  0.42115756  0.91107201  0.09657612  1
  Li  Li3  1  0.39126755  0.45157167  0.04089794  1
  Li  Li4  1  0.72669278  0.14135161  0.01467422  1
  Li  Li5  1  0.75244926  0.60339982  0.05367942  1
  Li  Li6  1  0.05700797  0.12079247  0.06693332  1
  Li  Li7  1  0.06841589  0.59809138  0.06076527  1
  Li  Li8  1  0.10697015  0.25320746  0.06930690  1
  Li  Li9  1  0.14144397  0.69751791  0.02465079  1
  Li  Li10  1  0.82014334  0.00137626  0.05744098  1
  Li  Li11  1  0.81126282  0.53116948  0.97525010  1
  Li  Li12  1  0.48455487  0.99816262  0.05975527  1
  Li  Li13  1  0.44086405  0.41044020  0.09558384  1
  Li  Li14  1  0.40754363  0.26702937  0.08565644  1
  Li  Li15  1  0.37114262  0.89785106  0.02504515  1
  Li  Li16  1  0.14559619  0.20966692  0.00958690  1
  Li  Li17  1  0.06999133  0.76042628  0.08049379  1
  Li  Li18  1  0.84540013  0.82315399  0.19995358  1
  Li  Li19  1  0.80416178  0.36769450  0.14790372  1
  Li  Li20  1  0.51436742  0.82276282  0.19997375  1
  Li  Li21  1  0.47085064  0.36870021  0.14859566  1
  Li  Li22  1  0.77709201  0.06625541  0.11207795  1
  Li  Li23  1  0.81698965  0.52015782  0.16503177  1
  Li  Li24  1  0.14862936  0.01833035  0.16821374  1
  Li  Li25  1  0.10890949  0.56235400  0.12277198  1
  Li  Li26  1  0.14479172  0.18100685  0.18247780  1
  Li  Li27  1  0.10481798  0.72388259  0.13365819  1
  Li  Li28  1  0.81981544  0.01125679  0.16380771  1
  Li  Li29  1  0.79656564  0.53796875  0.10786178  1
  Li  Li30  1  0.48005862  0.86619292  0.14896539  1
  Li  Li31  1  0.52617094  0.32303365  0.19928450  1
  Li  Li32  1  0.49795673  0.17372045  0.18210824  1
  Li  Li33  1  0.46912258  0.70921587  0.13284303  1
  Li  Li34  1  0.10607284  0.22141085  0.12899206  1
  Li  Li35  1  0.16455949  0.67173679  0.18364278  1
  Li  Li36  1  0.93836756  0.73026308  0.30114044  1
  Li  Li37  1  0.89105619  0.27645730  0.25004426  1
  Li  Li38  1  0.60996620  0.72855123  0.30167354  1
  Li  Li39  1  0.55929985  0.27667955  0.25013788  1
  Li  Li40  1  0.85974617  0.97365830  0.21614857  1
  Li  Li41  1  0.90655158  0.42699949  0.26701298  1
  Li  Li42  1  0.24086277  0.92558502  0.26797774  1
  Li  Li43  1  0.19749892  0.47175595  0.21811404  1
  Li  Li44  1  0.24487600  0.08410763  0.28391932  1
  Li  Li45  1  0.19655593  0.63200368  0.23468763  1
  Li  Li46  1  0.90585656  0.92176193  0.26636899  1
  Li  Li47  1  0.86219219  0.46748914  0.21564274  1
  Li  Li48  1  0.57613150  0.77567694  0.25063094  1
  Li  Li49  1  0.61724439  0.23085810  0.30089201  1
  Li  Li50  1  0.58498692  0.08267292  0.28202613  1
  Li  Li51  1  0.54153204  0.62557710  0.23297298  1
  Li  Li52  1  0.20628772  0.12655195  0.23285754  1
  Li  Li53  1  0.25395448  0.58078379  0.28433630  1
  Li  Li54  1  0.03425956  0.63926446  0.40317991  1
  Li  Li55  1  0.98377381  0.18636630  0.35170775  1
  Li  Li56  1  0.71477659  0.62819207  0.40855015  1
  Li  Li57  1  0.65446517  0.18364408  0.35162027  1
  Li  Li58  1  0.95573130  0.88077366  0.31745093  1
  Li  Li59  1  0.99971968  0.33464536  0.36840311  1
  Li  Li60  1  0.33996610  0.84003550  0.37003736  1
  Li  Li61  1  0.28658339  0.38384513  0.31946149  1
  Li  Li62  1  0.32005023  0.00621193  0.38726383  1
  Li  Li63  1  0.28888775  0.54041546  0.33579410  1
  Li  Li64  1  0.01014303  0.82573135  0.36723660  1
  Li  Li65  1  0.95113834  0.37677408  0.31714610  1
  Li  Li66  1  0.66347080  0.68387436  0.35364560  1
  Li  Li67  1  0.72548841  0.13694748  0.40510928  1
  Li  Li68  1  0.67351028  0.99156435  0.37699995  1
  Li  Li69  1  0.63444104  0.53474191  0.33445260  1
  Li  Li70  1  0.30014804  0.03251607  0.33380726  1
  Li  Li71  1  0.34699588  0.49233490  0.38665471  1
  Li  Li72  1  0.06338539  0.10853812  0.45189917  1
  Li  Li73  1  0.74589043  0.08309079  0.46577117  1
  Li  Li74  1  0.05637846  0.79348705  0.42029654  1
  Li  Li75  1  0.05054854  0.25904154  0.47210695  1
  Li  Li76  1  0.44881749  0.75430464  0.45985528  1
  Li  Li77  1  0.38630143  0.28308356  0.41319687  1
  Li  Li78  1  0.25312151  0.97708309  0.50418367  1
  Li  Li79  1  0.38392937  0.44659707  0.43847041  1
  Li  Li80  1  0.05902842  0.73291418  0.46881440  1
  Li  Li81  1  0.04812642  0.29983763  0.42277773  1
  Li  Li82  1  0.81955500  0.64186673  0.47939505  1
  Li  Li83  1  0.73550312  0.94738329  0.44114854  1
  Li  Li84  1  0.75181697  0.43139752  0.43397490  1
  Li  Li85  1  0.40697128  0.95221069  0.43903817  1
  Li  Li86  1  0.38949307  0.39327500  0.50078599  1
  Li  Li87  1  0.08754259  0.07118522  0.60172190  1
  Li  Li88  1  0.13542781  0.52759226  0.54975674  1
  Li  Li89  1  0.42745136  0.06408752  0.59671797  1
  Li  Li90  1  0.45738749  0.52399409  0.54049044  1
  Li  Li91  1  0.12518416  0.83348797  0.51542547  1
  Li  Li92  1  0.09571881  0.37222723  0.55405540  1
  Li  Li93  1  0.79003125  0.85486439  0.56688508  1
  Li  Li94  1  0.78138198  0.37614911  0.56028281  1
  Li  Li95  1  0.74519667  0.72129325  0.56934169  1
  Li  Li96  1  0.70759651  0.27605714  0.52427704  1
  Li  Li97  1  0.03046466  0.97394806  0.55733157  1
  Li  Li98  1  0.03893105  0.44343912  0.47500717  1
  Li  Li99  1  0.36481256  0.97690999  0.55962568  1
  Li  Li100  1  0.40931643  0.56553349  0.59531555  1
  Li  Li101  1  0.44374555  0.70794156  0.58577465  1
  Li  Li102  1  0.48061326  0.07699958  0.52525812  1
  Li  Li103  1  0.70138618  0.76695083  0.50933229  1
  Li  Li104  1  0.78043941  0.21433234  0.58033236  1
  Li  Li105  1  0.00380212  0.15256535  0.70025017  1
  Li  Li106  1  0.04587553  0.60752651  0.64770052  1
  Li  Li107  1  0.33275922  0.15285908  0.70026206  1
  Li  Li108  1  0.37901624  0.60592495  0.64887407  1
  Li  Li109  1  0.07240367  0.90889584  0.61206500  1
  Li  Li110  1  0.03476819  0.45485246  0.66480204  1
  Li  Li111  1  0.70069962  0.95686216  0.66804654  1
  Li  Li112  1  0.74122076  0.41199685  0.62256054  1
  Li  Li113  1  0.70484185  0.79493296  0.68243212  1
  Li  Li114  1  0.74560652  0.24994018  0.63368793  1
  Li  Li115  1  0.03078895  0.96213186  0.66381198  1
  Li  Li116  1  0.05105482  0.43835710  0.60768722  1
  Li  Li117  1  0.36893614  0.10911963  0.64909934  1
  Li  Li118  1  0.32294304  0.65170094  0.69927855  1
  Li  Li119  1  0.35221676  0.80288984  0.68230800  1
  Li  Li120  1  0.37852649  0.26698370  0.63303974  1
  Li  Li121  1  0.74310000  0.75360075  0.62923171  1
  Li  Li122  1  0.68566846  0.30301213  0.68368144  1
  Li  Li123  1  0.91278206  0.24452027  0.80109582  1
  Li  Li124  1  0.95971783  0.69719825  0.74984499  1
  Li  Li125  1  0.24107943  0.24640574  0.80201636  1
  Li  Li126  1  0.29160019  0.69778546  0.75000094  1
  Li  Li127  1  0.98915111  0.00175336  0.71602749  1
  Li  Li128  1  0.94437134  0.54775722  0.76707402  1
  Li  Li129  1  0.60960362  0.04797869  0.76844117  1
  Li  Li130  1  0.65415036  0.50322233  0.71799860  1
  Li  Li131  1  0.60608854  0.89005213  0.78374351  1
  Li  Li132  1  0.65053442  0.34392383  0.73481669  1
  Li  Li133  1  0.94348567  0.05308043  0.76633710  1
  Li  Li134  1  0.98752769  0.50851289  0.71548219  1
  Li  Li135  1  0.27636468  0.19919406  0.75100437  1
  Li  Li136  1  0.23427478  0.74382912  0.80057090  1
  Li  Li137  1  0.26481214  0.89295475  0.78187972  1
  Li  Li138  1  0.30498890  0.35109574  0.73281595  1
  Li  Li139  1  0.64371610  0.84857675  0.73264378  1
  Li  Li140  1  0.59606482  0.39484168  0.78460568  1
  Li  Li141  1  0.81534454  0.33609421  0.90327396  1
  Li  Li142  1  0.86780002  0.78864923  0.85155734  1
  Li  Li143  1  0.13502458  0.34702368  0.90892406  1
  Li  Li144  1  0.19864666  0.79015141  0.85155205  1
  Li  Li145  1  0.89344200  0.09494366  0.81742799  1
  Li  Li146  1  0.85267461  0.64026992  0.86851137  1
  Li  Li147  1  0.51108329  0.13515732  0.86958857  1
  Li  Li148  1  0.56424968  0.59122772  0.81955579  1
  Li  Li149  1  0.53254341  0.96821648  0.88731056  1
  Li  Li150  1  0.56276094  0.43339457  0.83628514  1
  Li  Li151  1  0.84274859  0.14796751  0.86728201  1
  Li  Li152  1  0.89900663  0.59820607  0.81702664  1
  Li  Li153  1  0.18595452  0.29122273  0.85395205  1
  Li  Li154  1  0.12571206  0.83845911  0.90507819  1
  Li  Li155  1  0.17798566  0.98240899  0.87670521  1
  Li  Li156  1  0.21583303  0.44003396  0.83479694  1
  Li  Li157  1  0.55047109  0.94161256  0.83411192  1
  Li  Li158  1  0.50468355  0.48313342  0.88671542  1
  Li  Li159  1  0.78758362  0.86610744  0.95200634  1
  Li  Li160  1  0.10488975  0.89131442  0.96584562  1
  Li  Li161  1  0.79337902  0.18182239  0.92004828  1
  Li  Li162  1  0.79725104  0.71656057  0.97205907  1
  Li  Li163  1  0.40117752  0.22001152  0.95987833  1
  Li  Li164  1  0.46433705  0.69063327  0.91318812  1
  Li  Li165  1  0.59777257  0.99871111  0.00432733  1
  Li  Li166  1  0.46551905  0.52732307  0.93871350  1
  Li  Li167  1  0.78964576  0.24252998  0.96883169  1
  Li  Li168  1  0.79838452  0.67568671  0.92286209  1
  Li  Li169  1  0.03049559  0.33282235  0.97916299  1
  Li  Li170  1  0.11379775  0.02794789  0.94061029  1
  Li  Li171  1  0.09678192  0.54447254  0.93435108  1
  Li  Li172  1  0.44386878  0.02266396  0.93913287  1
  Li  Li173  1  0.45823330  0.58138992  0.00053316  1
  Y  Y174  1  0.72381982  0.29442884  0.03117334  1
  Y  Y175  1  0.74257990  0.74993038  0.08249946  1
  Y  Y176  1  0.40452406  0.60744985  0.06858527  1
  Y  Y177  1  0.10516007  0.90793145  0.09717664  1
  Y  Y178  1  0.08180718  0.44081563  0.03927029  1
  Y  Y179  1  0.78212827  0.21227902  0.13128870  1
  Y  Y180  1  0.83047367  0.66714759  0.18370770  1
  Y  Y181  1  0.42645804  0.06817752  0.11805658  1
  Y  Y182  1  0.47744882  0.52257505  0.16657237  1
  Y  Y183  1  0.18883497  0.82250443  0.19991425  1
  Y  Y184  1  0.14319555  0.36646866  0.14922313  1
  Y  Y185  1  0.87531903  0.12133048  0.23271170  1
  Y  Y186  1  0.92303399  0.57493021  0.28393902  1
  Y  Y187  1  0.51917921  0.97839654  0.21672692  1
  Y  Y188  1  0.56578315  0.43199326  0.26770518  1
  Y  Y189  1  0.28279456  0.73034543  0.30118905  1
  Y  Y190  1  0.23343907  0.27678433  0.25010923  1
  Y  Y191  1  0.96838233  0.02940884  0.33387324  1
  Y  Y192  1  0.01339224  0.48511683  0.38522578  1
  Y  Y193  1  0.61241061  0.88501783  0.31760463  1
  Y  Y194  1  0.65568023  0.34180157  0.36848568  1
  Y  Y195  1  0.37277164  0.64122128  0.40235465  1
  Y  Y196  1  0.32175716  0.18606332  0.34976165  1
  Y  Y197  1  0.07191262  0.94532804  0.43460607  1
  Y  Y198  1  0.70926728  0.79663682  0.41827858  1
  Y  Y199  1  0.73235231  0.26183666  0.46387842  1
  Y  Y200  1  0.40643747  0.10679484  0.45492121  1
  Y  Y201  1  0.12526942  0.68085180  0.53113929  1
  Y  Y202  1  0.10700920  0.22504850  0.58239215  1
  Y  Y203  1  0.44532603  0.36749340  0.56853253  1
  Y  Y204  1  0.74476939  0.06693451  0.59732988  1
  Y  Y205  1  0.76765251  0.53419562  0.53917023  1
  Y  Y206  1  0.06821115  0.76256877  0.63124060  1
  Y  Y207  1  0.01849486  0.30823709  0.68385813  1
  Y  Y208  1  0.42364419  0.90690810  0.61804379  1
  Y  Y209  1  0.37319682  0.45236893  0.66646492  1
  Y  Y210  1  0.65984990  0.15269387  0.69994917  1
  Y  Y211  1  0.70635914  0.60866867  0.64924847  1
  Y  Y212  1  0.97475185  0.85342905  0.73271160  1
  Y  Y213  1  0.92764719  0.39984420  0.78396726  1
  Y  Y214  1  0.33008620  0.99696571  0.71675294  1
  Y  Y215  1  0.28471529  0.54309794  0.76783186  1
  Y  Y216  1  0.56767270  0.24465361  0.80125027  1
  Y  Y217  1  0.61672645  0.69828766  0.74999918  1
  Y  Y218  1  0.88275415  0.94527168  0.83382195  1
  Y  Y219  1  0.83740614  0.48984795  0.88530673  1
  Y  Y220  1  0.23820691  0.08949855  0.81760825  1
  Y  Y221  1  0.19511541  0.63313658  0.86864702  1
  Y  Y222  1  0.47703386  0.33389262  0.90245353  1
  Y  Y223  1  0.52954460  0.78839918  0.84975860  1
  Y  Y224  1  0.77797495  0.02963236  0.93464636  1
  Y  Y225  1  0.14082963  0.17812363  0.91817477  1
  Y  Y226  1  0.11663671  0.71347805  0.96407234  1
  Y  Y227  1  0.44310305  0.86846320  0.95484847  1
  Cl  Cl228  1  0.93826761  0.43449455  0.00197110  1
  Cl  Cl229  1  0.94687971  0.88502354  0.06812058  1
  Cl  Cl230  1  0.60099189  0.41870767  0.01831992  1
  Cl  Cl231  1  0.62581291  0.87791379  0.07154727  1
  Cl  Cl232  1  0.62151645  0.03203887  0.08432967  1
  Cl  Cl233  1  0.59212730  0.57440452  0.03493089  1
  Cl  Cl234  1  0.26030389  0.72798034  0.05403421  1
  Cl  Cl235  1  0.27603565  0.42366823  0.01250609  1
  Cl  Cl236  1  0.28956392  0.88909922  0.06537111  1
  Cl  Cl237  1  0.62688791  0.24794325  0.99752079  1
  Cl  Cl238  1  0.62549850  0.72163120  0.04997944  1
  Cl  Cl239  1  0.91103918  0.27421476  0.99624818  1
  Cl  Cl240  1  0.95054393  0.72370255  0.05451441  1
  Cl  Cl241  1  0.95827211  0.03127977  0.08076157  1
  Cl  Cl242  1  0.95058235  0.56958173  0.03104463  1
  Cl  Cl243  1  0.30237601  0.03262885  0.08602205  1
  Cl  Cl244  1  0.27552476  0.57856158  0.03460216  1
  Cl  Cl245  1  0.20527081  0.32054700  0.05828533  1
  Cl  Cl246  1  0.52408442  0.32630560  0.06125744  1
  Cl  Cl247  1  0.44129813  0.97836534  0.02311119  1
  Cl  Cl248  1  0.56142543  0.62748187  0.09734792  1
  Cl  Cl249  1  0.17800704  0.16205081  0.04484592  1
  Cl  Cl250  1  0.19828425  0.63046676  0.09657695  1
  Cl  Cl251  1  0.84905860  0.16709007  0.04215511  1
  Cl  Cl252  1  0.88615522  0.62216112  0.09339753  1
  Cl  Cl253  1  0.20733340  0.47683401  0.07229143  1
  Cl  Cl254  1  0.86855324  0.32719365  0.05776761  1
  Cl  Cl255  1  0.70624670  0.04918992  0.02337899  1
  Cl  Cl256  1  0.86763882  0.47908165  0.07004827  1
  Cl  Cl257  1  0.52649867  0.47860102  0.07720657  1
  Cl  Cl258  1  0.00080341  0.33834951  0.11973879  1
  Cl  Cl259  1  0.04650052  0.79031103  0.17078514  1
  Cl  Cl260  1  0.65791007  0.33897433  0.11986449  1
  Cl  Cl261  1  0.70481643  0.79335230  0.17146960  1
  Cl  Cl262  1  0.72682547  0.94551878  0.18763321  1
  Cl  Cl263  1  0.68415760  0.49031586  0.13718515  1
  Cl  Cl264  1  0.30469680  0.18979164  0.10124067  1
  Cl  Cl265  1  0.34834178  0.64678831  0.15228395  1
  Cl  Cl266  1  0.33670073  0.34496073  0.11795054  1
  Cl  Cl267  1  0.38487587  0.79589598  0.16948670  1
  Cl  Cl268  1  0.64654328  0.18310349  0.10068934  1
  Cl  Cl269  1  0.70020653  0.63762657  0.15229584  1
  Cl  Cl270  1  0.97804405  0.19096559  0.10097605  1
  Cl  Cl271  1  0.02793323  0.64675991  0.15287098  1
  Cl  Cl272  1  0.04880988  0.94685830  0.18449443  1
  Cl  Cl273  1  0.00477357  0.49156712  0.13360855  1
  Cl  Cl274  1  0.39233135  0.94371700  0.18465167  1
  Cl  Cl275  1  0.35107574  0.48863374  0.13413624  1
  Cl  Cl276  1  0.25593123  0.24196838  0.16317855  1
  Cl  Cl277  1  0.20697226  0.78499914  0.11221042  1
  Cl  Cl278  1  0.58991169  0.24668332  0.16408140  1
  Cl  Cl279  1  0.54543328  0.78810213  0.11420324  1
  Cl  Cl280  1  0.58829020  0.08832583  0.14599646  1
  Cl  Cl281  1  0.62992062  0.54420792  0.19732674  1
  Cl  Cl282  1  0.22875667  0.09907189  0.14736529  1
  Cl  Cl283  1  0.28162070  0.55357641  0.19755276  1
  Cl  Cl284  1  0.90666636  0.08703976  0.14429107  1
  Cl  Cl285  1  0.95329326  0.54233186  0.19649174  1
  Cl  Cl286  1  0.24263201  0.93555487  0.12812641  1
  Cl  Cl287  1  0.28709610  0.39434927  0.17935797  1
  Cl  Cl288  1  0.92650183  0.24559596  0.16009174  1
  Cl  Cl289  1  0.88923867  0.78499584  0.11144016  1
  Cl  Cl290  1  0.89035277  0.94583127  0.12586515  1
  Cl  Cl291  1  0.93696823  0.40039938  0.17825698  1
  Cl  Cl292  1  0.55647482  0.94029817  0.12829174  1
  Cl  Cl293  1  0.60321705  0.39604100  0.17773800  1
  Cl  Cl294  1  0.09004487  0.24515565  0.22085064  1
  Cl  Cl295  1  0.13814234  0.69895458  0.27211423  1
  Cl  Cl296  1  0.74903074  0.24808575  0.22137952  1
  Cl  Cl297  1  0.79694161  0.70175414  0.27245546  1
  Cl  Cl298  1  0.82041187  0.85309681  0.28878851  1
  Cl  Cl299  1  0.77184898  0.40008450  0.23843805  1
  Cl  Cl300  1  0.39134749  0.10179818  0.20270880  1
  Cl  Cl301  1  0.43757411  0.55618398  0.25380813  1
  Cl  Cl302  1  0.42810823  0.25142466  0.21927831  1
  Cl  Cl303  1  0.47777755  0.70389069  0.27058089  1
  Cl  Cl304  1  0.74180298  0.09123718  0.20138684  1
  Cl  Cl305  1  0.78764127  0.54532097  0.25281275  1
  Cl  Cl306  1  0.06980334  0.10147012  0.20174732  1
  Cl  Cl307  1  0.11840670  0.55497983  0.25303716  1
  Cl  Cl308  1  0.14124399  0.85495074  0.28624328  1
  Cl  Cl309  1  0.09468802  0.40145756  0.23550375  1
  Cl  Cl310  1  0.48562591  0.85097799  0.28581079  1
  Cl  Cl311  1  0.43961374  0.39833097  0.23517942  1
  Cl  Cl312  1  0.34383577  0.15184373  0.26453100  1
  Cl  Cl313  1  0.29883420  0.69801703  0.21468026  1
  Cl  Cl314  1  0.68187756  0.15514600  0.26506358  1
  Cl  Cl315  1  0.63585293  0.70115798  0.21556668  1
  Cl  Cl316  1  0.67356913  0.99870122  0.24765336  1
  Cl  Cl317  1  0.72011367  0.45260054  0.29847713  1
  Cl  Cl318  1  0.32375251  0.00795821  0.24767139  1
  Cl  Cl319  1  0.37101537  0.46225749  0.29884560  1
  Cl  Cl320  1  0.99484274  0.99741110  0.24674122  1
  Cl  Cl321  1  0.04295980  0.45104538  0.29751690  1
  Cl  Cl322  1  0.33149844  0.84843568  0.23063794  1
  Cl  Cl323  1  0.37797139  0.30219332  0.28056120  1
  Cl  Cl324  1  0.01859904  0.15316595  0.26174473  1
  Cl  Cl325  1  0.97440702  0.69985001  0.21234694  1
  Cl  Cl326  1  0.98065259  0.85492867  0.22873546  1
  Cl  Cl327  1  0.02698766  0.30834074  0.27918386  1
  Cl  Cl328  1  0.64598781  0.85178818  0.22858815  1
  Cl  Cl329  1  0.69209770  0.30522584  0.27897892  1
  Cl  Cl330  1  0.18109575  0.15249946  0.32115869  1
  Cl  Cl331  1  0.22597148  0.61065389  0.37346540  1
  Cl  Cl332  1  0.84080910  0.15600457  0.32250042  1
  Cl  Cl333  1  0.88338967  0.61346143  0.37631087  1
  Cl  Cl334  1  0.91999907  0.76223525  0.39026746  1
  Cl  Cl335  1  0.86295883  0.30934073  0.33928433  1
  Cl  Cl336  1  0.48386277  0.00902203  0.30369804  1
  Cl  Cl337  1  0.52787040  0.46647269  0.35507401  1
  Cl  Cl338  1  0.52281728  0.15840406  0.31996182  1
  Cl  Cl339  1  0.57065087  0.61287884  0.37240542  1
  Cl  Cl340  1  0.83380133  0.99875588  0.30312291  1
  Cl  Cl341  1  0.88066935  0.45464060  0.35376694  1
  Cl  Cl342  1  0.16411014  0.00788055  0.30299326  1
  Cl  Cl343  1  0.20701106  0.46590177  0.35399205  1
  Cl  Cl344  1  0.23411698  0.76727062  0.38815742  1
  Cl  Cl345  1  0.18634793  0.31099007  0.33619762  1
  Cl  Cl346  1  0.57751918  0.76402339  0.38761542  1
  Cl  Cl347  1  0.52929563  0.30718028  0.33639453  1
  Cl  Cl348  1  0.43493838  0.06070198  0.36526221  1
  Cl  Cl349  1  0.39082713  0.60615394  0.31592662  1
  Cl  Cl350  1  0.77616841  0.06256737  0.36678730  1
  Cl  Cl351  1  0.73124651  0.60888366  0.31672898  1
  Cl  Cl352  1  0.77085494  0.90434441  0.34844709  1
  Cl  Cl353  1  0.81383262  0.36235050  0.39847605  1
  Cl  Cl354  1  0.42083470  0.91640989  0.34922398  1
  Cl  Cl355  1  0.45893374  0.37299852  0.39947888  1
  Cl  Cl356  1  0.08880740  0.90605505  0.34856639  1
  Cl  Cl357  1  0.14042376  0.35980321  0.39846249  1
  Cl  Cl358  1  0.42533167  0.75615018  0.33194776  1
  Cl  Cl359  1  0.47150369  0.20667245  0.38062332  1
  Cl  Cl360  1  0.11058200  0.06301929  0.36260789  1
  Cl  Cl361  1  0.06526214  0.60772340  0.31295665  1
  Cl  Cl362  1  0.07501188  0.76229439  0.33013739  1
  Cl  Cl363  1  0.12221509  0.21702040  0.37956714  1
  Cl  Cl364  1  0.73974197  0.75927404  0.33001544  1
  Cl  Cl365  1  0.78409959  0.21491944  0.37958112  1
  Cl  Cl366  1  0.27973372  0.07056558  0.42366634  1
  Cl  Cl367  1  0.25289091  0.43312126  0.46841979  1
  Cl  Cl368  1  0.94956285  0.06941303  0.42199942  1
  Cl  Cl369  1  0.95610906  0.22738427  0.43827998  1
  Cl  Cl370  1  0.59889224  0.92355753  0.40647296  1
  Cl  Cl371  1  0.61391632  0.38925664  0.45442130  1
  Cl  Cl372  1  0.62716494  0.07226087  0.42822679  1
  Cl  Cl373  1  0.92688094  0.91353815  0.40624640  1
  Cl  Cl374  1  0.96815101  0.37298010  0.45693388  1
  Cl  Cl375  1  0.27024066  0.92246385  0.40421643  1
  Cl  Cl376  1  0.28289905  0.23085230  0.44002576  1
  Cl  Cl377  1  0.60086164  0.71288950  0.49172967  1
  Cl  Cl378  1  0.60659987  0.22656007  0.43313072  1
  Cl  Cl379  1  0.53656861  0.97966018  0.46532440  1
  Cl  Cl380  1  0.47273112  0.51954266  0.41758834  1
  Cl  Cl381  1  0.88815418  0.96690410  0.46712836  1
  Cl  Cl382  1  0.83202487  0.51233058  0.41854276  1
  Cl  Cl383  1  0.86240440  0.82170889  0.44886957  1
  Cl  Cl384  1  0.86431110  0.28337685  0.49706082  1
  Cl  Cl385  1  0.51847682  0.83468573  0.44946779  1
  Cl  Cl386  1  0.54575649  0.28148319  0.49483373  1
  Cl  Cl387  1  0.19851184  0.82176166  0.44889545  1
  Cl  Cl388  1  0.51629983  0.66359192  0.43340372  1
  Cl  Cl389  1  0.54474079  0.11650820  0.49097765  1
  Cl  Cl390  1  0.20400045  0.98247163  0.46460584  1
  Cl  Cl391  1  0.15568784  0.51818373  0.41415575  1
  Cl  Cl392  1  0.16714386  0.67448152  0.43292471  1
  Cl  Cl393  1  0.19672095  0.14087117  0.48217338  1
  Cl  Cl394  1  0.83281725  0.67332781  0.43495412  1
  Cl  Cl395  1  0.86518389  0.13671387  0.47849180  1
  Cl  Cl396  1  0.91148270  0.54043985  0.50189684  1
  Cl  Cl397  1  0.90316365  0.08983464  0.56819370  1
  Cl  Cl398  1  0.24784897  0.55652299  0.51821085  1
  Cl  Cl399  1  0.22381561  0.09710751  0.57141259  1
  Cl  Cl400  1  0.22863149  0.94285512  0.58433868  1
  Cl  Cl401  1  0.25674313  0.40068177  0.53503231  1
  Cl  Cl402  1  0.58916655  0.24674463  0.55397240  1
  Cl  Cl403  1  0.57337134  0.55207742  0.51229286  1
  Cl  Cl404  1  0.55994587  0.08607033  0.56558112  1
  Cl  Cl405  1  0.22220627  0.72757805  0.49760822  1
  Cl  Cl406  1  0.22320305  0.25369170  0.54985115  1
  Cl  Cl407  1  0.93749761  0.70152056  0.49632770  1
  Cl  Cl408  1  0.89955613  0.25079852  0.55431922  1
  Cl  Cl409  1  0.89212710  0.94383787  0.58077004  1
  Cl  Cl410  1  0.89954906  0.40541596  0.53092008  1
  Cl  Cl411  1  0.54719038  0.94253257  0.58589846  1
  Cl  Cl412  1  0.57406613  0.39598503  0.53440610  1
  Cl  Cl413  1  0.64586369  0.65393909  0.55860701  1
  Cl  Cl414  1  0.32597284  0.64888658  0.56104150  1
  Cl  Cl415  1  0.41008303  0.99662198  0.52313277  1
  Cl  Cl416  1  0.28640570  0.34849495  0.59721331  1
  Cl  Cl417  1  0.67032383  0.81285147  0.54489785  1
  Cl  Cl418  1  0.65183397  0.34428202  0.59645142  1
  Cl  Cl419  1  0.99929597  0.80817860  0.54217947  1
  Cl  Cl420  1  0.96303935  0.35285841  0.59324409  1
  Cl  Cl421  1  0.64192705  0.49811780  0.57202574  1
  Cl  Cl422  1  0.98227688  0.64756816  0.55795351  1
  Cl  Cl423  1  0.14559800  0.92602098  0.52342437  1
  Cl  Cl424  1  0.98161854  0.49617335  0.56998951  1
  Cl  Cl425  1  0.32378781  0.49631672  0.57713204  1
  Cl  Cl426  1  0.84820180  0.63691540  0.61969488  1
  Cl  Cl427  1  0.80298273  0.18470030  0.67088701  1
  Cl  Cl428  1  0.19188818  0.63591297  0.61980832  1
  Cl  Cl429  1  0.14405225  0.18196175  0.67165077  1
  Cl  Cl430  1  0.12312132  0.02943238  0.68765258  1
  Cl  Cl431  1  0.16624437  0.48496428  0.63708604  1
  Cl  Cl432  1  0.54516105  0.78539234  0.60127511  1
  Cl  Cl433  1  0.50118274  0.32820682  0.65219567  1
  Cl  Cl434  1  0.51282395  0.63009178  0.61800696  1
  Cl  Cl435  1  0.46394463  0.17945095  0.66948414  1
  Cl  Cl436  1  0.20331708  0.79198778  0.60064026  1
  Cl  Cl437  1  0.14902554  0.33756283  0.65235386  1
  Cl  Cl438  1  0.87153986  0.78425293  0.60098589  1
  Cl  Cl439  1  0.82213195  0.32795632  0.65288594  1
  Cl  Cl440  1  0.80032219  0.02828370  0.68449986  1
  Cl  Cl441  1  0.84458899  0.48354982  0.63356363  1
  Cl  Cl442  1  0.45679779  0.03175968  0.68476531  1
  Cl  Cl443  1  0.49956967  0.48639808  0.63413485  1
  Cl  Cl444  1  0.59425464  0.73318880  0.66320056  1
  Cl  Cl445  1  0.64266852  0.19001367  0.61215629  1
  Cl  Cl446  1  0.26019756  0.72822958  0.66405299  1
  Cl  Cl447  1  0.30310613  0.18741346  0.61424246  1
  Cl  Cl448  1  0.26229965  0.88642778  0.64601307  1
  Cl  Cl449  1  0.21951541  0.43128357  0.69718376  1
  Cl  Cl450  1  0.62140253  0.87628056  0.64740064  1
  Cl  Cl451  1  0.56808860  0.42152572  0.69757107  1
  Cl  Cl452  1  0.94336225  0.88790911  0.64432834  1
  Cl  Cl453  1  0.89617112  0.43313784  0.69645350  1
  Cl  Cl454  1  0.60682938  0.03946105  0.62823756  1
  Cl  Cl455  1  0.56260099  0.58097772  0.67952274  1
  Cl  Cl456  1  0.92346042  0.72947530  0.66000704  1
  Cl  Cl457  1  0.96044710  0.18982813  0.61135104  1
  Cl  Cl458  1  0.95942480  0.02904127  0.62601822  1
  Cl  Cl459  1  0.91308191  0.57488096  0.67812801  1
  Cl  Cl460  1  0.29312706  0.03483573  0.62820717  1
  Cl  Cl461  1  0.24667470  0.57887265  0.67773714  1
  Cl  Cl462  1  0.76031596  0.72964650  0.72070059  1
  Cl  Cl463  1  0.71181489  0.27632420  0.77222155  1
  Cl  Cl464  1  0.10118403  0.72670409  0.72128983  1
  Cl  Cl465  1  0.05418465  0.27304443  0.77257824  1
  Cl  Cl466  1  0.02988755  0.12191138  0.78880938  1
  Cl  Cl467  1  0.07889100  0.57462498  0.73841541  1
  Cl  Cl468  1  0.45835856  0.87340577  0.70265363  1
  Cl  Cl469  1  0.41209689  0.41894524  0.75391356  1
  Cl  Cl470  1  0.42142699  0.72408500  0.71933713  1
  Cl  Cl471  1  0.37243409  0.27102197  0.77076258  1
  Cl  Cl472  1  0.10789067  0.88380113  0.70135042  1
  Cl  Cl473  1  0.06204986  0.42962673  0.75262896  1
  Cl  Cl474  1  0.78005307  0.87348010  0.70172145  1
  Cl  Cl475  1  0.73192305  0.42008182  0.75312029  1
  Cl  Cl476  1  0.70850664  0.11993309  0.78633232  1
  Cl  Cl477  1  0.75552919  0.57364035  0.73544825  1
  Cl  Cl478  1  0.36577494  0.12325294  0.78594119  1
  Cl  Cl479  1  0.41059884  0.57675190  0.73524973  1
  Cl  Cl480  1  0.50655212  0.82313192  0.76444644  1
  Cl  Cl481  1  0.55017599  0.27726413  0.71466385  1
  Cl  Cl482  1  0.16859028  0.81973088  0.76494226  1
  Cl  Cl483  1  0.21327380  0.27418276  0.71572555  1
  Cl  Cl484  1  0.17583365  0.97644591  0.74762553  1
  Cl  Cl485  1  0.13011406  0.52218113  0.79844217  1
  Cl  Cl486  1  0.52623122  0.96680199  0.74768817  1
  Cl  Cl487  1  0.47915765  0.51269945  0.79898649  1
  Cl  Cl488  1  0.85472611  0.97738517  0.74670281  1
  Cl  Cl489  1  0.80769102  0.52380596  0.79749226  1
  Cl  Cl490  1  0.51777517  0.12673736  0.73072167  1
  Cl  Cl491  1  0.47256594  0.67276953  0.78054513  1
  Cl  Cl492  1  0.83163058  0.82132015  0.76162807  1
  Cl  Cl493  1  0.87469583  0.27541328  0.71249743  1
  Cl  Cl494  1  0.86864810  0.12008451  0.72871551  1
  Cl  Cl495  1  0.82352351  0.66650885  0.77907067  1
  Cl  Cl496  1  0.20345381  0.12336776  0.72886540  1
  Cl  Cl497  1  0.15784253  0.66989393  0.77895626  1
  Cl  Cl498  1  0.66980815  0.82236849  0.82118537  1
  Cl  Cl499  1  0.62433451  0.36450472  0.87366488  1
  Cl  Cl500  1  0.01035692  0.81872801  0.82245839  1
  Cl  Cl501  1  0.96726503  0.36145954  0.87640624  1
  Cl  Cl502  1  0.92991979  0.21291386  0.89013478  1
  Cl  Cl503  1  0.98862122  0.66533171  0.83931150  1
  Cl  Cl504  1  0.36622505  0.96535496  0.80380988  1
  Cl  Cl505  1  0.32300818  0.50860936  0.85525244  1
  Cl  Cl506  1  0.32850797  0.81627215  0.81996957  1
  Cl  Cl507  1  0.27950787  0.36228036  0.87244896  1
  Cl  Cl508  1  0.01613326  0.97623380  0.80299184  1
  Cl  Cl509  1  0.97004354  0.52021591  0.85381087  1
  Cl  Cl510  1  0.68674044  0.96657979  0.80304669  1
  Cl  Cl511  1  0.64336731  0.50890108  0.85416672  1
  Cl  Cl512  1  0.61596800  0.20803708  0.88810898  1
  Cl  Cl513  1  0.66525302  0.66354019  0.83612993  1
  Cl  Cl514  1  0.27298628  0.21077551  0.88760584  1
  Cl  Cl515  1  0.32164123  0.66749075  0.83643409  1
  Cl  Cl516  1  0.41703020  0.91365449  0.86537926  1
  Cl  Cl517  1  0.45936501  0.36881962  0.81612428  1
  Cl  Cl518  1  0.07514800  0.91213567  0.86670383  1
  Cl  Cl519  1  0.11924289  0.36600477  0.81681014  1
  Cl  Cl520  1  0.07965937  0.07007624  0.84841066  1
  Cl  Cl521  1  0.03698164  0.61261150  0.89861830  1
  Cl  Cl522  1  0.42993901  0.05816023  0.84920792  1
  Cl  Cl523  1  0.39181202  0.60195979  0.89973913  1
  Cl  Cl524  1  0.76169480  0.06865671  0.84859356  1
  Cl  Cl525  1  0.70951934  0.61546220  0.89831594  1
  Cl  Cl526  1  0.42539273  0.21878628  0.83211001  1
  Cl  Cl527  1  0.37988777  0.76798373  0.88068748  1
  Cl  Cl528  1  0.74097650  0.91160329  0.86266440  1
  Cl  Cl529  1  0.78530965  0.36726326  0.81305752  1
  Cl  Cl530  1  0.77553759  0.21253896  0.83020698  1
  Cl  Cl531  1  0.72901477  0.75774415  0.87952093  1
  Cl  Cl532  1  0.11128743  0.21532186  0.83000974  1
  Cl  Cl533  1  0.06726459  0.76001425  0.87959394  1
  Cl  Cl534  1  0.57063129  0.90449913  0.92369676  1
  Cl  Cl535  1  0.59679686  0.54180339  0.96840289  1
  Cl  Cl536  1  0.90103918  0.90550974  0.92204201  1
  Cl  Cl537  1  0.89342253  0.74747917  0.93834655  1
  Cl  Cl538  1  0.25076405  0.05130827  0.90638166  1
  Cl  Cl539  1  0.23563605  0.58581126  0.95479216  1
  Cl  Cl540  1  0.22320998  0.90264305  0.92803429  1
  Cl  Cl541  1  0.92209078  0.06186945  0.90621713  1
  Cl  Cl542  1  0.88042328  0.60213788  0.95693172  1
  Cl  Cl543  1  0.57974987  0.05273382  0.90422544  1
  Cl  Cl544  1  0.56626677  0.74408353  0.94015263  1
  Cl  Cl545  1  0.24863099  0.26213317  0.99170781  1
  Cl  Cl546  1  0.24313005  0.74845650  0.93329772  1
  Cl  Cl547  1  0.31251912  0.99545451  0.96519683  1
  Cl  Cl548  1  0.37776000  0.45559999  0.91769312  1
  Cl  Cl549  1  0.96285462  0.00785911  0.96693681  1
  Cl  Cl550  1  0.01863602  0.46289656  0.91860054  1
  Cl  Cl551  1  0.98708720  0.15364755  0.94876895  1
  Cl  Cl552  1  0.98373733  0.69190937  0.99711744  1
  Cl  Cl553  1  0.33129784  0.14014419  0.94943065  1
  Cl  Cl554  1  0.30265304  0.69344267  0.99515851  1
  Cl  Cl555  1  0.65166939  0.15312815  0.94906492  1
  Cl  Cl556  1  0.33412614  0.31148021  0.93359651  1
  Cl  Cl557  1  0.30484395  0.85865446  0.99090515  1
  Cl  Cl558  1  0.64583508  0.99258514  0.96468470  1
  Cl  Cl559  1  0.69568064  0.45668672  0.91433035  1
  Cl  Cl560  1  0.68310574  0.30064627  0.93290745  1
  Cl  Cl561  1  0.65249966  0.83428669  0.98220469  1
  Cl  Cl562  1  0.01769476  0.30161108  0.93491294  1
  Cl  Cl563  1  0.98404626  0.83871058  0.97864616  1
