# generated using pymatgen
data_Li39La15Zr10O62
_symmetry_space_group_name_H-M   'P 1'
_cell_length_a   11.27162600
_cell_length_b   12.64834664
_cell_length_c   46.65146700
_cell_angle_alpha   90.00000000
_cell_angle_beta   90.00000000
_cell_angle_gamma   124.12984495
_symmetry_Int_Tables_number   1
_chemical_formula_structural   Li39La15Zr10O62
_chemical_formula_sum   'Li78 La30 Zr20 O124'
_cell_volume   5505.46958166
_cell_formula_units_Z   2
loop_
 _symmetry_equiv_pos_site_id
 _symmetry_equiv_pos_as_xyz
  1  'x, y, z'
loop_
 _atom_site_type_symbol
 _atom_site_label
 _atom_site_symmetry_multiplicity
 _atom_site_fract_x
 _atom_site_fract_y
 _atom_site_fract_z
 _atom_site_occupancy
  Li  Li0  1  0.83264544  0.39718356  0.07419713  1
  Li  Li1  1  0.17313838  0.95441231  0.07086925  1
  Li  Li2  1  0.09743666  0.42888196  0.03878407  1
  Li  Li3  1  0.99360297  0.98580317  0.10368466  1
  Li  Li4  1  0.66441764  0.31374456  0.16899083  1
  Li  Li5  1  0.33384680  0.53630432  0.17025763  1
  Li  Li6  1  0.53251932  0.58600972  0.00262289  1
  Li  Li7  1  0.50532387  0.73272737  0.13547499  1
  Li  Li8  1  0.24838202  0.68008475  0.15029074  1
  Li  Li9  1  0.74824567  0.17842388  0.19129978  1
  Li  Li10  1  0.40081420  0.50526734  0.11776403  1
  Li  Li11  1  0.63952419  0.88038326  0.02624127  1
  Li  Li12  1  0.24641355  0.18776945  0.09299178  1
  Li  Li13  1  0.74765423  0.19206716  0.04944181  1
  Li  Li14  1  0.10098709  0.84238837  0.11808265  1
  Li  Li15  1  0.86458695  0.46944620  0.02715325  1
  Li  Li16  1  0.99127970  0.61377971  0.13515484  1
  Li  Li17  1  0.97005478  0.76115799  0.00255102  1
  Li  Li18  1  0.32741570  0.39828194  0.06944689  1
  Li  Li19  1  0.67264572  0.96110679  0.07223118  1
  Li  Li20  1  0.50610072  0.36563758  0.10378557  1
  Li  Li21  1  0.40722978  0.92346438  0.03896277  1
  Li  Li22  1  0.16377759  0.81434737  0.17066144  1
  Li  Li23  1  0.83161580  0.03372890  0.16900948  1
  Li  Li24  1  0.75046256  0.42635117  0.12000989  1
  Li  Li25  1  0.21179729  0.92343464  0.02204936  1
  Li  Li26  1  0.28982551  0.42514632  0.02122547  1
  Li  Li27  1  0.74845011  0.92264554  0.11926427  1
  Li  Li28  1  0.83372740  0.89765116  0.27096573  1
  Li  Li29  1  0.16721359  0.45321486  0.26920055  1
  Li  Li30  1  0.00626593  0.87078054  0.23615912  1
  Li  Li31  1  0.99379447  0.47880398  0.30356724  1
  Li  Li32  1  0.66406591  0.81378510  0.36914760  1
  Li  Li33  1  0.33216940  0.03425749  0.37085754  1
  Li  Li34  1  0.49470807  0.11700739  0.20361322  1
  Li  Li35  1  0.50056758  0.23003948  0.33674301  1
  Li  Li36  1  0.24908181  0.18049567  0.34880374  1
  Li  Li37  1  0.75001757  0.68236946  0.38988367  1
  Li  Li38  1  0.39188154  0.99330600  0.32018136  1
  Li  Li39  1  0.60601005  0.35788103  0.21981773  1
  Li  Li40  1  0.24830654  0.67920473  0.29140190  1
  Li  Li41  1  0.74946023  0.68008403  0.24867915  1
  Li  Li42  1  0.10670011  0.35770405  0.32026403  1
  Li  Li43  1  0.89264857  0.99575057  0.21995568  1
  Li  Li44  1  0.99441250  0.11753986  0.33665389  1
  Li  Li45  1  0.00208283  0.23049872  0.20331464  1
  Li  Li46  1  0.33257494  0.89850772  0.26878240  1
  Li  Li47  1  0.66708444  0.45343674  0.27066132  1
  Li  Li48  1  0.50525060  0.87020834  0.30375344  1
  Li  Li49  1  0.49416243  0.47956451  0.23659800  1
  Li  Li50  1  0.16451630  0.31415075  0.37125333  1
  Li  Li51  1  0.83389044  0.53605198  0.37005294  1
  Li  Li52  1  0.74993165  0.92411590  0.32028570  1
  Li  Li53  1  0.24917308  0.42488933  0.21976212  1
  Li  Li54  1  0.25071692  0.92514409  0.21972777  1
  Li  Li55  1  0.74860289  0.42416856  0.32037210  1
  Li  Li56  1  0.82673990  0.39817586  0.47036944  1
  Li  Li57  1  0.17272604  0.96077564  0.46754650  1
  Li  Li58  1  0.00703163  0.36575332  0.43609865  1
  Li  Li59  1  0.90765774  0.92342090  0.50080813  1
  Li  Li60  1  0.49166069  0.61454541  0.40474847  1
  Li  Li61  1  0.46992565  0.76276802  0.53741212  1
  Li  Li62  1  0.36505431  0.46995665  0.51286360  1
  Li  Li63  1  0.60088903  0.84086918  0.42197726  1
  Li  Li64  1  0.24809228  0.19252807  0.49050538  1
  Li  Li65  1  0.74870357  0.18971402  0.44677426  1
  Li  Li66  1  0.13892304  0.87947725  0.51349463  1
  Li  Li67  1  0.90092424  0.50468438  0.42221564  1
  Li  Li68  1  0.03547049  0.58831055  0.53717134  1
  Li  Li69  1  0.00600617  0.73199094  0.40429881  1
  Li  Li70  1  0.33148717  0.39809451  0.46536742  1
  Li  Li71  1  0.67396278  0.95559754  0.46898614  1
  Li  Li72  1  0.59851487  0.43009758  0.50122622  1
  Li  Li73  1  0.49506737  0.98691883  0.43618159  1
  Li  Li74  1  0.79132032  0.42627206  0.51867002  1
  Li  Li75  1  0.24770458  0.92174430  0.42049933  1
  Li  Li76  1  0.25067959  0.42662951  0.42000398  1
  Li  Li77  1  0.71262206  0.92396843  0.51809534  1
  La  La78  1  0.12814967  0.48961120  0.09680459  1
  La  La79  1  0.87677173  0.86911250  0.04592463  1
  La  La80  1  0.36904545  0.10814004  0.14411660  1
  La  La81  1  0.62777956  0.73796659  0.19523356  1
  La  La82  1  0.24958380  0.17366604  0.02440296  1
  La  La83  1  0.75003036  0.17438463  0.11995816  1
  La  La84  1  0.75074167  0.67508684  0.11776317  1
  La  La85  1  0.62553669  0.47832594  0.04617142  1
  La  La86  1  0.37504151  0.85899561  0.09682944  1
  La  La87  1  0.86997132  0.61039089  0.19518523  1
  La  La88  1  0.12798412  0.24088685  0.14443935  1
  La  La89  1  0.12878987  0.98892215  0.29556916  1
  La  La90  1  0.87111010  0.36019210  0.24439576  1
  La  La91  1  0.37014762  0.61051643  0.34474107  1
  La  La92  1  0.62812191  0.24104155  0.39543997  1
  La  La93  1  0.24946496  0.67451170  0.22037139  1
  La  La94  1  0.74963855  0.67417957  0.31968223  1
  La  La95  1  0.74923313  0.17441896  0.32026506  1
  La  La96  1  0.24948199  0.17474701  0.21969239  1
  La  La97  1  0.62859298  0.98867934  0.24449972  1
  La  La98  1  0.37103202  0.36027547  0.29556691  1
  La  La99  1  0.86881520  0.10786910  0.39583451  1
  La  La100  1  0.12746613  0.73768033  0.34472987  1
  La  La101  1  0.12582863  0.47865404  0.49373155  1
  La  La102  1  0.87559387  0.85929251  0.44309276  1
  La  La103  1  0.25038741  0.17439959  0.42004286  1
  La  La104  1  0.74979374  0.17388955  0.51546891  1
  La  La105  1  0.25112401  0.67527771  0.42214985  1
  La  La106  1  0.62804512  0.48980347  0.44313967  1
  La  La107  1  0.37728758  0.86972853  0.49382854  1
  Zr  Zr108  1  0.99867511  0.42523076  0.17019611  1
  Zr  Zr109  1  0.49383391  0.67803503  0.06596448  1
  Zr  Zr110  1  0.50057841  0.16988265  0.06932604  1
  Zr  Zr111  1  0.99862713  0.92435836  0.16918420  1
  Zr  Zr112  1  0.01079244  0.67323665  0.06630819  1
  Zr  Zr113  1  0.99377439  0.17691963  0.06786347  1
  Zr  Zr114  1  0.49887979  0.42443380  0.16922487  1
  Zr  Zr115  1  0.50025043  0.92389840  0.17043860  1
  Zr  Zr116  1  0.00078542  0.92413833  0.36952085  1
  Zr  Zr117  1  0.50048206  0.17513882  0.26997002  1
  Zr  Zr118  1  0.49901258  0.67437624  0.27021996  1
  Zr  Zr119  1  0.99908680  0.42439277  0.37078163  1
  Zr  Zr120  1  0.00026466  0.17490901  0.27014036  1
  Zr  Zr121  1  0.99891944  0.67422333  0.26980614  1
  Zr  Zr122  1  0.49881458  0.92443411  0.37075097  1
  Zr  Zr123  1  0.49895972  0.42565811  0.36987160  1
  Zr  Zr124  1  0.51134927  0.67384247  0.47373720  1
  Zr  Zr125  1  0.49420043  0.17721271  0.47199091  1
  Zr  Zr126  1  0.99395532  0.67794789  0.47376928  1
  Zr  Zr127  1  0.00109372  0.17024054  0.47063990  1
  O  O128  1  0.79871933  0.86002156  0.15103365  1
  O  O129  1  0.20037363  0.98940504  0.18787664  1
  O  O130  1  0.37757623  0.07501131  0.03270438  1
  O  O131  1  0.59376613  0.25805367  0.10944715  1
  O  O132  1  0.69932331  0.80489888  0.08762786  1
  O  O133  1  0.29999684  0.52851068  0.05090581  1
  O  O134  1  0.06050756  0.93270441  0.01135666  1
  O  O135  1  0.90865568  0.41481051  0.12931708  1
  O  O136  1  0.68516333  0.31901380  0.04524851  1
  O  O137  1  0.32847179  0.02858561  0.09597666  1
  O  O138  1  0.12161529  0.04216033  0.13408697  1
  O  O139  1  0.81985416  0.38687215  0.19429165  1
  O  O140  1  0.17661094  0.46263388  0.14576167  1
  O  O141  1  0.62934625  0.71591606  0.02836471  1
  O  O142  1  0.38007797  0.66483891  0.10361317  1
  O  O143  1  0.40991708  0.72495445  0.17417134  1
  O  O144  1  0.58776607  0.12182025  0.16583262  1
  O  O145  1  0.51941956  0.58781381  0.15095790  1
  O  O146  1  0.47800680  0.26090057  0.18792678  1
  O  O147  1  0.09316704  0.07165751  0.06621429  1
  O  O148  1  0.90774306  0.28205169  0.07451585  1
  O  O149  1  0.97687854  0.81597202  0.08530305  1
  O  O150  1  0.01348473  0.51939151  0.05283757  1
  O  O151  1  0.08625736  0.62284245  0.17417050  1
  O  O152  1  0.90867877  0.22603798  0.16568906  1
  O  O153  1  0.52626660  0.53320544  0.08504490  1
  O  O154  1  0.49132931  0.83192087  0.05247219  1
  O  O155  1  0.40707238  0.27835085  0.06637804  1
  O  O156  1  0.59490753  0.07045490  0.07443704  1
  O  O157  1  0.97917487  0.76131590  0.15086401  1
  O  O158  1  0.01962147  0.08788757  0.18788241  1
  O  O159  1  0.12260054  0.68359696  0.10404793  1
  O  O160  1  0.87315200  0.63224464  0.02868847  1
  O  O161  1  0.17355857  0.31478134  0.09530026  1
  O  O162  1  0.81974460  0.02594809  0.04401952  1
  O  O163  1  0.37619140  0.30786057  0.13391825  1
  O  O164  1  0.32044257  0.88178572  0.14618776  1
  O  O165  1  0.67748691  0.95809859  0.19468923  1
  O  O166  1  0.80362381  0.54335977  0.08793496  1
  O  O167  1  0.20419966  0.82120737  0.05135158  1
  O  O168  1  0.12214380  0.27509619  0.03206993  1
  O  O169  1  0.90183640  0.09074479  0.10845844  1
  O  O170  1  0.69990938  0.48932079  0.15129406  1
  O  O171  1  0.29730527  0.35884077  0.18791635  1
  O  O172  1  0.44206024  0.41504205  0.01154757  1
  O  O173  1  0.59102634  0.93459784  0.12967933  1
  O  O174  1  0.79755049  0.35884047  0.35215514  1
  O  O175  1  0.20014617  0.48930554  0.38870941  1
  O  O176  1  0.40611314  0.59323736  0.23001207  1
  O  O177  1  0.59186534  0.75557716  0.31038847  1
  O  O178  1  0.70124908  0.30955359  0.28869287  1
  O  O179  1  0.29927780  0.03994108  0.25120009  1
  O  O180  1  0.09083484  0.43652196  0.21030751  1
  O  O181  1  0.90824677  0.91207045  0.32941259  1
  O  O182  1  0.67791644  0.81472995  0.24552676  1
  O  O183  1  0.32209352  0.53144409  0.29491188  1
  O  O184  1  0.87725819  0.80919963  0.20498908  1
  O  O185  1  0.12046115  0.53794824  0.33488026  1
  O  O186  1  0.82053065  0.88129863  0.39376843  1
  O  O187  1  0.17778687  0.95814826  0.34525006  1
  O  O188  1  0.62306810  0.18172009  0.23453934  1
  O  O189  1  0.37692973  0.16663029  0.30527760  1
  O  O190  1  0.40843662  0.22608153  0.37432378  1
  O  O191  1  0.58675296  0.62311505  0.36588507  1
  O  O192  1  0.51940178  0.08781702  0.35201057  1
  O  O193  1  0.47938754  0.76142273  0.38903848  1
  O  O194  1  0.08997087  0.56633561  0.26588977  1
  O  O195  1  0.91008402  0.78336589  0.27398476  1
  O  O196  1  0.97963413  0.31840047  0.28801894  1
  O  O197  1  0.02045722  0.03126486  0.25196090  1
  O  O198  1  0.08764542  0.12185078  0.37418301  1
  O  O199  1  0.91049927  0.72503301  0.36584421  1
  O  O200  1  0.52007490  0.03113036  0.28803365  1
  O  O201  1  0.47972026  0.31864427  0.25201796  1
  O  O202  1  0.40973437  0.78308740  0.26603007  1
  O  O203  1  0.59043584  0.56669877  0.27414000  1
  O  O204  1  0.97812024  0.26097970  0.35212349  1
  O  O205  1  0.01957504  0.58770645  0.38903457  1
  O  O206  1  0.12255959  0.18177045  0.30556161  1
  O  O207  1  0.87703670  0.16578550  0.23462205  1
  O  O208  1  0.17773375  0.81475448  0.29449237  1
  O  O209  1  0.82223450  0.53154506  0.24504458  1
  O  O210  1  0.37714450  0.80960337  0.33491985  1
  O  O211  1  0.62017564  0.53781386  0.20511939  1
  O  O212  1  0.31968354  0.38674746  0.34576597  1
  O  O213  1  0.67635531  0.46219011  0.39427150  1
  O  O214  1  0.79897348  0.03979121  0.28883679  1
  O  O215  1  0.20115403  0.30964823  0.25138418  1
  O  O216  1  0.09270905  0.75608111  0.22975385  1
  O  O217  1  0.90582844  0.59303268  0.31001576  1
  O  O218  1  0.70053361  0.98932823  0.35208456  1
  O  O219  1  0.29858024  0.85961335  0.38884155  1
  O  O220  1  0.40863473  0.91264387  0.21066229  1
  O  O221  1  0.59056759  0.43636077  0.32975984  1
  O  O222  1  0.40170045  0.09041157  0.43147386  1
  O  O223  1  0.62334663  0.27580901  0.50775416  1
  O  O224  1  0.70458516  0.82157417  0.48869828  1
  O  O225  1  0.30375083  0.54375216  0.45204848  1
  O  O226  1  0.09115889  0.93479068  0.41031639  1
  O  O227  1  0.94387495  0.41693707  0.52837406  1
  O  O228  1  0.67378955  0.31491751  0.44452045  1
  O  O229  1  0.32013997  0.02600300  0.49577511  1
  O  O230  1  0.87667780  0.30803111  0.40613608  1
  O  O231  1  0.62279583  0.68426371  0.43588437  1
  O  O232  1  0.37377946  0.63315222  0.51131045  1
  O  O233  1  0.09515757  0.07058141  0.46557405  1
  O  O234  1  0.90769259  0.27873793  0.47351774  1
  O  O235  1  0.99126856  0.83179221  0.48726101  1
  O  O236  1  0.02627682  0.53333181  0.45483320  1
  O  O237  1  0.51337919  0.51954613  0.48705423  1
  O  O238  1  0.47745947  0.81631529  0.45457458  1
  O  O239  1  0.40800978  0.28212695  0.46535386  1
  O  O240  1  0.59411700  0.07234149  0.47361942  1
  O  O241  1  0.13013700  0.71719051  0.51137175  1
  O  O242  1  0.88017247  0.66492552  0.43616854  1
  O  O243  1  0.18538356  0.31938020  0.49466575  1
  O  O244  1  0.82901701  0.02888371  0.44390299  1
  O  O245  1  0.62195642  0.04298987  0.40569149  1
  O  O246  1  0.80014496  0.52888310  0.48894417  1
  O  O247  1  0.19946362  0.80484944  0.45216331  1
  O  O248  1  0.09454131  0.25846923  0.43053309  1
  O  O249  1  0.87799327  0.07550230  0.50723426  1
  O  O250  1  0.40890458  0.41521345  0.41075154  1
  O  O251  1  0.56126387  0.93395924  0.52852248  1
