# generated using pymatgen
data_Li18La8Zr5O31
_symmetry_space_group_name_H-M   'P 1'
_cell_length_a   12.70453900
_cell_length_b   13.20454200
_cell_length_c   31.80681200
_cell_angle_alpha   90.00000000
_cell_angle_beta   90.00000000
_cell_angle_gamma   90.00000000
_symmetry_Int_Tables_number   1
_chemical_formula_structural   Li18La8Zr5O31
_chemical_formula_sum   'Li72 La32 Zr20 O124'
_cell_volume   5335.83504325
_cell_formula_units_Z   4
loop_
 _symmetry_equiv_pos_site_id
 _symmetry_equiv_pos_as_xyz
  1  'x, y, z'
loop_
 _atom_site_type_symbol
 _atom_site_label
 _atom_site_symmetry_multiplicity
 _atom_site_fract_x
 _atom_site_fract_y
 _atom_site_fract_z
 _atom_site_occupancy
  Li  Li0  1  0.69859659  0.92879300  0.13190925  1
  Li  Li1  1  0.79104022  0.13851217  0.13116956  1
  Li  Li2  1  0.19167783  0.59127667  0.13009821  1
  Li  Li3  1  0.30979342  0.43579538  0.13171496  1
  Li  Li4  1  0.87459777  0.26018165  0.17753719  1
  Li  Li5  1  0.58838823  0.71753017  0.13712209  1
  Li  Li6  1  0.37947876  0.24288164  0.14274802  1
  Li  Li7  1  0.12806567  0.74427676  0.16792582  1
  Li  Li8  1  0.33001034  0.12641625  0.19673116  1
  Li  Li9  1  0.16285539  0.90507406  0.19707262  1
  Li  Li10  1  0.75690261  0.48060498  0.21925873  1
  Li  Li11  1  0.67685770  0.63551636  0.20025024  1
  Li  Li12  1  0.41407384  0.34384912  0.20564470  1
  Li  Li13  1  0.06538515  0.67506652  0.23502801  1
  Li  Li14  1  0.96117421  0.15578226  0.24041910  1
  Li  Li15  1  0.58470686  0.81168516  0.20435765  1
  Li  Li16  1  0.33323685  0.95229458  0.23373043  1
  Li  Li17  1  0.15052100  0.06404977  0.23788941  1
  Li  Li18  1  0.57476647  0.42548800  0.24441195  1
  Li  Li19  1  0.90910493  0.57392579  0.23980046  1
  Li  Li20  1  0.38950231  0.42442442  0.29696250  1
  Li  Li21  1  0.10930966  0.57790187  0.29981966  1
  Li  Li22  1  0.65782006  0.93316832  0.30142471  1
  Li  Li23  1  0.85893546  0.07303578  0.30352752  1
  Li  Li24  1  0.06346477  0.16498603  0.30723021  1
  Li  Li25  1  0.48920707  0.87498984  0.27635224  1
  Li  Li26  1  0.56192986  0.33060074  0.30941606  1
  Li  Li27  1  0.94337416  0.67397927  0.30764514  1
  Li  Li28  1  0.19870371  0.41783844  0.33633819  1
  Li  Li29  1  0.30281816  0.58429043  0.33872479  1
  Li  Li30  1  0.69286686  0.08939148  0.34513063  1
  Li  Li31  1  0.81501705  0.91001003  0.34269162  1
  Li  Li32  1  0.37543406  0.74998454  0.37458473  1
  Li  Li33  1  0.12909694  0.24996162  0.37392314  1
  Li  Li34  1  0.87460422  0.75003094  0.37456315  1
  Li  Li35  1  0.62820533  0.25084979  0.37428992  1
  Li  Li36  1  0.81371635  0.58948232  0.40562467  1
  Li  Li37  1  0.69402044  0.41198726  0.40336795  1
  Li  Li38  1  0.30162520  0.91623579  0.40968858  1
  Li  Li39  1  0.19840980  0.08224646  0.41202250  1
  Li  Li40  1  0.94383635  0.82582475  0.44153178  1
  Li  Li41  1  0.56186083  0.16998961  0.43874346  1
  Li  Li42  1  0.48999125  0.62528259  0.47221784  1
  Li  Li43  1  0.06395033  0.33452450  0.44108699  1
  Li  Li44  1  0.86013091  0.42727701  0.44478147  1
  Li  Li45  1  0.65714098  0.56756615  0.44702448  1
  Li  Li46  1  0.10811955  0.92231453  0.44884867  1
  Li  Li47  1  0.39011429  0.07593167  0.45198445  1
  Li  Li48  1  0.90791586  0.92663199  0.50854771  1
  Li  Li49  1  0.57429966  0.07411714  0.50409549  1
  Li  Li50  1  0.15240007  0.43549806  0.51089854  1
  Li  Li51  1  0.33370895  0.54827297  0.51425950  1
  Li  Li52  1  0.58421452  0.68950374  0.54451001  1
  Li  Li53  1  0.96182805  0.34496439  0.50764734  1
  Li  Li54  1  0.06539925  0.82494505  0.51341364  1
  Li  Li55  1  0.41331290  0.15570841  0.54302809  1
  Li  Li56  1  0.67658012  0.86426797  0.54832772  1
  Li  Li57  1  0.75662795  0.01974339  0.52932785  1
  Li  Li58  1  0.16331990  0.59450378  0.55146657  1
  Li  Li59  1  0.32983289  0.37228627  0.55163725  1
  Li  Li60  1  0.87465879  0.24010863  0.57119837  1
  Li  Li61  1  0.58797054  0.78179115  0.61190358  1
  Li  Li62  1  0.37963744  0.25654152  0.60617539  1
  Li  Li63  1  0.12819316  0.75517184  0.58057818  1
  Li  Li64  1  0.31043700  0.06270507  0.61670259  1
  Li  Li65  1  0.19119699  0.90866033  0.61827845  1
  Li  Li66  1  0.79027667  0.36043974  0.61695813  1
  Li  Li67  1  0.69872244  0.57085278  0.61660004  1
  Li  Li68  1  0.09476476  0.67630247  0.64315933  1
  Li  Li69  1  0.90574868  0.20667559  0.64015691  1
  Li  Li70  1  0.90591611  0.29297201  0.10868709  1
  Li  Li71  1  0.09612806  0.82251961  0.10531908  1
  La  La72  1  0.23433440  0.00615870  0.11754719  1
  La  La73  1  0.75393230  0.46982573  0.12397076  1
  La  La74  1  0.88922698  0.74909480  0.17208305  1
  La  La75  1  0.36451133  0.76315089  0.16979591  1
  La  La76  1  0.62290217  0.25757006  0.17409885  1
  La  La77  1  0.13008246  0.24301566  0.16821557  1
  La  La78  1  0.76026104  0.00935817  0.21879636  1
  La  La79  1  0.24723540  0.51557246  0.21957194  1
  La  La80  1  0.50435525  0.12551741  0.27598394  1
  La  La81  1  0.00571472  0.37594893  0.26766599  1
  La  La82  1  0.49682242  0.63412654  0.27110890  1
  La  La83  1  0.99977539  0.88459225  0.27064400  1
  La  La84  1  0.75323692  0.50140116  0.31906456  1
  La  La85  1  0.25244283  0.00095662  0.32321454  1
  La  La86  1  0.37523689  0.24997227  0.37419982  1
  La  La87  1  0.88171531  0.24996590  0.37420111  1
  La  La88  1  0.12207677  0.75011225  0.37423162  1
  La  La89  1  0.62054816  0.75031660  0.37418603  1
  La  La90  1  0.25228898  0.49914124  0.42514032  1
  La  La91  1  0.75308007  0.99865463  0.42928046  1
  La  La92  1  0.99976166  0.61509463  0.47788243  1
  La  La93  1  0.49657388  0.86589670  0.47730121  1
  La  La94  1  0.00542169  0.12432661  0.48079971  1
  La  La95  1  0.50432448  0.37465982  0.47236356  1
  La  La96  1  0.24687206  0.98443589  0.52880431  1
  La  La97  1  0.75991573  0.49067933  0.52957504  1
  La  La98  1  0.88928186  0.75084064  0.57634328  1
  La  La99  1  0.36410995  0.73659128  0.57873932  1
  La  La100  1  0.62249716  0.24230077  0.57426464  1
  La  La101  1  0.13002183  0.25679956  0.58027342  1
  La  La102  1  0.75381735  0.03016187  0.62452565  1
  La  La103  1  0.23428893  0.49364906  0.63089461  1
  Zr  Zr104  1  0.98395834  0.00302396  0.15686845  1
  Zr  Zr105  1  0.51620321  0.00276298  0.17097746  1
  Zr  Zr106  1  0.49887185  0.51979783  0.16305279  1
  Zr  Zr107  1  0.00772169  0.49346081  0.16084926  1
  Zr  Zr108  1  0.75495451  0.25231272  0.27241726  1
  Zr  Zr109  1  0.75237490  0.74749204  0.27025806  1
  Zr  Zr110  1  0.25633145  0.24749308  0.27003404  1
  Zr  Zr111  1  0.25119385  0.76039205  0.27308775  1
  Zr  Zr112  1  0.50078154  0.50358229  0.37283571  1
  Zr  Zr113  1  0.00253383  0.49882038  0.37257551  1
  Zr  Zr114  1  0.00246974  0.00117214  0.37583820  1
  Zr  Zr115  1  0.50052475  0.99674091  0.37573359  1
  Zr  Zr116  1  0.25108002  0.73966912  0.47540314  1
  Zr  Zr117  1  0.25625805  0.25250100  0.47828664  1
  Zr  Zr118  1  0.75222222  0.75261532  0.47823770  1
  Zr  Zr119  1  0.75486972  0.24791184  0.47603531  1
  Zr  Zr120  1  0.00739503  0.00657251  0.58748165  1
  Zr  Zr121  1  0.49892266  0.97976460  0.58549214  1
  Zr  Zr122  1  0.51582703  0.49732390  0.57739849  1
  Zr  Zr123  1  0.98361266  0.49669862  0.59166455  1
  O  O124  1  0.84106814  0.92758933  0.15100877  1
  O  O125  1  0.65971070  0.06306865  0.15139782  1
  O  O126  1  0.16414217  0.45052010  0.15062088  1
  O  O127  1  0.34707884  0.57702946  0.14884281  1
  O  O128  1  0.35757054  0.96468399  0.17316759  1
  O  O129  1  0.13882781  0.04775057  0.17817914  1
  O  O130  1  0.64177967  0.44174259  0.18484260  1
  O  O131  1  0.84785168  0.55682361  0.17896325  1
  O  O132  1  0.47132429  0.15376014  0.18090633  1
  O  O133  1  0.02999340  0.84761145  0.18824535  1
  O  O134  1  0.98696402  0.34843379  0.19204764  1
  O  O135  1  0.52716133  0.66658605  0.19302327  1
  O  O136  1  0.78057656  0.19184095  0.21224481  1
  O  O137  1  0.72596592  0.77619798  0.20575048  1
  O  O138  1  0.28562771  0.27952001  0.20664962  1
  O  O139  1  0.21257909  0.69962500  0.21198526  1
  O  O140  1  0.94132104  0.02197151  0.22537008  1
  O  O141  1  0.56141914  0.96993834  0.22899746  1
  O  O142  1  0.05444266  0.53152447  0.22773703  1
  O  O143  1  0.43943067  0.48048961  0.22639781  1
  O  O144  1  0.10358887  0.20608303  0.24902644  1
  O  O145  1  0.39218851  0.80231919  0.24442120  1
  O  O146  1  0.60021998  0.28195611  0.25097645  1
  O  O147  1  0.90986109  0.71764494  0.24767411  1
  O  O148  1  0.31158188  0.09603817  0.25650569  1
  O  O149  1  0.19349634  0.90904594  0.25596167  1
  O  O150  1  0.81439158  0.39734149  0.26058510  1
  O  O151  1  0.69889721  0.59708311  0.25714090  1
  O  O152  1  0.20538609  0.39822553  0.27771858  1
  O  O153  1  0.30751986  0.61236822  0.28154903  1
  O  O154  1  0.70250244  0.09842552  0.28545504  1
  O  O155  1  0.80240896  0.89981859  0.28160028  1
  O  O156  1  0.40602041  0.27767572  0.29699714  1
  O  O157  1  0.09615384  0.72176685  0.29359136  1
  O  O158  1  0.90670919  0.21112439  0.29455377  1
  O  O159  1  0.60351278  0.78702270  0.29200097  1
  O  O160  1  0.95329793  0.53085457  0.30985376  1
  O  O161  1  0.54937733  0.47299687  0.30885175  1
  O  O162  1  0.05742846  0.02484595  0.31391348  1
  O  O163  1  0.44801263  0.97844751  0.31390095  1
  O  O164  1  0.71732844  0.30740680  0.33248083  1
  O  O165  1  0.78779092  0.69373638  0.33053581  1
  O  O166  1  0.21832409  0.19212773  0.33100116  1
  O  O167  1  0.27272057  0.81229504  0.33395394  1
  O  O168  1  0.03807453  0.35211021  0.35066634  1
  O  O169  1  0.46857612  0.64874371  0.35026715  1
  O  O170  1  0.53862138  0.14590571  0.35394238  1
  O  O171  1  0.96261923  0.85495289  0.35269379  1
  O  O172  1  0.34810265  0.44690541  0.35802397  1
  O  O173  1  0.15367506  0.55373197  0.35707321  1
  O  O174  1  0.65553834  0.94425999  0.36197679  1
  O  O175  1  0.84844571  0.05440330  0.36226891  1
  O  O176  1  0.84832688  0.44549136  0.38605264  1
  O  O177  1  0.65573817  0.55606127  0.38653948  1
  O  O178  1  0.15338503  0.94616076  0.39151893  1
  O  O179  1  0.34790329  0.05336007  0.39042678  1
  O  O180  1  0.96264762  0.64490382  0.39563759  1
  O  O181  1  0.53852315  0.35460465  0.39478929  1
  O  O182  1  0.46859326  0.85151700  0.39829404  1
  O  O183  1  0.03792268  0.14805548  0.39752700  1
  O  O184  1  0.27247529  0.68764706  0.41456320  1
  O  O185  1  0.21818512  0.30778581  0.41728987  1
  O  O186  1  0.78763958  0.80661133  0.41800265  1
  O  O187  1  0.71742708  0.19302351  0.41587356  1
  O  O188  1  0.44796282  0.52209001  0.43460140  1
  O  O189  1  0.05662192  0.47481176  0.43455220  1
  O  O190  1  0.54916859  0.02733125  0.43971602  1
  O  O191  1  0.95306766  0.96920979  0.43857776  1
  O  O192  1  0.60341695  0.71331774  0.45635219  1
  O  O193  1  0.90684665  0.28880785  0.45388361  1
  O  O194  1  0.09593862  0.77823928  0.45495727  1
  O  O195  1  0.40597830  0.22247498  0.45140076  1
  O  O196  1  0.80228802  0.60037788  0.46674781  1
  O  O197  1  0.70279134  0.40179006  0.46301132  1
  O  O198  1  0.30734742  0.88760942  0.46684607  1
  O  O199  1  0.20491451  0.10192418  0.47071616  1
  O  O200  1  0.69884425  0.90296161  0.49136699  1
  O  O201  1  0.81412567  0.10274803  0.48781032  1
  O  O202  1  0.19349606  0.59088493  0.49247890  1
  O  O203  1  0.31151791  0.40394213  0.49192281  1
  O  O204  1  0.90976274  0.78232031  0.50082801  1
  O  O205  1  0.59999978  0.21823129  0.49745757  1
  O  O206  1  0.39226332  0.69790172  0.50397267  1
  O  O207  1  0.10376633  0.29423214  0.49933632  1
  O  O208  1  0.43893507  0.01946350  0.52208173  1
  O  O209  1  0.05388824  0.96851808  0.52060113  1
  O  O210  1  0.56108804  0.52984427  0.51933748  1
  O  O211  1  0.94084642  0.47824228  0.52314126  1
  O  O212  1  0.21241040  0.80033133  0.53645740  1
  O  O213  1  0.28536931  0.22061537  0.54169209  1
  O  O214  1  0.72583333  0.72377052  0.54270396  1
  O  O215  1  0.78012305  0.30797071  0.53633089  1
  O  O216  1  0.52711832  0.83328776  0.55556033  1
  O  O217  1  0.98689148  0.15170758  0.55635639  1
  O  O218  1  0.03010185  0.65205199  0.56042604  1
  O  O219  1  0.47089170  0.34634819  0.56788552  1
  O  O220  1  0.84768768  0.94350914  0.56947567  1
  O  O221  1  0.64145072  0.05808728  0.56363283  1
  O  O222  1  0.13863813  0.45190943  0.57036799  1
  O  O223  1  0.35724379  0.53615029  0.57508961  1
  O  O224  1  0.34709621  0.92255270  0.59977055  1
  O  O225  1  0.16413066  0.04933796  0.59758389  1
  O  O226  1  0.65949035  0.43711102  0.59696252  1
  O  O227  1  0.84111174  0.57271670  0.59760794  1
  O  O228  1  0.06131418  0.95807251  0.10460354  1
  O  O229  1  0.60578789  0.57986059  0.12023376  1
  O  O230  1  0.93070817  0.43537398  0.11072667  1
  O  O231  1  0.22593019  0.81568243  0.13036662  1
  O  O232  1  0.25842907  0.17553408  0.12322063  1
  O  O233  1  0.76161132  0.28932786  0.12753882  1
  O  O234  1  0.55477783  0.86233472  0.14514739  1
  O  O235  1  0.94616944  0.15169344  0.14229744  1
  O  O236  1  0.04400641  0.64366887  0.14259572  1
  O  O237  1  0.44699710  0.37515401  0.14635880  1
  O  O238  1  0.44681296  0.12442060  0.60218533  1
  O  O239  1  0.04369047  0.85637489  0.60569258  1
  O  O240  1  0.94569627  0.34808621  0.60619281  1
  O  O241  1  0.55419957  0.63767625  0.60340248  1
  O  O242  1  0.76116504  0.21044062  0.62100902  1
  O  O243  1  0.25841075  0.32432582  0.62525364  1
  O  O244  1  0.22527489  0.68403281  0.61818186  1
  O  O245  1  0.93066311  0.06458489  0.63773560  1
  O  O246  1  0.60567212  0.92000799  0.62838999  1
  O  O247  1  0.06108490  0.54090488  0.64399879  1
