# generated using pymatgen
data_Li18La8Zr5O31
_symmetry_space_group_name_H-M   'P 1'
_cell_length_a   12.70453900
_cell_length_b   13.20454200
_cell_length_c   31.80681200
_cell_angle_alpha   90.00000000
_cell_angle_beta   90.00000000
_cell_angle_gamma   90.00000000
_symmetry_Int_Tables_number   1
_chemical_formula_structural   Li18La8Zr5O31
_chemical_formula_sum   'Li72 La32 Zr20 O124'
_cell_volume   5335.83504325
_cell_formula_units_Z   4
loop_
 _symmetry_equiv_pos_site_id
 _symmetry_equiv_pos_as_xyz
  1  'x, y, z'
loop_
 _atom_site_type_symbol
 _atom_site_label
 _atom_site_symmetry_multiplicity
 _atom_site_fract_x
 _atom_site_fract_y
 _atom_site_fract_z
 _atom_site_occupancy
  Li  Li0  1  0.69109752  0.93290434  0.13060782  1
  Li  Li1  1  0.78807081  0.13227946  0.12673150  1
  Li  Li2  1  0.21399182  0.63250021  0.12481830  1
  Li  Li3  1  0.30369763  0.42897187  0.13216947  1
  Li  Li4  1  0.87078525  0.24783258  0.17403282  1
  Li  Li5  1  0.61675423  0.76157916  0.17158665  1
  Li  Li6  1  0.41085742  0.21637835  0.13789707  1
  Li  Li7  1  0.13333417  0.74701534  0.16893471  1
  Li  Li8  1  0.32105534  0.12732872  0.19982366  1
  Li  Li9  1  0.17915351  0.91005419  0.20032474  1
  Li  Li10  1  0.81134184  0.42299310  0.20563981  1
  Li  Li11  1  0.69141663  0.58053440  0.20163331  1
  Li  Li12  1  0.40909895  0.32721606  0.20349998  1
  Li  Li13  1  0.06425402  0.67317027  0.23493382  1
  Li  Li14  1  0.94958477  0.15456910  0.24136237  1
  Li  Li15  1  0.54070325  0.85313610  0.24208272  1
  Li  Li16  1  0.34867502  0.94252053  0.23887788  1
  Li  Li17  1  0.14836557  0.06932387  0.23609677  1
  Li  Li18  1  0.57935755  0.42033456  0.24169118  1
  Li  Li19  1  0.90248206  0.57507828  0.23645877  1
  Li  Li20  1  0.39186078  0.42310892  0.29323232  1
  Li  Li21  1  0.11157216  0.57800985  0.30044946  1
  Li  Li22  1  0.65020521  0.93742376  0.30272340  1
  Li  Li23  1  0.85079976  0.06630645  0.30387098  1
  Li  Li24  1  0.05808847  0.16446821  0.30656852  1
  Li  Li25  1  0.44427340  0.83693104  0.30820044  1
  Li  Li26  1  0.56054697  0.32927653  0.30904855  1
  Li  Li27  1  0.94199335  0.67514204  0.30649181  1
  Li  Li28  1  0.20092751  0.41978953  0.33554887  1
  Li  Li29  1  0.30587159  0.58447539  0.33822216  1
  Li  Li30  1  0.69093177  0.08921529  0.34652812  1
  Li  Li31  1  0.81386540  0.90713254  0.34273108  1
  Li  Li32  1  0.37537193  0.74984792  0.37464195  1
  Li  Li33  1  0.12670610  0.25001344  0.37442887  1
  Li  Li34  1  0.87665983  0.74989536  0.37449661  1
  Li  Li35  1  0.62661948  0.24998451  0.37441409  1
  Li  Li36  1  0.81347515  0.59145743  0.40561589  1
  Li  Li37  1  0.69085022  0.41054458  0.40187455  1
  Li  Li38  1  0.30576829  0.91585863  0.41026091  1
  Li  Li39  1  0.20107331  0.08048353  0.41283353  1
  Li  Li40  1  0.94307402  0.82485091  0.44214734  1
  Li  Li41  1  0.55974246  0.17088560  0.43930159  1
  Li  Li42  1  0.44478145  0.66255270  0.44137935  1
  Li  Li43  1  0.05765124  0.33513392  0.44193709  1
  Li  Li44  1  0.85121104  0.43342875  0.44469911  1
  Li  Li45  1  0.64943183  0.56275459  0.44586991  1
  Li  Li46  1  0.11226230  0.92186898  0.44773214  1
  Li  Li47  1  0.39064738  0.07721629  0.45534426  1
  Li  Li48  1  0.90039273  0.92500079  0.51201921  1
  Li  Li49  1  0.57962632  0.07978966  0.50668017  1
  Li  Li50  1  0.14932736  0.43098498  0.51234013  1
  Li  Li51  1  0.34861317  0.55634728  0.50950014  1
  Li  Li52  1  0.54167200  0.64822638  0.50773296  1
  Li  Li53  1  0.94983043  0.34592157  0.50711295  1
  Li  Li54  1  0.06300083  0.82762143  0.51286258  1
  Li  Li55  1  0.40977272  0.17430591  0.54470072  1
  Li  Li56  1  0.69116224  0.91952056  0.54644974  1
  Li  Li57  1  0.80933528  0.07725618  0.54274488  1
  Li  Li58  1  0.17810785  0.58917818  0.54820160  1
  Li  Li59  1  0.32093425  0.37314866  0.54918079  1
  Li  Li60  1  0.87073170  0.25220429  0.57403023  1
  Li  Li61  1  0.61731799  0.73815502  0.57765367  1
  Li  Li62  1  0.41018142  0.28396233  0.61048252  1
  Li  Li63  1  0.13261523  0.75343049  0.57896444  1
  Li  Li64  1  0.30422117  0.07178812  0.61604841  1
  Li  Li65  1  0.21493501  0.86765160  0.62366156  1
  Li  Li66  1  0.78816264  0.36663386  0.62172217  1
  Li  Li67  1  0.69113799  0.56626268  0.61833735  1
  Li  Li68  1  0.09659053  0.69703269  0.64396757  1
  Li  Li69  1  0.90927293  0.20508186  0.64042968  1
  Li  Li70  1  0.90906181  0.29477596  0.10784958  1
  Li  Li71  1  0.09627391  0.80413360  0.10390466  1
  La  La72  1  0.24994942  0.97460875  0.11836269  1
  La  La73  1  0.75131635  0.46343917  0.11873418  1
  La  La74  1  0.89011297  0.75540911  0.17251109  1
  La  La75  1  0.38369723  0.75752864  0.16937659  1
  La  La76  1  0.62612261  0.25310925  0.17558246  1
  La  La77  1  0.11102383  0.25236335  0.17361698  1
  La  La78  1  0.75277550  0.00311896  0.21683852  1
  La  La79  1  0.24831265  0.51363696  0.21764574  1
  La  La80  1  0.50283970  0.12247178  0.27152561  1
  La  La81  1  0.00373885  0.37898740  0.26959408  1
  La  La82  1  0.49997125  0.62497860  0.26832660  1
  La  La83  1  0.00132421  0.88637413  0.26992072  1
  La  La84  1  0.75244658  0.50257331  0.31803726  1
  La  La85  1  0.25086881  0.00223831  0.32320361  1
  La  La86  1  0.37644814  0.25007384  0.37423830  1
  La  La87  1  0.88053873  0.24997997  0.37422238  1
  La  La88  1  0.12465071  0.74987548  0.37417640  1
  La  La89  1  0.62505923  0.74992424  0.37421056  1
  La  La90  1  0.25078574  0.49772957  0.42524568  1
  La  La91  1  0.75242356  0.99719875  0.43029682  1
  La  La92  1  0.00102526  0.61342778  0.47849040  1
  La  La93  1  0.49983954  0.87526973  0.48004004  1
  La  La94  1  0.00350256  0.12069779  0.47894714  1
  La  La95  1  0.50282801  0.37757795  0.47700433  1
  La  La96  1  0.24826366  0.98646238  0.53080433  1
  La  La97  1  0.75253975  0.49689575  0.53170598  1
  La  La98  1  0.88983462  0.74449079  0.57592362  1
  La  La99  1  0.38366919  0.74255165  0.57894951  1
  La  La100  1  0.62583895  0.24685693  0.57299983  1
  La  La101  1  0.11090552  0.24763771  0.57489099  1
  La  La102  1  0.75145142  0.03632316  0.62971706  1
  La  La103  1  0.24985394  0.52594822  0.63012297  1
  Zr  Zr104  1  0.99102349  0.00266075  0.15615671  1
  Zr  Zr105  1  0.49996442  0.01281337  0.16296770  1
  Zr  Zr106  1  0.49898390  0.50708168  0.15888318  1
  Zr  Zr107  1  0.00939883  0.50005041  0.15741703  1
  Zr  Zr108  1  0.75366657  0.24841445  0.27429634  1
  Zr  Zr109  1  0.74916273  0.75253013  0.26975011  1
  Zr  Zr110  1  0.25416711  0.24715403  0.27082357  1
  Zr  Zr111  1  0.25191949  0.75490237  0.27193920  1
  Zr  Zr112  1  0.49954095  0.50076443  0.37194736  1
  Zr  Zr113  1  0.00193391  0.50022849  0.37297416  1
  Zr  Zr114  1  0.00189456  0.99963899  0.37546488  1
  Zr  Zr115  1  0.49963605  0.99938265  0.37654232  1
  Zr  Zr116  1  0.25168127  0.74492939  0.47664784  1
  Zr  Zr117  1  0.25405456  0.25297658  0.47778193  1
  Zr  Zr118  1  0.74896554  0.74719260  0.47865043  1
  Zr  Zr119  1  0.75349794  0.25155479  0.47414549  1
  Zr  Zr120  1  0.00920211  0.99974141  0.59088044  1
  Zr  Zr121  1  0.49912734  0.99308291  0.58939231  1
  Zr  Zr122  1  0.49996113  0.48721347  0.58564333  1
  Zr  Zr123  1  0.99079490  0.49745232  0.59235586  1
  O  O124  1  0.84365605  0.93269488  0.14898453  1
  O  O125  1  0.65312254  0.06807066  0.14906509  1
  O  O126  1  0.15695797  0.43028630  0.15236610  1
  O  O127  1  0.34599550  0.56758801  0.14809235  1
  O  O128  1  0.34695993  0.93749014  0.17954404  1
  O  O129  1  0.15116484  0.05759741  0.17424614  1
  O  O130  1  0.65076914  0.43864971  0.18407702  1
  O  O131  1  0.84701569  0.55793361  0.17638969  1
  O  O132  1  0.47093543  0.16063371  0.19255849  1
  O  O133  1  0.03793094  0.84964147  0.18859938  1
  O  O134  1  0.96522192  0.35272650  0.19165048  1
  O  O135  1  0.53490398  0.64928770  0.19082797  1
  O  O136  1  0.78295505  0.19017131  0.21343406  1
  O  O137  1  0.72752877  0.79788212  0.20666781  1
  O  O138  1  0.27467249  0.26997331  0.20507658  1
  O  O139  1  0.21865400  0.69857129  0.21110159  1
  O  O140  1  0.94505768  0.02104745  0.22292950  1
  O  O141  1  0.55839084  0.98582514  0.22601103  1
  O  O142  1  0.05148580  0.53192795  0.22506717  1
  O  O143  1  0.43674904  0.46917477  0.22593441  1
  O  O144  1  0.09447516  0.20969280  0.24784836  1
  O  O145  1  0.40323322  0.79375452  0.24889909  1
  O  O146  1  0.60314967  0.28095503  0.25205574  1
  O  O147  1  0.90771710  0.71911993  0.24633127  1
  O  O148  1  0.30366485  0.09506451  0.25791517  1
  O  O149  1  0.19707817  0.90533616  0.25812282  1
  O  O150  1  0.81535534  0.39587507  0.26208121  1
  O  O151  1  0.69512907  0.60521876  0.25948148  1
  O  O152  1  0.20114590  0.39769976  0.27654210  1
  O  O153  1  0.30656812  0.60624763  0.28055318  1
  O  O154  1  0.70054831  0.09742765  0.28660857  1
  O  O155  1  0.80316748  0.90425003  0.28212932  1
  O  O156  1  0.40209015  0.27711590  0.29578215  1
  O  O157  1  0.09777039  0.72082100  0.29325105  1
  O  O158  1  0.90511464  0.20752943  0.29646836  1
  O  O159  1  0.60002148  0.79276792  0.29278252  1
  O  O160  1  0.95502739  0.53282307  0.31000786  1
  O  O161  1  0.54973525  0.47189361  0.30801370  1
  O  O162  1  0.05724188  0.02437561  0.31360550  1
  O  O163  1  0.44535524  0.97676301  0.31475311  1
  O  O164  1  0.71779803  0.30796912  0.33353304  1
  O  O165  1  0.78825964  0.69982294  0.33026908  1
  O  O166  1  0.21404139  0.19343587  0.33063311  1
  O  O167  1  0.28484735  0.80794192  0.33240944  1
  O  O168  1  0.03728758  0.35384076  0.35046659  1
  O  O169  1  0.46831537  0.64962058  0.35043077  1
  O  O170  1  0.53664539  0.14606833  0.35556526  1
  O  O171  1  0.96619879  0.85277068  0.35246660  1
  O  O172  1  0.34724642  0.44545339  0.35707392  1
  O  O173  1  0.15517008  0.55655525  0.35775295  1
  O  O174  1  0.65476832  0.94450165  0.36319149  1
  O  O175  1  0.84842303  0.05040422  0.36294857  1
  O  O176  1  0.84842310  0.44915256  0.38544694  1
  O  O177  1  0.65475320  0.55542568  0.38529467  1
  O  O178  1  0.15534050  0.94352995  0.39061448  1
  O  O179  1  0.34729937  0.05465390  0.39141701  1
  O  O180  1  0.96607757  0.64683279  0.39605120  1
  O  O181  1  0.53649911  0.35394760  0.39300107  1
  O  O182  1  0.46820831  0.85052783  0.39802249  1
  O  O183  1  0.03709155  0.14612696  0.39803183  1
  O  O184  1  0.28463364  0.69138779  0.41629526  1
  O  O185  1  0.21413841  0.30652126  0.41791899  1
  O  O186  1  0.78785908  0.80024240  0.41821312  1
  O  O187  1  0.71815131  0.19209556  0.41488174  1
  O  O188  1  0.44526250  0.52307687  0.43375821  1
  O  O189  1  0.05698483  0.47531213  0.43485790  1
  O  O190  1  0.54996412  0.02818529  0.44041233  1
  O  O191  1  0.95518972  0.96708872  0.43839772  1
  O  O192  1  0.59962578  0.70708126  0.45596163  1
  O  O193  1  0.90508275  0.29242593  0.45208435  1
  O  O194  1  0.09760210  0.77914388  0.45514763  1
  O  O195  1  0.40200921  0.22300109  0.45276767  1
  O  O196  1  0.80310880  0.59554965  0.46629316  1
  O  O197  1  0.70045075  0.40251422  0.46187947  1
  O  O198  1  0.30627282  0.89355452  0.46782912  1
  O  O199  1  0.20148720  0.10224945  0.47192483  1
  O  O200  1  0.69507129  0.89464905  0.48888340  1
  O  O201  1  0.81512024  0.10391386  0.48637628  1
  O  O202  1  0.19677475  0.59443253  0.49042929  1
  O  O203  1  0.30362427  0.40501704  0.49070729  1
  O  O204  1  0.90748875  0.78091056  0.50203159  1
  O  O205  1  0.60285236  0.21914270  0.49631938  1
  O  O206  1  0.40298742  0.70626768  0.49987173  1
  O  O207  1  0.09463814  0.29035279  0.50067317  1
  O  O208  1  0.43683075  0.03069665  0.52239364  1
  O  O209  1  0.05081496  0.96831550  0.52333829  1
  O  O210  1  0.55825063  0.51434063  0.52263519  1
  O  O211  1  0.94448402  0.47909806  0.52561913  1
  O  O212  1  0.21834028  0.80200544  0.53726355  1
  O  O213  1  0.27468574  0.23014765  0.54355567  1
  O  O214  1  0.72699380  0.70164591  0.54173990  1
  O  O215  1  0.78244350  0.30976552  0.53503553  1
  O  O216  1  0.53516089  0.85041302  0.55765866  1
  O  O217  1  0.96533926  0.14754906  0.55679550  1
  O  O218  1  0.03741987  0.65026754  0.55976964  1
  O  O219  1  0.47078877  0.33943788  0.55598301  1
  O  O220  1  0.84653370  0.94204481  0.57203547  1
  O  O221  1  0.65081087  0.06146345  0.56417134  1
  O  O222  1  0.15103699  0.44271812  0.57416951  1
  O  O223  1  0.34723492  0.56238048  0.56891697  1
  O  O224  1  0.34630850  0.93276304  0.60031365  1
  O  O225  1  0.15693127  0.06932856  0.59592678  1
  O  O226  1  0.65297521  0.43145172  0.59967689  1
  O  O227  1  0.84349416  0.56742605  0.59958768  1
  O  O228  1  0.39795270  0.07836685  0.11860302  1
  O  O229  1  0.06906726  0.94383829  0.10621099  1
  O  O230  1  0.59305156  0.53814064  0.11055087  1
  O  O231  1  0.93468911  0.43733605  0.10799039  1
  O  O232  1  0.23733786  0.78872220  0.12402653  1
  O  O233  1  0.76592194  0.28543450  0.12702558  1
  O  O234  1  0.54579161  0.86899303  0.14526947  1
  O  O235  1  0.95260549  0.15215544  0.14026929  1
  O  O236  1  0.04808938  0.64875396  0.14017927  1
  O  O237  1  0.44507522  0.36045221  0.14536579  1
  O  O238  1  0.44557232  0.13995266  0.60283740  1
  O  O239  1  0.04741643  0.85085128  0.60821436  1
  O  O240  1  0.95263879  0.34782108  0.60814509  1
  O  O241  1  0.54607772  0.63073157  0.60357056  1
  O  O242  1  0.76603109  0.21423977  0.62141401  1
  O  O243  1  0.23753004  0.71181989  0.62416220  1
  O  O244  1  0.93477774  0.06243604  0.64042241  1
  O  O245  1  0.59291401  0.96208582  0.63782057  1
  O  O246  1  0.06914543  0.55682641  0.64211822  1
  O  O247  1  0.39733889  0.42163635  0.62985860  1
