# generated using pymatgen
data_Li40La18Zr10O67
_symmetry_space_group_name_H-M   'P 1'
_cell_length_a   11.29297700
_cell_length_b   11.29297737
_cell_length_c   40.01105500
_cell_angle_alpha   90.00000000
_cell_angle_beta   90.00000000
_cell_angle_gamma   111.54263211
_symmetry_Int_Tables_number   1
_chemical_formula_structural   Li40La18Zr10O67
_chemical_formula_sum   'Li80 La36 Zr20 O134'
_cell_volume   4746.21466431
_cell_formula_units_Z   2
loop_
 _symmetry_equiv_pos_site_id
 _symmetry_equiv_pos_as_xyz
  1  'x, y, z'
loop_
 _atom_site_type_symbol
 _atom_site_label
 _atom_site_symmetry_multiplicity
 _atom_site_fract_x
 _atom_site_fract_y
 _atom_site_fract_z
 _atom_site_occupancy
  Li  Li0  1  0.28934478  0.50548959  0.10746526  1
  Li  Li1  1  0.73640537  0.98648268  0.11340446  1
  Li  Li2  1  0.85534601  0.48251629  0.11210210  1
  Li  Li3  1  0.94734138  0.93652861  0.12623746  1
  Li  Li4  1  0.07845936  0.55409791  0.12795211  1
  Li  Li5  1  0.00344048  0.74005986  0.14507312  1
  Li  Li6  1  0.37212420  0.52943034  0.16575065  1
  Li  Li7  1  0.14167496  0.97561553  0.16601605  1
  Li  Li8  1  0.62718154  0.97007147  0.17004722  1
  Li  Li9  1  0.85696072  0.52359937  0.17133790  1
  Li  Li10  1  0.49550659  0.73851256  0.19637406  1
  Li  Li11  1  0.56508508  0.54590363  0.20334552  1
  Li  Li12  1  0.44027387  0.94503093  0.20771401  1
  Li  Li13  1  0.33344012  0.44167400  0.22199263  1
  Li  Li14  1  0.24716426  0.00049713  0.22369574  1
  Li  Li15  1  0.74982786  0.49842557  0.22595258  1
  Li  Li16  1  0.69822537  0.09077995  0.22630174  1
  Li  Li17  1  0.19168425  0.19902601  0.24131184  1
  Li  Li18  1  0.80018395  0.31401712  0.24466883  1
  Li  Li19  1  0.97396293  0.23084785  0.25923330  1
  Li  Li20  1  0.77166609  0.60559414  0.28104635  1
  Li  Li21  1  0.21758466  0.38400051  0.28222588  1
  Li  Li22  1  0.21874734  0.88579997  0.28332925  1
  Li  Li23  1  0.77122138  0.10436353  0.28662309  1
  Li  Li24  1  0.98024881  0.73384326  0.30914432  1
  Li  Li25  1  0.80358806  0.81466202  0.32250540  1
  Li  Li26  1  0.19387037  0.69731453  0.32288080  1
  Li  Li27  1  0.69487344  0.58599234  0.34065132  1
  Li  Li28  1  0.74906121  0.99867897  0.34182313  1
  Li  Li29  1  0.24833118  0.49824143  0.34133224  1
  Li  Li30  1  0.33679169  0.94380176  0.34197618  1
  Li  Li31  1  0.44665245  0.44403560  0.36021679  1
  Li  Li32  1  0.56348053  0.05294199  0.36070879  1
  Li  Li33  1  0.48314210  0.23114722  0.37499395  1
  Li  Li34  1  0.85553235  0.02133744  0.39749255  1
  Li  Li35  1  0.63533480  0.46792366  0.39951770  1
  Li  Li36  1  0.13509930  0.46720396  0.40045582  1
  Li  Li37  1  0.35580325  0.02147615  0.40202421  1
  Li  Li38  1  0.98212702  0.22980227  0.42501525  1
  Li  Li39  1  0.06291658  0.05269295  0.43897922  1
  Li  Li40  1  0.94601202  0.44384167  0.43976858  1
  Li  Li41  1  0.83649317  0.94372196  0.45809035  1
  Li  Li42  1  0.74818383  0.49807720  0.45849657  1
  Li  Li43  1  0.24918553  0.99862531  0.45793164  1
  Li  Li44  1  0.19372293  0.58660456  0.45889497  1
  Li  Li45  1  0.69442252  0.69722760  0.47669565  1
  Li  Li46  1  0.30407606  0.81461023  0.47755570  1
  Li  Li47  1  0.48299880  0.73580024  0.49085651  1
  Li  Li48  1  0.27068666  0.10468175  0.51323068  1
  Li  Li49  1  0.71996910  0.88655901  0.51691487  1
  Li  Li50  1  0.71843954  0.38543124  0.51748768  1
  Li  Li51  1  0.27458300  0.60813223  0.51883653  1
  Li  Li52  1  0.47376333  0.23069305  0.54031410  1
  Li  Li53  1  0.30023922  0.31434367  0.55530628  1
  Li  Li54  1  0.69165433  0.19977569  0.55835691  1
  Li  Li55  1  0.19798470  0.09105748  0.57363316  1
  Li  Li56  1  0.24938442  0.49863791  0.57395082  1
  Li  Li57  1  0.74713118  0.00043634  0.57641258  1
  Li  Li58  1  0.83414291  0.44118035  0.57799456  1
  Li  Li59  1  0.94032724  0.94469194  0.59212134  1
  Li  Li60  1  0.06473950  0.54506663  0.59679160  1
  Li  Li61  1  0.99215097  0.73373327  0.60352878  1
  Li  Li62  1  0.35778513  0.52322014  0.62856110  1
  Li  Li63  1  0.12603949  0.96872152  0.62916077  1
  Li  Li64  1  0.64159662  0.97579147  0.63461779  1
  Li  Li65  1  0.87037627  0.52776539  0.63472019  1
  Li  Li66  1  0.50311822  0.73911399  0.65498275  1
  Li  Li67  1  0.57935715  0.55370072  0.67220250  1
  Li  Li68  1  0.44849766  0.93672920  0.67372433  1
  Li  Li69  1  0.35580214  0.48254223  0.68789404  1
  Li  Li70  1  0.23675488  0.98664208  0.68588622  1
  Li  Li71  1  0.79015686  0.50727582  0.69294300  1
  Li  Li72  1  0.65036705  0.02998386  0.69813747  1
  Li  Li73  1  0.17871293  0.15099686  0.70674395  1
  Li  Li74  1  0.85506700  0.18976061  0.72230833  1
  Li  Li75  1  0.27991255  0.36366600  0.73899202  1
  Li  Li76  1  0.77759478  0.36224232  0.06134881  1
  Li  Li77  1  0.35430067  0.18918178  0.07764803  1
  Li  Li78  1  0.67684225  0.15136877  0.09364337  1
  Li  Li79  1  0.15113795  0.03005167  0.10267912  1
  La  La80  1  0.83112961  0.69517677  0.08361536  1
  La  La81  1  0.18178783  0.80278447  0.08461820  1
  La  La82  1  0.50682574  0.75468788  0.11631367  1
  La  La83  1  0.97949049  0.25064698  0.11287267  1
  La  La84  1  0.56859872  0.43696178  0.12546024  1
  La  La85  1  0.42906305  0.05719136  0.13364535  1
  La  La86  1  0.93820030  0.06312898  0.19591949  1
  La  La87  1  0.05991033  0.43116455  0.19850514  1
  La  La88  1  0.00177517  0.74932829  0.22672404  1
  La  La89  1  0.49367102  0.24930797  0.22245253  1
  La  La90  1  0.68598809  0.81582402  0.25383893  1
  La  La91  1  0.31229196  0.68193695  0.25540373  1
  La  La92  1  0.31123036  0.18654887  0.31196688  1
  La  La93  1  0.68161738  0.31261027  0.31365400  1
  La  La94  1  0.99822601  0.24910355  0.34201198  1
  La  La95  1  0.49915705  0.74834923  0.34160667  1
  La  La96  1  0.06466755  0.93405798  0.36960836  1
  La  La97  1  0.93530733  0.56095925  0.37106964  1
  La  La98  1  0.43516950  0.56114131  0.42890742  1
  La  La99  1  0.56461612  0.93433288  0.43028851  1
  La  La100  1  0.49814221  0.24912700  0.45788982  1
  La  La101  1  0.99924896  0.74869114  0.45834956  1
  La  La102  1  0.18181812  0.31314702  0.48628345  1
  La  La103  1  0.81138841  0.18675607  0.48798101  1
  La  La104  1  0.81234769  0.68189130  0.54447609  1
  La  La105  1  0.18610284  0.81603878  0.54621591  1
  La  La106  1  0.50236509  0.74954626  0.57335492  1
  La  La107  1  0.99386437  0.24904267  0.57755072  1
  La  La108  1  0.56024419  0.43102270  0.60140641  1
  La  La109  1  0.43871004  0.06334789  0.60394575  1
  La  La110  1  0.92984321  0.05728340  0.66655336  1
  La  La111  1  0.06937232  0.43705371  0.67461267  1
  La  La112  1  0.00776490  0.75492719  0.68363053  1
  La  La113  1  0.48055079  0.25115379  0.68716086  1
  La  La114  1  0.68214331  0.80268226  0.71545485  1
  La  La115  1  0.33131361  0.69530950  0.71636593  1
  Zr  Zr116  1  0.75678458  0.74992653  0.16851359  1
  Zr  Zr117  1  0.25292491  0.25372750  0.16035213  1
  Zr  Zr118  1  0.73967993  0.24898016  0.16708226  1
  Zr  Zr119  1  0.24989313  0.74319204  0.16994739  1
  Zr  Zr120  1  0.00083112  0.00076365  0.28319916  1
  Zr  Zr121  1  0.49870989  0.49820619  0.28222628  1
  Zr  Zr122  1  0.49860013  0.99938374  0.28268158  1
  Zr  Zr123  1  0.99734779  0.49761740  0.28442840  1
  Zr  Zr124  1  0.24793452  0.24842739  0.39960922  1
  Zr  Zr125  1  0.74943670  0.74806374  0.40004644  1
  Zr  Zr126  1  0.24943513  0.74801748  0.39981362  1
  Zr  Zr127  1  0.74793276  0.24852122  0.40033501  1
  Zr  Zr128  1  0.49761363  0.49799174  0.51551986  1
  Zr  Zr129  1  0.99893513  0.99956194  0.51718816  1
  Zr  Zr130  1  0.99949045  0.49851739  0.51774112  1
  Zr  Zr131  1  0.50104738  0.00071791  0.51669949  1
  Zr  Zr132  1  0.75024097  0.74329352  0.63011422  1
  Zr  Zr133  1  0.24000785  0.24876708  0.63298919  1
  Zr  Zr134  1  0.75357957  0.25337187  0.63975124  1
  Zr  Zr135  1  0.25721740  0.74990750  0.63139612  1
  O  O136  1  0.75058961  0.82903810  0.11918211  1
  O  O137  1  0.26920358  0.66776475  0.12024308  1
  O  O138  1  0.36894739  0.25356989  0.11990565  1
  O  O139  1  0.62361705  0.24234217  0.12669765  1
  O  O140  1  0.20128230  0.87100115  0.14028813  1
  O  O141  1  0.80188695  0.61594426  0.13977930  1
  O  O142  1  0.08706504  0.10498317  0.13890653  1
  O  O143  1  0.18286761  0.38982985  0.13912199  1
  O  O144  1  0.81648400  0.11292791  0.14607095  1
  O  O145  1  0.90961954  0.39077682  0.14638750  1
  O  O146  1  0.56020173  0.64731436  0.16419614  1
  O  O147  1  0.44441983  0.85166425  0.16670140  1
  O  O148  1  0.95415393  0.86154592  0.17221259  1
  O  O149  1  0.05311015  0.63207247  0.17436407  1
  O  O150  1  0.41171588  0.38971751  0.18457827  1
  O  O151  1  0.30790251  0.11325555  0.18434666  1
  O  O152  1  0.68690436  0.38551044  0.18945133  1
  O  O153  1  0.58432854  0.10703054  0.19012759  1
  O  O154  1  0.28641423  0.59818767  0.19657659  1
  O  O155  1  0.72070662  0.89381926  0.19586591  1
  O  O156  1  0.13133322  0.25488055  0.20253112  1
  O  O157  1  0.85994322  0.23806108  0.20935420  1
  O  O158  1  0.76796335  0.66861730  0.21440964  1
  O  O159  1  0.23661552  0.82611703  0.21566330  1
  O  O160  1  0.08003038  0.98850926  0.23643023  1
  O  O161  1  0.91615663  0.50840907  0.23762146  1
  O  O162  1  0.49330712  0.61091502  0.24036693  1
  O  O163  1  0.50370779  0.87639153  0.24318434  1
  O  O164  1  0.13896627  0.46601480  0.25532485  1
  O  O165  1  0.85801588  0.03923303  0.25519945  1
  O  O166  1  0.35367313  0.33750517  0.26014711  1
  O  O167  1  0.63377674  0.43181490  0.26157156  1
  O  O168  1  0.36768096  0.06644099  0.25958908  1
  O  O169  1  0.64359107  0.16220256  0.26396490  1
  O  O170  1  0.89033893  0.80295686  0.27871163  1
  O  O171  1  0.10422207  0.69702576  0.27990441  1
  O  O172  1  0.10521970  0.19919810  0.28670257  1
  O  O173  1  0.88751423  0.30111422  0.28951480  1
  O  O174  1  0.64150562  0.66246170  0.30331662  1
  O  O175  1  0.36469601  0.56610370  0.30435347  1
  O  O176  1  0.63474318  0.93297625  0.30503865  1
  O  O177  1  0.35464212  0.83641083  0.30486265  1
  O  O178  1  0.85540506  0.53794946  0.31224206  1
  O  O179  1  0.14451885  0.97051888  0.31188951  1
  O  O180  1  0.50151276  0.37897144  0.32312888  1
  O  O181  1  0.48659822  0.10908639  0.32507202  1
  O  O182  1  0.91843161  0.01118271  0.33028455  1
  O  O183  1  0.07679933  0.48586584  0.33144725  1
  O  O184  1  0.23401612  0.32689320  0.35246082  1
  O  O185  1  0.75851171  0.16617844  0.35341490  1
  O  O186  1  0.86124338  0.73916684  0.35782156  1
  O  O187  1  0.12970843  0.75397178  0.35967802  1
  O  O188  1  0.71794411  0.39179706  0.37141487  1
  O  O189  1  0.28783448  0.10716211  0.37134116  1
  O  O190  1  0.58770165  0.60450413  0.37815243  1
  O  O191  1  0.68444004  0.88384310  0.37819856  1
  O  O192  1  0.31742491  0.61495928  0.37803062  1
  O  O193  1  0.41366271  0.89127203  0.37950491  1
  O  O194  1  0.05086783  0.13830821  0.39494488  1
  O  O195  1  0.94707741  0.35458780  0.39618365  1
  O  O196  1  0.44717322  0.35468467  0.40382316  1
  O  O197  1  0.55087495  0.13843573  0.40491886  1
  O  O198  1  0.91353122  0.89130984  0.42036526  1
  O  O199  1  0.81730150  0.61508241  0.42193628  1
  O  O200  1  0.18425428  0.88386883  0.42158842  1
  O  O201  1  0.08750554  0.60440993  0.42172293  1
  O  O202  1  0.78782452  0.10703029  0.42849785  1
  O  O203  1  0.21834886  0.39181059  0.42856157  1
  O  O204  1  0.62960804  0.75416470  0.44020054  1
  O  O205  1  0.36100511  0.73922802  0.44202648  1
  O  O206  1  0.25862043  0.16607801  0.44648168  1
  O  O207  1  0.73448169  0.32694854  0.44751398  1
  O  O208  1  0.57737651  0.48588745  0.46855699  1
  O  O209  1  0.41865939  0.01084319  0.46955621  1
  O  O210  1  0.98653938  0.10915940  0.47481059  1
  O  O211  1  0.00185614  0.37925331  0.47681765  1
  O  O212  1  0.64486819  0.97010928  0.48810808  1
  O  O213  1  0.35623155  0.53846482  0.48768238  1
  O  O214  1  0.85510602  0.83652022  0.49497986  1
  O  O215  1  0.13504124  0.93331365  0.49483453  1
  O  O216  1  0.86486627  0.56603952  0.49561659  1
  O  O217  1  0.14193005  0.66286938  0.49662730  1
  O  O218  1  0.38752340  0.30144897  0.51035869  1
  O  O219  1  0.60537469  0.19932148  0.51309829  1
  O  O220  1  0.60510344  0.69729510  0.52011453  1
  O  O221  1  0.39099356  0.80299994  0.52123286  1
  O  O222  1  0.14358301  0.16236637  0.53599112  1
  O  O223  1  0.86781541  0.06609519  0.54041149  1
  O  O224  1  0.13383780  0.43146920  0.53838427  1
  O  O225  1  0.85390232  0.33769829  0.53972143  1
  O  O226  1  0.35833336  0.03943757  0.54461714  1
  O  O227  1  0.63916092  0.46614943  0.54463703  1
  O  O228  1  0.00399048  0.87657468  0.55668156  1
  O  O229  1  0.99367160  0.61083995  0.55967444  1
  O  O230  1  0.41624867  0.50873752  0.56232645  1
  O  O231  1  0.58040161  0.98879642  0.56344689  1
  O  O232  1  0.73706193  0.82605452  0.58437123  1
  O  O233  1  0.26833208  0.66891683  0.58547516  1
  O  O234  1  0.36013821  0.23808656  0.59059436  1
  O  O235  1  0.63184564  0.25474821  0.59756148  1
  O  O236  1  0.22204287  0.89436976  0.60404071  1
  O  O237  1  0.78729729  0.59827871  0.60349128  1
  O  O238  1  0.08452956  0.10691753  0.60985712  1
  O  O239  1  0.18693362  0.38523875  0.61055287  1
  O  O240  1  0.80814066  0.11283552  0.61584479  1
  O  O241  1  0.91197375  0.38938740  0.61545583  1
  O  O242  1  0.55358251  0.63194671  0.62555019  1
  O  O243  1  0.45493985  0.86163908  0.62783075  1
  O  O244  1  0.94480005  0.85118968  0.63317880  1
  O  O245  1  0.06080466  0.64687489  0.63580002  1
  O  O246  1  0.41020262  0.39081532  0.65356668  1
  O  O247  1  0.31788926  0.11366792  0.65391039  1
  O  O248  1  0.68454642  0.39044189  0.66103447  1
  O  O249  1  0.58799415  0.10508751  0.66148979  1
  O  O250  1  0.30239337  0.61584673  0.66011513  1
  O  O251  1  0.70156610  0.87053626  0.65987290  1
  O  O252  1  0.12473210  0.24204590  0.67348552  1
  O  O253  1  0.87049493  0.25380213  0.68007119  1
  O  O254  1  0.76988225  0.66790766  0.67987058  1
  O  O255  1  0.25112575  0.82905654  0.68070580  1
  O  O256  1  0.07076718  0.97485567  0.69472842  1
  O  O257  1  0.96405685  0.55098633  0.70158935  1
  O  O258  1  0.50024470  0.62282218  0.70577892  1
  O  O259  1  0.51557092  0.87706472  0.71169576  1
  O  O260  1  0.22011408  0.47901220  0.72032857  1
  O  O261  1  0.80361177  0.02057217  0.71776308  1
  O  O262  1  0.34171438  0.24363147  0.72543958  1
  O  O263  1  0.83967443  0.24226075  0.07478345  1
  O  O264  1  0.30342730  0.02036259  0.08238222  1
  O  O265  1  0.71918967  0.47882597  0.07977200  1
  O  O266  1  0.01559047  0.87717451  0.08858422  1
  O  O267  1  0.99973993  0.62264177  0.09411855  1
  O  O268  1  0.46304759  0.55048902  0.09852848  1
  O  O269  1  0.57003719  0.97484645  0.10544026  1
