# generated using pymatgen
data_Li18La8Zr5O31
_symmetry_space_group_name_H-M   'P 1'
_cell_length_a   12.70453900
_cell_length_b   13.20454200
_cell_length_c   31.80681200
_cell_angle_alpha   90.00000000
_cell_angle_beta   90.00000000
_cell_angle_gamma   90.00000000
_symmetry_Int_Tables_number   1
_chemical_formula_structural   Li18La8Zr5O31
_chemical_formula_sum   'Li72 La32 Zr20 O124'
_cell_volume   5335.83504325
_cell_formula_units_Z   4
loop_
 _symmetry_equiv_pos_site_id
 _symmetry_equiv_pos_as_xyz
  1  'x, y, z'
loop_
 _atom_site_type_symbol
 _atom_site_label
 _atom_site_symmetry_multiplicity
 _atom_site_fract_x
 _atom_site_fract_y
 _atom_site_fract_z
 _atom_site_occupancy
  Li  Li0  1  0.69167854  0.94433960  0.12673897  1
  Li  Li1  1  0.79309132  0.13758227  0.13194807  1
  Li  Li2  1  0.19786185  0.57400599  0.13046458  1
  Li  Li3  1  0.31019447  0.41710888  0.13306429  1
  Li  Li4  1  0.86967795  0.26284205  0.17758908  1
  Li  Li5  1  0.62842221  0.77375410  0.16545516  1
  Li  Li6  1  0.41697092  0.21599477  0.13742348  1
  Li  Li7  1  0.12434833  0.76208867  0.13073826  1
  Li  Li8  1  0.32661989  0.12888751  0.19976370  1
  Li  Li9  1  0.16387597  0.86331275  0.19644812  1
  Li  Li10  1  0.76734495  0.47990860  0.21990489  1
  Li  Li11  1  0.67297015  0.62007305  0.19608767  1
  Li  Li12  1  0.41632941  0.31555127  0.20492763  1
  Li  Li13  1  0.08895342  0.66362543  0.20408045  1
  Li  Li14  1  0.94936347  0.15156087  0.24143393  1
  Li  Li15  1  0.54322694  0.84848699  0.23950685  1
  Li  Li16  1  0.33954534  0.94326145  0.23608272  1
  Li  Li17  1  0.15359265  0.05257168  0.23282109  1
  Li  Li18  1  0.57574839  0.42243648  0.24360184  1
  Li  Li19  1  0.92804664  0.58569351  0.23989219  1
  Li  Li20  1  0.39722842  0.41605923  0.29336966  1
  Li  Li21  1  0.10583940  0.58233100  0.29299317  1
  Li  Li22  1  0.64800108  0.93380971  0.30411341  1
  Li  Li23  1  0.84647598  0.06467774  0.30584459  1
  Li  Li24  1  0.05674554  0.15976582  0.30585237  1
  Li  Li25  1  0.44130610  0.83838393  0.30641538  1
  Li  Li26  1  0.56544009  0.32830349  0.31012767  1
  Li  Li27  1  0.94134702  0.67452119  0.30824297  1
  Li  Li28  1  0.20005054  0.41841694  0.33520323  1
  Li  Li29  1  0.30053316  0.58057144  0.33455581  1
  Li  Li30  1  0.68596486  0.09060662  0.34683918  1
  Li  Li31  1  0.81012975  0.90934292  0.34583440  1
  Li  Li32  1  0.37433426  0.74999444  0.37453105  1
  Li  Li33  1  0.12624563  0.24995886  0.37441026  1
  Li  Li34  1  0.87497184  0.74998954  0.37444195  1
  Li  Li35  1  0.62671436  0.24987791  0.37448645  1
  Li  Li36  1  0.80996843  0.59124504  0.40289004  1
  Li  Li37  1  0.68682138  0.40982719  0.40098569  1
  Li  Li38  1  0.30101727  0.91956235  0.41398764  1
  Li  Li39  1  0.20071315  0.08191209  0.41291221  1
  Li  Li40  1  0.94103366  0.82529526  0.44035063  1
  Li  Li41  1  0.56536071  0.17100785  0.43857293  1
  Li  Li42  1  0.44116509  0.66126297  0.44224391  1
  Li  Li43  1  0.05673698  0.34048621  0.44217034  1
  Li  Li44  1  0.84482582  0.43588114  0.44264887  1
  Li  Li45  1  0.64645239  0.56488920  0.44429650  1
  Li  Li46  1  0.10688929  0.91709322  0.45522644  1
  Li  Li47  1  0.39665502  0.08423687  0.45483556  1
  Li  Li48  1  0.92924094  0.91395892  0.50846740  1
  Li  Li49  1  0.57596464  0.07717703  0.50539217  1
  Li  Li50  1  0.15353696  0.44738386  0.51595023  1
  Li  Li51  1  0.33749141  0.55595975  0.51227233  1
  Li  Li52  1  0.54191849  0.65002618  0.50861985  1
  Li  Li53  1  0.95056633  0.34905497  0.50671571  1
  Li  Li54  1  0.08962611  0.83738802  0.54462557  1
  Li  Li55  1  0.41638366  0.18444522  0.54373497  1
  Li  Li56  1  0.67273670  0.88040851  0.55232723  1
  Li  Li57  1  0.76770641  0.02027061  0.52878644  1
  Li  Li58  1  0.16504769  0.63762123  0.55233237  1
  Li  Li59  1  0.32677891  0.37002000  0.54841297  1
  Li  Li60  1  0.87007883  0.23759563  0.57173370  1
  Li  Li61  1  0.62896526  0.72608789  0.58273357  1
  Li  Li62  1  0.41712675  0.28455080  0.61115266  1
  Li  Li63  1  0.12295035  0.73860021  0.61779353  1
  Li  Li64  1  0.31060645  0.08330641  0.61520980  1
  Li  Li65  1  0.19851961  0.92708583  0.61808537  1
  Li  Li66  1  0.79246325  0.36468300  0.61640685  1
  Li  Li67  1  0.69166259  0.55582209  0.62104703  1
  Li  Li68  1  0.90204656  0.20128910  0.64127253  1
  Li  Li69  1  0.61703139  0.83221801  0.64590330  1
  Li  Li70  1  0.61596410  0.66765405  0.10276505  1
  Li  Li71  1  0.90248717  0.29952423  0.10810141  1
  La  La72  1  0.25760548  0.97871945  0.11895478  1
  La  La73  1  0.75568608  0.48547169  0.12454929  1
  La  La74  1  0.87321687  0.74983913  0.16701975  1
  La  La75  1  0.37596746  0.75701519  0.16731054  1
  La  La76  1  0.62930579  0.25873700  0.17513684  1
  La  La77  1  0.11690727  0.24764913  0.17145131  1
  La  La78  1  0.74509069  0.99945167  0.21816791  1
  La  La79  1  0.25319230  0.49509694  0.21906734  1
  La  La80  1  0.50294328  0.12100664  0.27130104  1
  La  La81  1  0.00306548  0.37509832  0.26892450  1
  La  La82  1  0.49634329  0.62786490  0.26786822  1
  La  La83  1  0.99755473  0.88022505  0.27760693  1
  La  La84  1  0.75165594  0.50239804  0.31752443  1
  La  La85  1  0.25102078  0.00024515  0.32398482  1
  La  La86  1  0.37738966  0.25001758  0.37412324  1
  La  La87  1  0.87879221  0.24985750  0.37429655  1
  La  La88  1  0.12790113  0.74992894  0.37419885  1
  La  La89  1  0.62246175  0.74990677  0.37422499  1
  La  La90  1  0.25104492  0.49956773  0.42435915  1
  La  La91  1  0.75147371  0.99797468  0.43094998  1
  La  La92  1  0.99774623  0.61975427  0.47094312  1
  La  La93  1  0.49645737  0.87208523  0.48057238  1
  La  La94  1  0.00333442  0.12474107  0.47958546  1
  La  La95  1  0.50307272  0.37851913  0.47704762  1
  La  La96  1  0.25352090  0.00500462  0.52934385  1
  La  La97  1  0.74524808  0.50037574  0.53013164  1
  La  La98  1  0.87350531  0.75055744  0.58133838  1
  La  La99  1  0.37629989  0.74292542  0.58117641  1
  La  La100  1  0.62946949  0.24134441  0.57349991  1
  La  La101  1  0.11694382  0.25233898  0.57705312  1
  La  La102  1  0.75586357  0.01479023  0.62407949  1
  La  La103  1  0.25724790  0.52142246  0.62941760  1
  Zr  Zr104  1  0.98130555  0.00874750  0.16259821  1
  Zr  Zr105  1  0.50351179  0.01515964  0.16173230  1
  Zr  Zr106  1  0.49587593  0.50567826  0.15962081  1
  Zr  Zr107  1  0.00795894  0.49038453  0.16076793  1
  Zr  Zr108  1  0.75441536  0.24693363  0.27362425  1
  Zr  Zr109  1  0.75012286  0.75264550  0.26987122  1
  Zr  Zr110  1  0.25165635  0.24028087  0.27110724  1
  Zr  Zr111  1  0.24645292  0.75738783  0.26991180  1
  Zr  Zr112  1  0.49794112  0.50164894  0.37073364  1
  Zr  Zr113  1  0.00286481  0.49961262  0.37008964  1
  Zr  Zr114  1  0.00315219  0.00037902  0.37847515  1
  Zr  Zr115  1  0.49803821  0.99831009  0.37759927  1
  Zr  Zr116  1  0.24644000  0.74268751  0.47855904  1
  Zr  Zr117  1  0.25161174  0.25959154  0.47720159  1
  Zr  Zr118  1  0.74979471  0.74706838  0.47863024  1
  Zr  Zr119  1  0.75463265  0.25283714  0.47500707  1
  Zr  Zr120  1  0.00801018  0.01009330  0.58785436  1
  Zr  Zr121  1  0.49606422  0.99411849  0.58899272  1
  Zr  Zr122  1  0.50308685  0.48480630  0.58656223  1
  Zr  Zr123  1  0.98142186  0.49122342  0.58586458  1
  O  O124  1  0.83580571  0.94763114  0.15034669  1
  O  O125  1  0.65259604  0.07724088  0.14926655  1
  O  O126  1  0.16277221  0.42951376  0.14951775  1
  O  O127  1  0.34209290  0.55939790  0.15018413  1
  O  O128  1  0.35222396  0.94206940  0.17790844  1
  O  O129  1  0.14646444  0.06531645  0.16811461  1
  O  O130  1  0.64569740  0.45352791  0.18515130  1
  O  O131  1  0.86307154  0.55158106  0.18327918  1
  O  O132  1  0.47157265  0.16330104  0.19287402  1
  O  O133  1  0.04643680  0.86858695  0.15613651  1
  O  O134  1  0.98309351  0.34715177  0.19391579  1
  O  O135  1  0.52838865  0.65567625  0.18804683  1
  O  O136  1  0.78906026  0.18476032  0.21416521  1
  O  O137  1  0.71812147  0.80803426  0.21014966  1
  O  O138  1  0.27676203  0.27403900  0.20611551  1
  O  O139  1  0.21691233  0.72619227  0.20637385  1
  O  O140  1  0.95238399  0.01344929  0.22392765  1
  O  O141  1  0.55797210  0.98463869  0.22493349  1
  O  O142  1  0.06794531  0.53191545  0.22784632  1
  O  O143  1  0.43789424  0.46756988  0.22728491  1
  O  O144  1  0.09699549  0.20126129  0.24779656  1
  O  O145  1  0.40036812  0.79593926  0.24934030  1
  O  O146  1  0.60454016  0.28191275  0.25162929  1
  O  O147  1  0.90598937  0.72874216  0.24527163  1
  O  O148  1  0.30432388  0.08984049  0.25690785  1
  O  O149  1  0.18512713  0.90586093  0.25465204  1
  O  O150  1  0.81343853  0.39301105  0.26192861  1
  O  O151  1  0.69730574  0.60418319  0.25580094  1
  O  O152  1  0.20196303  0.38996965  0.27763263  1
  O  O153  1  0.29996880  0.60828910  0.27662891  1
  O  O154  1  0.69716063  0.09609426  0.28701917  1
  O  O155  1  0.80200246  0.90492208  0.28511880  1
  O  O156  1  0.40251435  0.27155801  0.29583922  1
  O  O157  1  0.09623136  0.72698361  0.29683075  1
  O  O158  1  0.90520283  0.20419389  0.29651967  1
  O  O159  1  0.59878617  0.79044505  0.29332744  1
  O  O160  1  0.95306482  0.53315920  0.30704693  1
  O  O161  1  0.55045680  0.47180515  0.30679868  1
  O  O162  1  0.05697333  0.02205229  0.31687547  1
  O  O163  1  0.44584503  0.97744621  0.31600918  1
  O  O164  1  0.71773384  0.30497872  0.33341375  1
  O  O165  1  0.78777350  0.69614259  0.33042429  1
  O  O166  1  0.21462101  0.18858185  0.33148660  1
  O  O167  1  0.28431201  0.81189292  0.33103237  1
  O  O168  1  0.03635095  0.35284842  0.34916847  1
  O  O169  1  0.46546737  0.65007419  0.34824230  1
  O  O170  1  0.53691231  0.14488791  0.35764371  1
  O  O171  1  0.96411348  0.85395416  0.35456390  1
  O  O172  1  0.34677150  0.44587791  0.35559365  1
  O  O173  1  0.15444087  0.55577491  0.35529209  1
  O  O174  1  0.65312356  0.94335760  0.36423552  1
  O  O175  1  0.84774285  0.05075754  0.36515819  1
  O  O176  1  0.84743532  0.44942341  0.38339841  1
  O  O177  1  0.65303421  0.55669114  0.38413335  1
  O  O178  1  0.15487120  0.94419339  0.39301444  1
  O  O179  1  0.34694081  0.05429679  0.39279945  1
  O  O180  1  0.96403529  0.64591987  0.39400787  1
  O  O181  1  0.53683369  0.35505579  0.39054071  1
  O  O182  1  0.46558136  0.84995145  0.40024143  1
  O  O183  1  0.03659683  0.14706653  0.39950276  1
  O  O184  1  0.28430560  0.68785442  0.41744968  1
  O  O185  1  0.21476204  0.31126463  0.41684981  1
  O  O186  1  0.78750094  0.80341925  0.41808792  1
  O  O187  1  0.71759115  0.19409473  0.41536290  1
  O  O188  1  0.44638550  0.52230685  0.43245326  1
  O  O189  1  0.05767831  0.47820761  0.43158109  1
  O  O190  1  0.55038662  0.02783835  0.44158209  1
  O  O191  1  0.95336591  0.96664917  0.44143700  1
  O  O192  1  0.59850377  0.70918563  0.45522797  1
  O  O193  1  0.90503024  0.29607581  0.45184346  1
  O  O194  1  0.09631132  0.77286055  0.45149303  1
  O  O195  1  0.40268829  0.22853759  0.45245843  1
  O  O196  1  0.80192006  0.59461883  0.46341479  1
  O  O197  1  0.69688516  0.40340059  0.46121297  1
  O  O198  1  0.29974567  0.89180682  0.47176806  1
  O  O199  1  0.20263984  0.10984709  0.47063990  1
  O  O200  1  0.69689961  0.89551187  0.49268667  1
  O  O201  1  0.81393297  0.10687069  0.48665201  1
  O  O202  1  0.18508879  0.59439672  0.49396915  1
  O  O203  1  0.30417120  0.41011654  0.49146470  1
  O  O204  1  0.90597397  0.77132517  0.50305894  1
  O  O205  1  0.60470417  0.21764774  0.49700476  1
  O  O206  1  0.40019062  0.70399611  0.49907425  1
  O  O207  1  0.09712303  0.29865440  0.50046785  1
  O  O208  1  0.43816133  0.03209570  0.52130677  1
  O  O209  1  0.06818711  0.96848267  0.52071765  1
  O  O210  1  0.55822322  0.51475182  0.52334457  1
  O  O211  1  0.95278129  0.48655466  0.52450182  1
  O  O212  1  0.21728770  0.77457876  0.54203444  1
  O  O213  1  0.27667968  0.22558174  0.54217663  1
  O  O214  1  0.71886421  0.69142869  0.53838936  1
  O  O215  1  0.78910261  0.31505211  0.53450475  1
  O  O216  1  0.52852879  0.84441171  0.56049067  1
  O  O217  1  0.98313738  0.15313732  0.55467021  1
  O  O218  1  0.04611452  0.63155819  0.59242013  1
  O  O219  1  0.47147674  0.33653548  0.55561529  1
  O  O220  1  0.86341596  0.94845729  0.56532524  1
  O  O221  1  0.64598703  0.04625951  0.56343325  1
  O  O222  1  0.14642653  0.43462636  0.58026894  1
  O  O223  1  0.35189910  0.55799362  0.57040224  1
  O  O224  1  0.34237566  0.94075665  0.59843554  1
  O  O225  1  0.16302217  0.07079453  0.59902800  1
  O  O226  1  0.65205879  0.42286827  0.59923422  1
  O  O227  1  0.83560910  0.55123736  0.59808023  1
  O  O228  1  0.40098588  0.08147920  0.11725837  1
  O  O229  1  0.57864366  0.53571459  0.10744182  1
  O  O230  1  0.93166519  0.43942337  0.10999818  1
  O  O231  1  0.26051852  0.81086033  0.11590727  1
  O  O232  1  0.73637375  0.68602125  0.13284694  1
  O  O233  1  0.76630297  0.29514160  0.13096889  1
  O  O234  1  0.55293401  0.87807403  0.13955382  1
  O  O235  1  0.95161931  0.15551160  0.13928050  1
  O  O236  1  0.05968840  0.63450083  0.14565090  1
  O  O237  1  0.44915118  0.35702649  0.14665536  1
  O  O238  1  0.44947829  0.14309640  0.60183328  1
  O  O239  1  0.05967486  0.86595629  0.60290063  1
  O  O240  1  0.95175517  0.34466431  0.60942331  1
  O  O241  1  0.55237572  0.62216100  0.60852114  1
  O  O242  1  0.76601893  0.20485903  0.61793392  1
  O  O243  1  0.73687949  0.81376061  0.61568384  1
  O  O244  1  0.25978529  0.68924288  0.63227396  1
  O  O245  1  0.93184690  0.06113798  0.63866591  1
  O  O246  1  0.57901049  0.96402975  0.64115019  1
  O  O247  1  0.40062240  0.41880584  0.63114438  1
