# generated using pymatgen
data_Li40La18Zr10O67
_symmetry_space_group_name_H-M   'P 1'
_cell_length_a   11.29297700
_cell_length_b   11.29297737
_cell_length_c   40.01105500
_cell_angle_alpha   90.00000000
_cell_angle_beta   90.00000000
_cell_angle_gamma   111.54263211
_symmetry_Int_Tables_number   1
_chemical_formula_structural   Li40La18Zr10O67
_chemical_formula_sum   'Li80 La36 Zr20 O134'
_cell_volume   4746.21466431
_cell_formula_units_Z   2
loop_
 _symmetry_equiv_pos_site_id
 _symmetry_equiv_pos_as_xyz
  1  'x, y, z'
loop_
 _atom_site_type_symbol
 _atom_site_label
 _atom_site_symmetry_multiplicity
 _atom_site_fract_x
 _atom_site_fract_y
 _atom_site_fract_z
 _atom_site_occupancy
  Li  Li0  1  0.28765367  0.21206960  0.08599762  1
  Li  Li1  1  0.38837952  0.45235294  0.07159459  1
  Li  Li2  1  0.66120715  0.14087260  0.08286944  1
  Li  Li3  1  0.14232782  0.00933539  0.11284141  1
  Li  Li4  1  0.24099770  0.49514184  0.11020097  1
  Li  Li5  1  0.74952310  0.01941862  0.10749462  1
  Li  Li6  1  0.80967771  0.33903969  0.09837061  1
  Li  Li7  1  0.92741835  0.94934356  0.12972177  1
  Li  Li8  1  0.00902013  0.55347973  0.12248932  1
  Li  Li9  1  0.00660517  0.76946331  0.14520986  1
  Li  Li10  1  0.36483339  0.52980576  0.17094446  1
  Li  Li11  1  0.14975671  0.97720541  0.17282374  1
  Li  Li12  1  0.63921600  0.97680360  0.16402778  1
  Li  Li13  1  0.85509567  0.52119731  0.16507817  1
  Li  Li14  1  0.50729134  0.76665398  0.19454752  1
  Li  Li15  1  0.55675170  0.55616823  0.20737475  1
  Li  Li16  1  0.43112460  0.94979559  0.20263947  1
  Li  Li17  1  0.30140624  0.40939002  0.22608036  1
  Li  Li18  1  0.25274594  0.00072098  0.22657429  1
  Li  Li19  1  0.75241051  0.50032830  0.22312567  1
  Li  Li20  1  0.65427366  0.05239086  0.22296831  1
  Li  Li21  1  0.19763610  0.18440683  0.24403898  1
  Li  Li22  1  0.80402728  0.30482033  0.24279131  1
  Li  Li23  1  0.01936981  0.26738621  0.25841518  1
  Li  Li24  1  0.77447642  0.60469518  0.27961661  1
  Li  Li25  1  0.22628123  0.39605442  0.28648484  1
  Li  Li26  1  0.21762392  0.88487859  0.28480574  1
  Li  Li27  1  0.78120553  0.11681824  0.28191543  1
  Li  Li28  1  0.98053220  0.73292442  0.30878803  1
  Li  Li29  1  0.80570459  0.81346609  0.32286441  1
  Li  Li30  1  0.19605862  0.69542791  0.32264704  1
  Li  Li31  1  0.69261464  0.58243911  0.34054282  1
  Li  Li32  1  0.75075116  0.00080960  0.34053127  1
  Li  Li33  1  0.25067038  0.50078328  0.34253797  1
  Li  Li34  1  0.33679798  0.94266003  0.34237023  1
  Li  Li35  1  0.44733396  0.44455824  0.36038755  1
  Li  Li36  1  0.56490647  0.05336839  0.36083558  1
  Li  Li37  1  0.48677389  0.23048682  0.37533258  1
  Li  Li38  1  0.85882759  0.02294419  0.39659332  1
  Li  Li39  1  0.63713767  0.46658886  0.39859189  1
  Li  Li40  1  0.13728406  0.46722552  0.40114376  1
  Li  Li41  1  0.35835771  0.02238152  0.40322770  1
  Li  Li42  1  0.98717189  0.23143403  0.42476954  1
  Li  Li43  1  0.06452786  0.05286118  0.43887101  1
  Li  Li44  1  0.94670688  0.44463382  0.43968779  1
  Li  Li45  1  0.83535018  0.94015804  0.45749312  1
  Li  Li46  1  0.75054732  0.50020185  0.45734682  1
  Li  Li47  1  0.25085367  0.00157405  0.45959471  1
  Li  Li48  1  0.19063547  0.57977996  0.45931154  1
  Li  Li49  1  0.69785226  0.69276509  0.47744853  1
  Li  Li50  1  0.30545913  0.81253032  0.47689453  1
  Li  Li51  1  0.48209878  0.73368819  0.49111188  1
  Li  Li52  1  0.28175508  0.11760842  0.51851022  1
  Li  Li53  1  0.71767769  0.88447018  0.51464352  1
  Li  Li54  1  0.72773751  0.39510522  0.51361477  1
  Li  Li55  1  0.27521303  0.60537317  0.52018256  1
  Li  Li56  1  0.52102472  0.26897125  0.54156925  1
  Li  Li57  1  0.30431658  0.30432454  0.55685614  1
  Li  Li58  1  0.69747824  0.18428333  0.55602195  1
  Li  Li59  1  0.15580536  0.05280645  0.57707996  1
  Li  Li60  1  0.25286672  0.49971235  0.57692434  1
  Li  Li61  1  0.75162684  0.00053929  0.57330376  1
  Li  Li62  1  0.80203675  0.40922965  0.57379543  1
  Li  Li63  1  0.93124650  0.95073244  0.59717340  1
  Li  Li64  1  0.05659617  0.55588028  0.59243560  1
  Li  Li65  1  0.00798285  0.76765040  0.60551087  1
  Li  Li66  1  0.35553715  0.52268359  0.63540732  1
  Li  Li67  1  0.13931653  0.97791852  0.63594212  1
  Li  Li68  1  0.65136628  0.97690524  0.62662552  1
  Li  Li69  1  0.86468460  0.52976187  0.62877265  1
  Li  Li70  1  0.50682464  0.77029117  0.65466184  1
  Li  Li71  1  0.51058825  0.55287180  0.67773642  1
  Li  Li72  1  0.42711396  0.94965160  0.66984976  1
  Li  Li73  1  0.30843592  0.33874968  0.70188747  1
  Li  Li74  1  0.24866041  0.01966837  0.69253822  1
  Li  Li75  1  0.74269185  0.49606104  0.68971385  1
  Li  Li76  1  0.64188258  0.00947946  0.68663641  1
  Li  Li77  1  0.16028133  0.14128281  0.71723384  1
  Li  Li78  1  0.88892743  0.45452131  0.72911562  1
  Li  Li79  1  0.78640314  0.21360812  0.71419123  1
  La  La80  1  0.81860866  0.70351495  0.08602285  1
  La  La81  1  0.16966721  0.80847553  0.08252013  1
  La  La82  1  0.50957666  0.75861635  0.11352900  1
  La  La83  1  0.02213543  0.25365217  0.10646982  1
  La  La84  1  0.56999936  0.43753906  0.13697291  1
  La  La85  1  0.43030556  0.06570404  0.12921034  1
  La  La86  1  0.93642738  0.07221028  0.19771289  1
  La  La87  1  0.06409977  0.43818115  0.19439070  1
  La  La88  1  0.99974896  0.75223782  0.22636081  1
  La  La89  1  0.50291966  0.25064202  0.22333694  1
  La  La90  1  0.68602468  0.81726758  0.25527283  1
  La  La91  1  0.31361592  0.68557435  0.25358607  1
  La  La92  1  0.31551670  0.18840411  0.31279905  1
  La  La93  1  0.68685602  0.31438142  0.31337203  1
  La  La94  1  0.00183935  0.24962251  0.34169278  1
  La  La95  1  0.50064961  0.74885644  0.34171809  1
  La  La96  1  0.06772463  0.93448148  0.36978503  1
  La  La97  1  0.93918019  0.56195718  0.37062355  1
  La  La98  1  0.43956020  0.56209209  0.42942711  1
  La  La99  1  0.56782078  0.93452898  0.43008575  1
  La  La100  1  0.50196355  0.24949456  0.45829930  1
  La  La101  1  0.00110845  0.74877913  0.45824807  1
  La  La102  1  0.18712475  0.31399158  0.48655150  1
  La  La103  1  0.81578308  0.18770868  0.48718175  1
  La  La104  1  0.81378568  0.68560807  0.54645295  1
  La  La105  1  0.18605458  0.81706722  0.54469422  1
  La  La106  1  0.49949227  0.75237825  0.57359186  1
  La  La107  1  0.00298891  0.25051366  0.57668929  1
  La  La108  1  0.56386746  0.43852366  0.60557171  1
  La  La109  1  0.43642902  0.07259957  0.60228359  1
  La  La110  1  0.92977619  0.06619524  0.67085503  1
  La  La111  1  0.06923647  0.43789589  0.66309391  1
  La  La112  1  0.00937312  0.75923791  0.68646962  1
  La  La113  1  0.52179721  0.25431547  0.69364979  1
  La  La114  1  0.66918717  0.80918061  0.71744125  1
  La  La115  1  0.31846202  0.70412670  0.71395888  1
  Zr  Zr116  1  0.74932338  0.75579256  0.16994267  1
  Zr  Zr117  1  0.25663432  0.25464477  0.16600775  1
  Zr  Zr118  1  0.75166486  0.24478865  0.16332973  1
  Zr  Zr119  1  0.24529184  0.74551647  0.16609306  1
  Zr  Zr120  1  0.00194007  0.00175975  0.28381509  1
  Zr  Zr121  1  0.50031757  0.50052636  0.28279229  1
  Zr  Zr122  1  0.49890152  0.00148922  0.28278385  1
  Zr  Zr123  1  0.99962906  0.49980090  0.28295856  1
  Zr  Zr124  1  0.25212660  0.24985317  0.39998158  1
  Zr  Zr125  1  0.75240446  0.74850097  0.39973798  1
  Zr  Zr126  1  0.25246648  0.74852408  0.40026322  1
  Zr  Zr127  1  0.75216083  0.24954776  0.40000235  1
  Zr  Zr128  1  0.50004562  0.49995749  0.51697703  1
  Zr  Zr129  1  0.99921204  0.00124441  0.51717384  1
  Zr  Zr130  1  0.00073326  0.50033909  0.51715551  1
  Zr  Zr131  1  0.50174258  0.00191787  0.51614248  1
  Zr  Zr132  1  0.74526364  0.74582869  0.63393715  1
  Zr  Zr133  1  0.25159109  0.24556867  0.63675159  1
  Zr  Zr134  1  0.75614403  0.25492046  0.63393524  1
  Zr  Zr135  1  0.24879910  0.75583987  0.63002439  1
  O  O136  1  0.54058420  0.56773394  0.09088455  1
  O  O137  1  0.56372538  0.97566033  0.10090290  1
  O  O138  1  0.74251944  0.84050118  0.12127786  1
  O  O139  1  0.27153280  0.67798246  0.11532154  1
  O  O140  1  0.38191987  0.26234020  0.12668847  1
  O  O141  1  0.64478754  0.26176755  0.11967414  1
  O  O142  1  0.19466524  0.87956685  0.13943245  1
  O  O143  1  0.79011793  0.61964524  0.13844877  1
  O  O144  1  0.09536161  0.11328052  0.14328213  1
  O  O145  1  0.19710411  0.40169665  0.15006278  1
  O  O146  1  0.81621310  0.10065518  0.14949018  1
  O  O147  1  0.91433339  0.38631020  0.13908142  1
  O  O148  1  0.55113708  0.64666844  0.16400042  1
  O  O149  1  0.44072801  0.85560682  0.16254545  1
  O  O150  1  0.94549760  0.86684136  0.17438710  1
  O  O151  1  0.04554696  0.63511604  0.16866563  1
  O  O152  1  0.41988201  0.39506847  0.18923491  1
  O  O153  1  0.31368795  0.11557833  0.18871491  1
  O  O154  1  0.69258269  0.38786447  0.18503323  1
  O  O155  1  0.58554169  0.11116835  0.18508213  1
  O  O156  1  0.28083001  0.61100813  0.19657193  1
  O  O157  1  0.70434573  0.89162029  0.19677532  1
  O  O158  1  0.13913171  0.25886744  0.20859455  1
  O  O159  1  0.87104084  0.25401343  0.20537087  1
  O  O160  1  0.76079643  0.67080103  0.21475975  1
  O  O161  1  0.23078584  0.83180454  0.21160958  1
  O  O162  1  0.08577704  0.99027086  0.23782813  1
  O  O163  1  0.92018023  0.51871882  0.23684148  1
  O  O164  1  0.49452677  0.62325918  0.24296775  1
  O  O165  1  0.50308558  0.89049651  0.24049847  1
  O  O166  1  0.14112064  0.46183251  0.25475097  1
  O  O167  1  0.86008756  0.03485101  0.25470128  1
  O  O168  1  0.35570242  0.33782752  0.26309784  1
  O  O169  1  0.63408828  0.43611637  0.25972505  1
  O  O170  1  0.36731622  0.07219369  0.26193685  1
  O  O171  1  0.64339907  0.16232219  0.26108018  1
  O  O172  1  0.89217591  0.80320781  0.27862011  1
  O  O173  1  0.10793100  0.69923985  0.27926306  1
  O  O174  1  0.10930115  0.19975311  0.28888684  1
  O  O175  1  0.89194488  0.30267169  0.28706651  1
  O  O176  1  0.64415047  0.66455884  0.30402567  1
  O  O177  1  0.36451780  0.56597877  0.30501196  1
  O  O178  1  0.63384975  0.93270368  0.30419918  1
  O  O179  1  0.35690040  0.83871609  0.30441956  1
  O  O180  1  0.85777349  0.53758251  0.31144677  1
  O  O181  1  0.14590920  0.97101422  0.31283971  1
  O  O182  1  0.51055004  0.38483335  0.32358717  1
  O  O183  1  0.49310641  0.11348897  0.32523113  1
  O  O184  1  0.91977105  0.01042319  0.33086712  1
  O  O185  1  0.07981892  0.48604187  0.33028704  1
  O  O186  1  0.24001295  0.33047984  0.35306657  1
  O  O187  1  0.76325439  0.16900608  0.35276691  1
  O  O188  1  0.86567840  0.73926034  0.35774067  1
  O  O189  1  0.13490330  0.75491812  0.35975248  1
  O  O190  1  0.72241576  0.39278931  0.37081735  1
  O  O191  1  0.29239956  0.10843719  0.37210986  1
  O  O192  1  0.58983763  0.60522441  0.37841987  1
  O  O193  1  0.68684034  0.88405552  0.37756928  1
  O  O194  1  0.32039819  0.61577313  0.37856079  1
  O  O195  1  0.41609415  0.89230104  0.37956536  1
  O  O196  1  0.05550784  0.13981601  0.39484170  1
  O  O197  1  0.95134129  0.35578664  0.39591598  1
  O  O198  1  0.45157281  0.35556685  0.40407214  1
  O  O199  1  0.55550009  0.13926993  0.40510039  1
  O  O200  1  0.91646972  0.89237695  0.42023518  1
  O  O201  1  0.82068700  0.61573995  0.42135606  1
  O  O202  1  0.18758459  0.88433170  0.42249780  1
  O  O203  1  0.08976035  0.60517123  0.42160270  1
  O  O204  1  0.79250145  0.10831829  0.42788409  1
  O  O205  1  0.22251541  0.39335832  0.42910629  1
  O  O206  1  0.63635291  0.75532919  0.44052303  1
  O  O207  1  0.36663429  0.73966903  0.44208309  1
  O  O208  1  0.26300374  0.16933919  0.44719342  1
  O  O209  1  0.74004991  0.33018156  0.44690670  1
  O  O210  1  0.58006640  0.48625238  0.46959744  1
  O  O211  1  0.41985304  0.01103747  0.46913992  1
  O  O212  1  0.99367477  0.11341576  0.47477492  1
  O  O213  1  0.01113698  0.38487371  0.47629308  1
  O  O214  1  0.64567281  0.97112367  0.48709962  1
  O  O215  1  0.35817410  0.53734545  0.48847198  1
  O  O216  1  0.85745642  0.83841765  0.49547205  1
  O  O217  1  0.13397101  0.93216336  0.49584729  1
  O  O218  1  0.86486945  0.56577964  0.49479787  1
  O  O219  1  0.14449909  0.66411330  0.49591626  1
  O  O220  1  0.39239176  0.30261681  0.51292772  1
  O  O221  1  0.60953886  0.19970277  0.51112034  1
  O  O222  1  0.60864357  0.69915150  0.52065820  1
  O  O223  1  0.39262002  0.80310797  0.52128710  1
  O  O224  1  0.14381654  0.16217514  0.53893044  1
  O  O225  1  0.86742422  0.07153459  0.53806783  1
  O  O226  1  0.13417267  0.43587011  0.54030352  1
  O  O227  1  0.85602988  0.33729010  0.53678913  1
  O  O228  1  0.35958336  0.03427250  0.54534264  1
  O  O229  1  0.64159960  0.46170840  0.54507689  1
  O  O230  1  0.00293271  0.88992599  0.55949243  1
  O  O231  1  0.99404936  0.62246899  0.55695169  1
  O  O232  1  0.42076267  0.51893423  0.56307721  1
  O  O233  1  0.58523557  0.99064249  0.56222723  1
  O  O234  1  0.72999467  0.83228192  0.58851103  1
  O  O235  1  0.26053178  0.67075358  0.58521001  1
  O  O236  1  0.37068855  0.25436985  0.59462268  1
  O  O237  1  0.63906002  0.25941324  0.59128945  1
  O  O238  1  0.20397338  0.89182397  0.60316619  1
  O  O239  1  0.78026736  0.61125721  0.60338786  1
  O  O240  1  0.08566803  0.11180102  0.61486688  1
  O  O241  1  0.19244735  0.38842480  0.61514979  1
  O  O242  1  0.81344727  0.11584555  0.61116358  1
  O  O243  1  0.91955348  0.39507833  0.61065154  1
  O  O244  1  0.54540890  0.63520840  0.63147457  1
  O  O245  1  0.44498706  0.86678652  0.62549403  1
  O  O246  1  0.94062622  0.85616608  0.63740166  1
  O  O247  1  0.05060166  0.64668055  0.63598055  1
  O  O248  1  0.41408343  0.38643799  0.66115900  1
  O  O249  1  0.31606524  0.10127144  0.65056876  1
  O  O250  1  0.69688497  0.40199552  0.64995668  1
  O  O251  1  0.59460284  0.11395805  0.65654466  1
  O  O252  1  0.28895352  0.61997981  0.66165220  1
  O  O253  1  0.69468533  0.88016864  0.66046385  1
  O  O254  1  0.14409266  0.26197810  0.68039819  1
  O  O255  1  0.88108597  0.26246900  0.67326863  1
  O  O256  1  0.77126457  0.67851475  0.68467715  1
  O  O257  1  0.24191829  0.84113724  0.67860994  1
  O  O258  1  0.06294998  0.97608241  0.69925048  1
  O  O259  1  0.04029158  0.56857066  0.70922569  1
  O  O260  1  0.48115430  0.63105432  0.71692126  1
  O  O261  1  0.49691425  0.87558558  0.70422103  1
  O  O262  1  0.78381984  0.03221961  0.71553667  1
  O  O263  1  0.33767845  0.19442574  0.71956479  1
  O  O264  1  0.71891755  0.35314944  0.72043567  1
  O  O265  1  0.21844606  0.35160797  0.07973373  1
  O  O266  1  0.83815822  0.19390923  0.08056612  1
  O  O267  1  0.28475237  0.03174659  0.08441491  1
  O  O268  1  0.99730950  0.87534501  0.09544550  1
  O  O269  1  0.98145207  0.63069399  0.08314773  1
