# generated using pymatgen
data_Li56La22Zr14O89
_symmetry_space_group_name_H-M   'P 1'
_cell_length_a   18.66058700
_cell_length_b   13.19488265
_cell_length_c   44.26921400
_cell_angle_alpha   90.00000000
_cell_angle_beta   90.00000000
_cell_angle_gamma   45.00062637
_symmetry_Int_Tables_number   1
_chemical_formula_structural   Li56La22Zr14O89
_chemical_formula_sum   'Li112 La44 Zr28 O178'
_cell_volume   7707.65725901
_cell_formula_units_Z   2
loop_
 _symmetry_equiv_pos_site_id
 _symmetry_equiv_pos_as_xyz
  1  'x, y, z'
loop_
 _atom_site_type_symbol
 _atom_site_label
 _atom_site_symmetry_multiplicity
 _atom_site_fract_x
 _atom_site_fract_y
 _atom_site_fract_z
 _atom_site_occupancy
  Li  Li0  1  0.15556594  0.16147865  0.11938439  1
  Li  Li1  1  0.31117479  0.84804458  0.01110476  1
  Li  Li2  1  0.64791612  0.02545075  0.00840759  1
  Li  Li3  1  0.81174366  0.99662407  0.12132527  1
  Li  Li4  1  0.30811166  0.34753814  0.12091280  1
  Li  Li5  1  0.17602516  0.63729564  0.00972594  1
  Li  Li6  1  0.81732569  0.47241171  0.00704647  1
  Li  Li7  1  0.65891386  0.49472337  0.12082678  1
  Li  Li8  1  0.55931395  0.75181102  0.09784870  1
  Li  Li9  1  0.89466701  0.23675220  0.01468184  1
  Li  Li10  1  0.06351343  0.58010691  0.03429229  1
  Li  Li11  1  0.40257427  0.40918889  0.09707958  1
  Li  Li12  1  0.90325421  0.75613332  0.09685001  1
  Li  Li13  1  0.53779357  0.28610278  0.03877034  1
  Li  Li14  1  0.42262997  0.90021076  0.03653094  1
  Li  Li15  1  0.06876458  0.08593381  0.10087755  1
  Li  Li16  1  0.38871225  0.01161934  0.08561367  1
  Li  Li17  1  0.98961516  0.10337577  0.05892017  1
  Li  Li18  1  0.92534482  0.63019895  0.05341554  1
  Li  Li19  1  0.56681780  0.33207148  0.08524325  1
  Li  Li20  1  0.07738495  0.48224461  0.08342518  1
  Li  Li21  1  0.39174180  0.53666308  0.05075828  1
  Li  Li22  1  0.55670927  0.86116309  0.05248188  1
  Li  Li23  1  0.84343744  0.22666202  0.08535849  1
  Li  Li24  1  0.23512365  0.24975483  0.10274836  1
  Li  Li25  1  0.17121714  0.86015158  0.04203197  1
  Li  Li26  1  0.73773345  0.75352224  0.03095627  1
  Li  Li27  1  0.72461831  0.24854692  0.10373859  1
  Li  Li28  1  0.65444366  0.16548203  0.26419335  1
  Li  Li29  1  0.81588748  0.82746249  0.15417226  1
  Li  Li30  1  0.15187845  0.99491601  0.15467719  1
  Li  Li31  1  0.31671130  0.00050628  0.26594671  1
  Li  Li32  1  0.81035597  0.33364089  0.26372706  1
  Li  Li33  1  0.65313649  0.66657557  0.15338289  1
  Li  Li34  1  0.31071104  0.51134668  0.15473317  1
  Li  Li35  1  0.14864146  0.49965995  0.26448223  1
  Li  Li36  1  0.05093655  0.75393915  0.24095819  1
  Li  Li37  1  0.40842067  0.25521938  0.17003041  1
  Li  Li38  1  0.55777474  0.60165939  0.17076066  1
  Li  Li39  1  0.91273977  0.38980678  0.24855179  1
  Li  Li40  1  0.41077395  0.75037860  0.24279936  1
  Li  Li41  1  0.05706985  0.25071278  0.16949259  1
  Li  Li42  1  0.91044610  0.89226270  0.17696948  1
  Li  Li43  1  0.55714894  0.10329921  0.24962699  1
  Li  Li44  1  0.89209027  0.01222017  0.22576922  1
  Li  Li45  1  0.56557591  0.00123263  0.19445573  1
  Li  Li46  1  0.39771331  0.66429583  0.19377150  1
  Li  Li47  1  0.06911832  0.33044373  0.22503817  1
  Li  Li48  1  0.56879972  0.49572128  0.22502548  1
  Li  Li49  1  0.90153030  0.49635666  0.19385134  1
  Li  Li50  1  0.06694457  0.83612165  0.19209558  1
  Li  Li51  1  0.39857574  0.16807982  0.22489058  1
  Li  Li52  1  0.73122100  0.25119852  0.24490978  1
  Li  Li53  1  0.73284130  0.74946362  0.17429983  1
  Li  Li54  1  0.23008425  0.75323145  0.17481442  1
  Li  Li55  1  0.23329349  0.24989754  0.24506940  1
  Li  Li56  1  0.15471360  0.16686096  0.40715738  1
  Li  Li57  1  0.31668954  0.83168626  0.29695731  1
  Li  Li58  1  0.65553155  0.98868423  0.29812413  1
  Li  Li59  1  0.81331265  0.00640936  0.40801658  1
  Li  Li60  1  0.31380334  0.33270657  0.40702864  1
  Li  Li61  1  0.14824394  0.66867884  0.29571906  1
  Li  Li62  1  0.81053335  0.50984694  0.29715021  1
  Li  Li63  1  0.64984874  0.49379225  0.40721477  1
  Li  Li64  1  0.55536166  0.74786956  0.38480571  1
  Li  Li65  1  0.90897986  0.25253394  0.31233326  1
  Li  Li66  1  0.05513641  0.60530919  0.31871510  1
  Li  Li67  1  0.40820873  0.39935884  0.39227116  1
  Li  Li68  1  0.90796711  0.75129572  0.39035765  1
  Li  Li69  1  0.55349064  0.24897324  0.31277311  1
  Li  Li70  1  0.41455328  0.89012578  0.32070909  1
  Li  Li71  1  0.05738026  0.10646598  0.39144268  1
  Li  Li72  1  0.39887278  0.00456108  0.36968948  1
  Li  Li73  1  0.06790505  0.99860723  0.33653850  1
  Li  Li74  1  0.89672071  0.66788708  0.33648552  1
  Li  Li75  1  0.56264262  0.33499437  0.36767701  1
  Li  Li76  1  0.06900991  0.49338565  0.36794464  1
  Li  Li77  1  0.39727007  0.50147021  0.33631484  1
  Li  Li78  1  0.57312842  0.83100589  0.33582013  1
  Li  Li79  1  0.90007685  0.16735868  0.36694946  1
  Li  Li80  1  0.23589381  0.24765637  0.38682919  1
  Li  Li81  1  0.23235804  0.75006248  0.31647887  1
  Li  Li82  1  0.73385808  0.74885723  0.31663566  1
  Li  Li83  1  0.73225225  0.24986168  0.38736616  1
  Li  Li84  1  0.64733947  0.14255418  0.55468749  1
  Li  Li85  1  0.80691567  0.84729631  0.44069003  1
  Li  Li86  1  0.15801487  0.99785005  0.44082812  1
  Li  Li87  1  0.28853835  0.02391574  0.55222526  1
  Li  Li88  1  0.81957424  0.35444645  0.55289708  1
  Li  Li89  1  0.65371030  0.65433454  0.44005082  1
  Li  Li90  1  0.30882183  0.50839393  0.44202128  1
  Li  Li91  1  0.15503471  0.50384955  0.55017499  1
  Li  Li92  1  0.04209621  0.78047715  0.52515015  1
  Li  Li93  1  0.39685208  0.25855554  0.46064179  1
  Li  Li94  1  0.56269507  0.59726590  0.46457706  1
  Li  Li95  1  0.92806596  0.39654329  0.52294396  1
  Li  Li96  1  0.40259455  0.74091928  0.52727333  1
  Li  Li97  1  0.06328095  0.24891922  0.46455664  1
  Li  Li98  1  0.90570869  0.90652512  0.46373201  1
  Li  Li99  1  0.57098612  0.06066053  0.54674854  1
  Li  Li100  1  0.90943732  0.00884018  0.50892064  1
  Li  Li101  1  0.62174054  0.94862661  0.47656799  1
  Li  Li102  1  0.38867613  0.67120091  0.47824871  1
  Li  Li103  1  0.07344383  0.35522741  0.51074774  1
  Li  Li104  1  0.54115076  0.51466023  0.50831176  1
  Li  Li105  1  0.89809122  0.50045426  0.47624259  1
  Li  Li106  1  0.07715106  0.82248150  0.47597748  1
  Li  Li107  1  0.47544133  0.11758883  0.50285365  1
  Li  Li108  1  0.72896256  0.26160659  0.53080848  1
  Li  Li109  1  0.74071194  0.73351282  0.45794777  1
  Li  Li110  1  0.23029542  0.75481519  0.45888186  1
  Li  Li111  1  0.29314227  0.23795332  0.51957465  1
  La  La112  1  0.36301853  0.86904844  0.13852363  1
  La  La113  1  0.60365143  0.12741809  0.13694597  1
  La  La114  1  0.09907220  0.63326309  0.13596256  1
  La  La115  1  0.86536500  0.37103582  0.13528113  1
  La  La116  1  0.73701993  0.74325091  0.10453576  1
  La  La117  1  0.72120235  0.26028432  0.03289855  1
  La  La118  1  0.23724929  0.24345901  0.03384573  1
  La  La119  1  0.23257735  0.74965957  0.10590708  1
  La  La120  1  0.99194663  0.33768183  0.05164213  1
  La  La121  1  0.49552716  0.61677648  0.06955100  1
  La  La122  1  0.46890815  0.14501420  0.06801218  1
  La  La123  1  0.97053647  0.88975509  0.06544303  1
  La  La124  1  0.86193309  0.87031769  0.28084080  1
  La  La125  1  0.10672984  0.12513840  0.28106657  1
  La  La126  1  0.60354921  0.62854937  0.28078558  1
  La  La127  1  0.35873878  0.37290413  0.28053274  1
  La  La128  1  0.23200979  0.75026968  0.24520688  1
  La  La129  1  0.23228904  0.25076501  0.17374426  1
  La  La130  1  0.73313866  0.24942868  0.17383709  1
  La  La131  1  0.73399217  0.74756475  0.24509715  1
  La  La132  1  0.48358112  0.36744359  0.20988898  1
  La  La133  1  0.98297325  0.62545518  0.20867358  1
  La  La134  1  0.98303765  0.13020357  0.20872076  1
  La  La135  1  0.48459553  0.86954138  0.20963589  1
  La  La136  1  0.36664788  0.86591759  0.42568833  1
  La  La137  1  0.60035017  0.13645576  0.42644845  1
  La  La138  1  0.10223726  0.62993334  0.42302503  1
  La  La139  1  0.86207530  0.36915002  0.42463385  1
  La  La140  1  0.73241369  0.75039107  0.38779054  1
  La  La141  1  0.73160813  0.25004343  0.31652851  1
  La  La142  1  0.23362234  0.24863134  0.31642081  1
  La  La143  1  0.23340614  0.74985162  0.38784277  1
  La  La144  1  0.98209883  0.36944679  0.35173100  1
  La  La145  1  0.48250082  0.62598098  0.35296921  1
  La  La146  1  0.48262374  0.13076089  0.35292044  1
  La  La147  1  0.98112650  0.87324022  0.35195250  1
  La  La148  1  0.22822231  0.75282763  0.52775825  1
  La  La149  1  0.23280659  0.25000884  0.45567250  1
  La  La150  1  0.72864256  0.25212376  0.45707125  1
  La  La151  1  0.74481762  0.73704306  0.52875361  1
  La  La152  1  0.47350625  0.35642558  0.50989842  1
  La  La153  1  0.96981613  0.64279149  0.49194444  1
  La  La154  1  0.99704873  0.11713413  0.49355148  1
  La  La155  1  0.49530071  0.86513929  0.49624645  1
  Zr  Zr156  1  0.48371189  0.99843442  0.13848575  1
  Zr  Zr157  1  0.48157337  0.49712555  0.13931748  1
  Zr  Zr158  1  0.98464188  0.49643744  0.13630027  1
  Zr  Zr159  1  0.97819937  0.00429509  0.13677612  1
  Zr  Zr160  1  0.24534688  0.98302237  0.06447140  1
  Zr  Zr161  1  0.72793718  0.00217613  0.06205594  1
  Zr  Zr162  1  0.23004731  0.51103909  0.06234001  1
  Zr  Zr163  1  0.73126115  0.50627356  0.06044911  1
  Zr  Zr164  1  0.98199560  0.00072090  0.28055939  1
  Zr  Zr165  1  0.98338141  0.49953069  0.28073732  1
  Zr  Zr166  1  0.48226289  0.50069943  0.28082667  1
  Zr  Zr167  1  0.48353104  0.99892167  0.28106046  1
  Zr  Zr168  1  0.73272207  0.99831945  0.20896592  1
  Zr  Zr169  1  0.23235609  0.00142175  0.20960460  1
  Zr  Zr170  1  0.73410572  0.49926937  0.20858678  1
  Zr  Zr171  1  0.23075125  0.50302620  0.20878419  1
  Zr  Zr172  1  0.48748744  0.99545996  0.42496559  1
  Zr  Zr173  1  0.48086487  0.50034789  0.42538308  1
  Zr  Zr174  1  0.98390814  0.49514593  0.42225748  1
  Zr  Zr175  1  0.98206882  0.00063237  0.42308119  1
  Zr  Zr176  1  0.23483491  0.99905835  0.35284824  1
  Zr  Zr177  1  0.73134474  0.00232927  0.35308178  1
  Zr  Zr178  1  0.23315756  0.50070341  0.35201064  1
  Zr  Zr179  1  0.73280218  0.49862535  0.35258925  1
  Zr  Zr180  1  0.73432736  0.00372364  0.50126317  1
  Zr  Zr181  1  0.23585195  0.00560922  0.49936814  1
  Zr  Zr182  1  0.73788216  0.49262077  0.49953533  1
  Zr  Zr183  1  0.22016332  0.50856647  0.49703998  1
  O  O184  1  0.83023670  0.20397133  0.12760269  1
  O  O185  1  0.12958315  0.40913340  0.12651222  1
  O  O186  1  0.62481531  0.29580037  0.12789417  1
  O  O187  1  0.33701385  0.09091130  0.12794024  1
  O  O188  1  0.01657456  0.31473583  0.12586845  1
  O  O189  1  0.95158191  0.88127866  0.11958772  1
  O  O190  1  0.44982822  0.18210912  0.12291545  1
  O  O191  1  0.95004417  0.31210593  0.01017199  1
  O  O192  1  0.51634601  0.61228059  0.12431951  1
  O  O193  1  0.70398621  0.59214795  0.10774562  1
  O  O194  1  0.75245926  0.41114105  0.02042953  1
  O  O195  1  0.19206976  0.48927404  0.02079125  1
  O  O196  1  0.25998583  0.53732700  0.10827694  1
  O  O197  1  0.75876503  0.91069269  0.10730340  1
  O  O198  1  0.67518949  0.12248407  0.02221340  1
  O  O199  1  0.29048996  0.99815130  0.02318202  1
  O  O200  1  0.21052104  0.95867931  0.11056199  1
  O  O201  1  0.54012142  0.91516728  0.09438981  1
  O  O202  1  0.90344459  0.09776491  0.03774916  1
  O  O203  1  0.05761950  0.44681967  0.04073908  1
  O  O204  1  0.42267596  0.53090766  0.09551137  1
  O  O205  1  0.92392818  0.59240748  0.09424689  1
  O  O206  1  0.54196070  0.42394537  0.04302660  1
  O  O207  1  0.41834282  0.04591235  0.04202369  1
  O  O208  1  0.03676525  0.97460207  0.09342124  1
  O  O209  1  0.39052249  0.86659871  0.08405122  1
  O  O210  1  0.10496418  0.06772654  0.05536793  1
  O  O211  1  0.87722141  0.81658191  0.05198696  1
  O  O212  1  0.57870910  0.17821425  0.08139213  1
  O  O213  1  0.08130912  0.62661294  0.07912274  1
  O  O214  1  0.38347039  0.39285985  0.05304934  1
  O  O215  1  0.57792394  0.69444092  0.05360208  1
  O  O216  1  0.88360839  0.32030247  0.07954792  1
  O  O217  1  0.19710481  0.17639101  0.07575265  1
  O  O218  1  0.30959990  0.77399993  0.04730999  1
  O  O219  1  0.65477172  0.93647465  0.04254345  1
  O  O220  1  0.77575900  0.09765275  0.07571758  1
  O  O221  1  0.27977263  0.31426153  0.07577468  1
  O  O222  1  0.16696759  0.71717930  0.04632181  1
  O  O223  1  0.79017823  0.58720820  0.04538323  1
  O  O224  1  0.69035943  0.39939928  0.07775680  1
  O  O225  1  0.33657109  0.20019194  0.27129302  1
  O  O226  1  0.12739644  0.80126941  0.14774618  1
  O  O227  1  0.83487120  0.59451964  0.14712700  1
  O  O228  1  0.62955522  0.40688646  0.27087018  1
  O  O229  1  0.13075772  0.29753128  0.27138972  1
  O  O230  1  0.33470377  0.69830684  0.14928656  1
  O  O231  1  0.63147714  0.90425543  0.14776250  1
  O  O232  1  0.83473256  0.09325629  0.27071343  1
  O  O233  1  0.51187764  0.31938028  0.26609926  1
  O  O234  1  0.95675493  0.67521918  0.15338713  1
  O  O235  1  0.01040826  0.11902537  0.15174636  1
  O  O236  1  0.45713926  0.87639886  0.26485366  1
  O  O237  1  0.95283599  0.18073753  0.26611413  1
  O  O238  1  0.51124278  0.82216480  0.15373594  1
  O  O239  1  0.45276573  0.37743530  0.15447182  1
  O  O240  1  0.00852716  0.62317919  0.26486304  1
  O  O241  1  0.19447410  0.59387675  0.25270525  1
  O  O242  1  0.26387877  0.41726946  0.16425802  1
  O  O243  1  0.69986720  0.48030110  0.16438654  1
  O  O244  1  0.76766122  0.51947365  0.25289483  1
  O  O245  1  0.26859468  0.90931421  0.25345255  1
  O  O246  1  0.20074044  0.08569684  0.16523022  1
  O  O247  1  0.76830561  0.01514559  0.16450715  1
  O  O248  1  0.70050573  0.97728033  0.25325315  1
  O  O249  1  0.03535604  0.91428882  0.23643352  1
  O  O250  1  0.42746824  0.09270943  0.18168419  1
  O  O251  1  0.53985671  0.47669962  0.18213504  1
  O  O252  1  0.92857984  0.51706510  0.23696335  1
  O  O253  1  0.42802104  0.58864461  0.23687231  1
  O  O254  1  0.04043543  0.40828621  0.18152966  1
  O  O255  1  0.92498636  0.02257096  0.18091446  1
  O  O256  1  0.53880182  0.98008287  0.23717810  1
  O  O257  1  0.88350595  0.87826966  0.22352102  1
  O  O258  1  0.58405683  0.12199962  0.19337132  1
  O  O259  1  0.38304149  0.82083857  0.19531536  1
  O  O260  1  0.08324953  0.17563604  0.22578233  1
  O  O261  1  0.58415285  0.62149870  0.22466810  1
  O  O262  1  0.88336118  0.37492719  0.19272420  1
  O  O263  1  0.08037308  0.68135715  0.19407459  1
  O  O264  1  0.38021182  0.32681223  0.22488700  1
  O  O265  1  0.68015315  0.19851259  0.21896527  1
  O  O266  1  0.78861588  0.79577298  0.19967657  1
  O  O267  1  0.17577549  0.91161972  0.19935502  1
  O  O268  1  0.28584036  0.09515144  0.21866607  1
  O  O269  1  0.78632711  0.29857012  0.21876350  1
  O  O270  1  0.67871044  0.70107511  0.19955190  1
  O  O271  1  0.28520945  0.59540705  0.19964915  1
  O  O272  1  0.17899409  0.40715491  0.21876880  1
  O  O273  1  0.83401131  0.20226262  0.41388392  1
  O  O274  1  0.63085895  0.79685879  0.29087350  1
  O  O275  1  0.33496214  0.59323452  0.29020362  1
  O  O276  1  0.13094904  0.40265526  0.41228196  1
  O  O277  1  0.63053214  0.29891357  0.41459420  1
  O  O278  1  0.83608677  0.70037145  0.29078643  1
  O  O279  1  0.12911784  0.90763620  0.29037216  1
  O  O280  1  0.33840250  0.09067271  0.41390049  1
  O  O281  1  0.01275156  0.31777336  0.40711948  1
  O  O282  1  0.45695934  0.67461616  0.29677049  1
  O  O283  1  0.51296910  0.12046344  0.29545991  1
  O  O284  1  0.95458968  0.87940649  0.40787031  1
  O  O285  1  0.45508737  0.17467846  0.40997695  1
  O  O286  1  0.00815473  0.82553327  0.29673178  1
  O  O287  1  0.95355153  0.37787625  0.29550520  1
  O  O288  1  0.50895910  0.62318558  0.40822799  1
  O  O289  1  0.69722323  0.58643942  0.39706499  1
  O  O290  1  0.76515717  0.41282435  0.30835287  1
  O  O291  1  0.19692671  0.48098456  0.30812910  1
  O  O292  1  0.26476765  0.52175644  0.39635615  1
  O  O293  1  0.76595112  0.91447247  0.39719173  1
  O  O294  1  0.69802309  0.08926851  0.30868795  1
  O  O295  1  0.27100694  0.01721471  0.30887372  1
  O  O296  1  0.20182235  0.97952828  0.39738912  1
  O  O297  1  0.54065356  0.90724174  0.38076060  1
  O  O298  1  0.92689923  0.09230254  0.32439888  1
  O  O299  1  0.03778086  0.47888698  0.32468719  1
  O  O300  1  0.42506051  0.52361688  0.38011806  1
  O  O301  1  0.92602136  0.59064196  0.37939503  1
  O  O302  1  0.53706865  0.40839626  0.32459543  1
  O  O303  1  0.43033733  0.01928531  0.32519116  1
  O  O304  1  0.03819640  0.98219638  0.37985861  1
  O  O305  1  0.38518317  0.87671096  0.36750578  1
  O  O306  1  0.08529743  0.12191219  0.33671663  1
  O  O307  1  0.88130920  0.82444393  0.33700658  1
  O  O308  1  0.58205215  0.17631332  0.36895134  1
  O  O309  1  0.08243457  0.62158474  0.36630899  1
  O  O310  1  0.38216663  0.37656480  0.33579218  1
  O  O311  1  0.58185985  0.67988628  0.33805303  1
  O  O312  1  0.88156382  0.32493708  0.36811520  1
  O  O313  1  0.18069602  0.20010530  0.36196169  1
  O  O314  1  0.28626191  0.79977186  0.34293895  1
  O  O315  1  0.67903368  0.90625984  0.34283986  1
  O  O316  1  0.78687613  0.09300220  0.36213751  1
  O  O317  1  0.28977470  0.29770641  0.36225977  1
  O  O318  1  0.17937551  0.70157334  0.34294448  1
  O  O319  1  0.78510498  0.59409050  0.34269985  1
  O  O320  1  0.67708175  0.40766457  0.36198932  1
  O  O321  1  0.12859142  0.79965244  0.43365478  1
  O  O322  1  0.84057631  0.58056625  0.43369024  1
  O  O323  1  0.33603858  0.70323376  0.43516642  1
  O  O324  1  0.63526599  0.89960853  0.43411974  1
  O  O325  1  0.51501206  0.24692557  0.55135678  1
  O  O326  1  0.94918948  0.67961279  0.43717960  1
  O  O327  1  0.01612119  0.11622228  0.43865074  1
  O  O328  1  0.51426777  0.81881312  0.44207627  1
  O  O329  1  0.44857093  0.38294010  0.43587220  1
  O  O330  1  0.17481411  0.61370271  0.53834082  1
  O  O331  1  0.25491876  0.41458638  0.45098029  1
  O  O332  1  0.70697864  0.46295920  0.45429047  1
  O  O333  1  0.79102594  0.50709337  0.53935697  1
  O  O334  1  0.27354018  0.90713420  0.54084150  1
  O  O335  1  0.20581060  0.09184409  0.45338043  1
  O  O336  1  0.76171483  0.03475108  0.45390345  1
  O  O337  1  0.71310295  0.95096917  0.54125182  1
  O  O338  1  0.04732341  0.91708301  0.51963539  1
  O  O339  1  0.42865440  0.08291016  0.46825781  1
  O  O340  1  0.54175817  0.47508400  0.46736436  1
  O  O341  1  0.92386730  0.54238617  0.51855457  1
  O  O342  1  0.40824053  0.59623565  0.52081287  1
  O  O343  1  0.04292984  0.41100429  0.46602020  1
  O  O344  1  0.92566973  0.03023690  0.46721109  1
  O  O345  1  0.56260944  0.93911316  0.52367872  1
  O  O346  1  0.88778373  0.88520868  0.50807690  1
  O  O347  1  0.58219035  0.12224496  0.48210161  1
  O  O348  1  0.38439968  0.82388401  0.48255747  1
  O  O349  1  0.08228986  0.19447893  0.50860701  1
  O  O350  1  0.58856691  0.60588448  0.50962062  1
  O  O351  1  0.88713854  0.36982863  0.48013215  1
  O  O352  1  0.07482921  0.68213132  0.47745157  1
  O  O353  1  0.36052040  0.31278527  0.50613666  1
  O  O354  1  0.67500891  0.20268705  0.51628976  1
  O  O355  1  0.77549950  0.81480143  0.48393523  1
  O  O356  1  0.18584864  0.90860178  0.48585455  1
  O  O357  1  0.29879242  0.08511426  0.51567115  1
  O  O358  1  0.81094969  0.28049110  0.51901397  1
  O  O359  1  0.69054688  0.68337123  0.48598104  1
  O  O360  1  0.26771690  0.60611285  0.48577500  1
  O  O361  1  0.15609191  0.42728465  0.51405858  1
