# generated using pymatgen
data_Li26La10Zr5O38
_symmetry_space_group_name_H-M   'P 1'
_cell_length_a   18.66058700
_cell_length_b   13.19488265
_cell_length_c   44.26921400
_cell_angle_alpha   90.00000000
_cell_angle_beta   90.00000000
_cell_angle_gamma   45.00062637
_symmetry_Int_Tables_number   1
_chemical_formula_structural   Li26La10Zr5O38
_chemical_formula_sum   'Li104 La40 Zr20 O152'
_cell_volume   7707.65725901
_cell_formula_units_Z   4
loop_
 _symmetry_equiv_pos_site_id
 _symmetry_equiv_pos_as_xyz
  1  'x, y, z'
loop_
 _atom_site_type_symbol
 _atom_site_label
 _atom_site_symmetry_multiplicity
 _atom_site_fract_x
 _atom_site_fract_y
 _atom_site_fract_z
 _atom_site_occupancy
  Li  Li0  1  0.06554772  0.15831053  0.07845606  1
  Li  Li1  1  0.72316510  0.81487718  0.12961306  1
  Li  Li2  1  0.05570493  0.98281102  0.12934024  1
  Li  Li3  1  0.71330295  0.01039919  0.07872857  1
  Li  Li4  1  0.21252634  0.33479251  0.09020708  1
  Li  Li5  1  0.55482142  0.66862156  0.12983993  1
  Li  Li6  1  0.22352274  0.50036389  0.12970088  1
  Li  Li7  1  0.56624003  0.48058099  0.09002866  1
  Li  Li8  1  0.46689602  0.72905791  0.08318868  1
  Li  Li9  1  0.65906230  0.46278306  0.04893447  1
  Li  Li10  1  0.11959426  0.50280303  0.04911954  1
  Li  Li11  1  0.31159300  0.38482019  0.08307986  1
  Li  Li12  1  0.82162078  0.75506162  0.08452245  1
  Li  Li13  1  0.41949859  0.35123987  0.99687253  1
  Li  Li14  1  0.35918908  0.91127792  0.99677780  1
  Li  Li15  1  0.95617476  0.12201134  0.08425751  1
  Li  Li16  1  0.31409563  0.96263595  0.05572013  1
  Li  Li17  1  0.03758679  0.96189780  0.04186330  1
  Li  Li18  1  0.74012698  0.75955743  0.04200130  1
  Li  Li19  1  0.46519387  0.31063812  0.05587616  1
  Li  Li20  1  0.98551310  0.49282780  0.05683665  1
  Li  Li21  1  0.30236856  0.48676921  0.03135326  1
  Li  Li22  1  0.47636976  0.81208270  0.03126623  1
  Li  Li23  1  0.79327482  0.18552561  0.05716155  1
  Li  Li24  1  0.13958043  0.24913079  0.06429962  1
  Li  Li25  1  0.20754525  0.69722407  0.00026791  1
  Li  Li26  1  0.56992781  0.83635954  0.00071955  1
  Li  Li27  1  0.63895486  0.24959750  0.06422924  1
  Li  Li28  1  0.55620617  0.16088855  0.23859298  1
  Li  Li29  1  0.22156042  0.82716989  0.26913684  1
  Li  Li30  1  0.55833393  0.98961635  0.26921772  1
  Li  Li31  1  0.22207977  0.99614602  0.23838556  1
  Li  Li32  1  0.72111896  0.32747358  0.23909558  1
  Li  Li33  1  0.05616497  0.66105534  0.26957558  1
  Li  Li34  1  0.72213621  0.49595427  0.26980200  1
  Li  Li35  1  0.05665149  0.49241817  0.23924795  1
  Li  Li36  1  0.96294526  0.74416590  0.21573404  1
  Li  Li37  1  0.31651940  0.24641313  0.14130323  1
  Li  Li38  1  0.46170779  0.60107653  0.14113217  1
  Li  Li39  1  0.81535919  0.39199973  0.21583679  1
  Li  Li40  1  0.32071884  0.73998457  0.21600158  1
  Li  Li41  1  0.96934872  0.23731763  0.13764228  1
  Li  Li42  1  0.80923290  0.89843758  0.13787999  1
  Li  Li43  1  0.45885155  0.10122867  0.21566856  1
  Li  Li44  1  0.80288993  0.99899793  0.19755061  1
  Li  Li45  1  0.46865096  0.99395948  0.16514786  1
  Li  Li46  1  0.30972411  0.65309447  0.16529852  1
  Li  Li47  1  0.97529319  0.32633494  0.19745219  1
  Li  Li48  1  0.47959716  0.48453555  0.19802696  1
  Li  Li49  1  0.80918230  0.49527309  0.16539655  1
  Li  Li50  1  0.96929549  0.83552916  0.16564897  1
  Li  Li51  1  0.29891010  0.16531228  0.19811896  1
  Li  Li52  1  0.63953032  0.24314592  0.21834713  1
  Li  Li53  1  0.63882716  0.74427340  0.14825783  1
  Li  Li54  1  0.13983398  0.74374457  0.14805286  1
  Li  Li55  1  0.13877020  0.24431445  0.21835169  1
  Li  Li56  1  0.05510543  0.16840838  0.37826892  1
  Li  Li57  1  0.71262582  0.83448526  0.41800193  1
  Li  Li58  1  0.06636159  0.98056299  0.41805552  1
  Li  Li59  1  0.72345454  0.00038215  0.37837081  1
  Li  Li60  1  0.22336899  0.31475975  0.37851957  1
  Li  Li61  1  0.56549911  0.65843760  0.42957404  1
  Li  Li62  1  0.21308371  0.51097203  0.42956497  1
  Li  Li63  1  0.55597187  0.48252223  0.37879903  1
  Li  Li64  1  0.46930360  0.73737491  0.37037990  1
  Li  Li65  1  0.82068874  0.24002726  0.29199194  1
  Li  Li66  1  0.95795115  0.60224106  0.29309583  1
  Li  Li67  1  0.30907394  0.39857291  0.37064013  1
  Li  Li68  1  0.81655934  0.74638240  0.36670728  1
  Li  Li69  1  0.46299596  0.24377861  0.29220490  1
  Li  Li70  1  0.31552539  0.89207010  0.29240908  1
  Li  Li71  1  0.96209806  0.10070423  0.36728975  1
  Li  Li72  1  0.30929899  0.99538778  0.34273501  1
  Li  Li73  1  0.97963832  0.98467534  0.31013878  1
  Li  Li74  1  0.79838185  0.66545894  0.31002023  1
  Li  Li75  1  0.46895457  0.33545394  0.34249647  1
  Li  Li76  1  0.96865715  0.49390815  0.34295161  1
  Li  Li77  1  0.30292398  0.49892161  0.31051711  1
  Li  Li78  1  0.47547136  0.82622447  0.31065828  1
  Li  Li79  1  0.80997321  0.15314573  0.34283992  1
  Li  Li80  1  0.13912850  0.24452233  0.35993410  1
  Li  Li81  1  0.13949073  0.74325582  0.28973364  1
  Li  Li82  1  0.63884029  0.74378841  0.28976944  1
  Li  Li83  1  0.63987267  0.24377445  0.36000275  1
  Li  Li84  1  0.91911816  0.85137399  0.51127954  1
  Li  Li85  1  0.32185478  0.25477667  0.42388473  1
  Li  Li86  1  0.45657406  0.62163239  0.42381640  1
  Li  Li87  1  0.85908496  0.41127761  0.51123408  1
  Li  Li88  1  0.15939187  0.96263603  0.45923193  1
  Li  Li89  1  0.96694751  0.22897364  0.42488793  1
  Li  Li90  1  0.81147083  0.88472182  0.42497814  1
  Li  Li91  1  0.61933396  0.00272022  0.45910785  1
  Li  Li92  1  0.80143702  0.98701151  0.47687010  1
  Li  Li93  1  0.48550918  0.99278009  0.45127352  1
  Li  Li94  1  0.29322136  0.68508573  0.45105143  1
  Li  Li95  1  0.97636093  0.31205022  0.47676864  1
  Li  Li96  1  0.53759543  0.46188029  0.46620466  1
  Li  Li97  1  0.81401965  0.46274250  0.45230347  1
  Li  Li98  1  0.96422631  0.81145550  0.45232762  1
  Li  Li99  1  0.23980237  0.26001893  0.46624860  1
  Li  Li100  1  0.70745059  0.19736031  0.50779405  1
  Li  Li101  1  0.63947945  0.74919096  0.44374155  1
  Li  Li102  1  0.13885742  0.74976067  0.44382800  1
  Li  Li103  1  0.06988880  0.33552229  0.50751840  1
  La  La104  1  0.25617629  0.87017998  0.11211890  1
  La  La105  1  0.52250412  0.10362722  0.11219962  1
  La  La106  1  0.01609122  0.62698594  0.11103490  1
  La  La107  1  0.76220655  0.38089512  0.11107937  1
  La  La108  1  0.63181154  0.74700417  0.07919064  1
  La  La109  1  0.14665743  0.73252087  0.07906241  1
  La  La110  1  0.87382659  0.40240303  0.04093721  1
  La  La111  1  0.41255282  0.59774067  0.03643365  1
  La  La112  1  0.36571628  0.14480119  0.03647981  1
  La  La113  1  0.90444323  0.87145870  0.04102081  1
  La  La114  1  0.76952928  0.86499866  0.25425147  1
  La  La115  1  0.00955345  0.12498909  0.25422082  1
  La  La116  1  0.50943581  0.62516316  0.25397541  1
  La  La117  1  0.26932094  0.36501954  0.25388562  1
  La  La118  1  0.13972633  0.74435272  0.21842017  1
  La  La119  1  0.13686990  0.24960183  0.14603228  1
  La  La120  1  0.64173263  0.24489175  0.14598591  1
  La  La121  1  0.63913870  0.74479623  0.21841851  1
  La  La122  1  0.39124405  0.36291248  0.18234928  1
  La  La123  1  0.88997036  0.62560700  0.18277803  1
  La  La124  1  0.88866990  0.12718533  0.18281402  1
  La  La125  1  0.38738500  0.86677076  0.18236789  1
  La  La126  1  0.26237959  0.88071300  0.39711038  1
  La  La127  1  0.51614629  0.12688192  0.39715718  1
  La  La128  1  0.02254421  0.60360699  0.39600623  1
  La  La129  1  0.75626596  0.37006985  0.39606388  1
  La  La130  1  0.63694836  0.74954071  0.36216119  1
  La  La131  1  0.63964253  0.24436201  0.28972728  1
  La  La132  1  0.13903276  0.24505118  0.28974554  1
  La  La133  1  0.14187573  0.74481585  0.36212409  1
  La  La134  1  0.88744780  0.36658520  0.32583726  1
  La  La135  1  0.38879846  0.62695038  0.32537531  1
  La  La136  1  0.39004968  0.12572620  0.32538183  1
  La  La137  1  0.89124029  0.86321342  0.32582870  1
  La  La138  1  0.13191046  0.24695520  0.42898462  1
  La  La139  1  0.64667084  0.23238232  0.42906756  1
  La  La140  1  0.40463844  0.37144503  0.46717788  1
  La  La141  1  0.86566364  0.64462325  0.47169862  1
  La  La142  1  0.91266984  0.09752954  0.47170484  1
  La  La143  1  0.37393451  0.90220086  0.46721948  1
  Zr  Zr144  1  0.38128953  0.99987020  0.10920394  1
  Zr  Zr145  1  0.39727878  0.48386600  0.10926017  1
  Zr  Zr146  1  0.89804133  0.49257840  0.11033690  1
  Zr  Zr147  1  0.88099724  0.01000015  0.11038122  1
  Zr  Zr148  1  0.88994852  0.99396126  0.25412050  1
  Zr  Zr149  1  0.88875531  0.49509939  0.25415599  1
  Zr  Zr150  1  0.38999605  0.49383565  0.25403403  1
  Zr  Zr151  1  0.38882408  0.99514720  0.25404811  1
  Zr  Zr152  1  0.64067721  0.99346740  0.18322942  1
  Zr  Zr153  1  0.13818645  0.99582711  0.18321626  1
  Zr  Zr154  1  0.63677705  0.49620943  0.18290948  1
  Zr  Zr155  1  0.14164394  0.49150945  0.18282776  1
  Zr  Zr156  1  0.39803970  0.99263913  0.39782793  1
  Zr  Zr157  1  0.38111944  0.50988840  0.39779053  1
  Zr  Zr158  1  0.88141766  0.49995466  0.39892100  1
  Zr  Zr159  1  0.89722120  0.98382765  0.39893405  1
  Zr  Zr160  1  0.13694160  0.99618893  0.32527077  1
  Zr  Zr161  1  0.64179192  0.99137122  0.32533131  1
  Zr  Zr162  1  0.14068879  0.49365359  0.32494101  1
  Zr  Zr163  1  0.63819890  0.49581121  0.32498947  1
  O  O164  1  0.73476675  0.21529653  0.10061535  1
  O  O165  1  0.02973771  0.80912970  0.12168373  1
  O  O166  1  0.74900341  0.58922718  0.12176094  1
  O  O167  1  0.04387530  0.40583791  0.10061821  1
  O  O168  1  0.53613289  0.27649053  0.09321749  1
  O  O169  1  0.25087681  0.68340137  0.12259029  1
  O  O170  1  0.52766906  0.90633445  0.12268028  1
  O  O171  1  0.24267437  0.06983765  0.09308387  1
  O  O172  1  0.92392751  0.31678610  0.09586711  1
  O  O173  1  0.86404189  0.67650508  0.12628517  1
  O  O174  1  0.91469584  0.12648504  0.12627189  1
  O  O175  1  0.85499824  0.88588749  0.09605210  1
  O  O176  1  0.36006316  0.17616548  0.09468544  1
  O  O177  1  0.41250619  0.81942317  0.12537713  1
  O  O178  1  0.36608800  0.36583497  0.12538410  1
  O  O179  1  0.41873991  0.61742857  0.09472458  1
  O  O180  1  0.60983284  0.58776547  0.08467524  1
  O  O181  1  0.17433585  0.40794384  0.13878637  1
  O  O182  1  0.60409426  0.47810159  0.13886562  1
  O  O183  1  0.16875021  0.52926185  0.08471175  1
  O  O184  1  0.67032363  0.89764242  0.08073275  1
  O  O185  1  0.10934432  0.07461848  0.13887320  1
  O  O186  1  0.66948183  0.01448975  0.13889326  1
  O  O187  1  0.10806502  0.96007367  0.08058072  1
  O  O188  1  0.44446844  0.90331527  0.06773202  1
  O  O189  1  0.33429258  0.51360076  0.06775119  1
  O  O190  1  0.84498146  0.58739700  0.06693135  1
  O  O191  1  0.34615425  0.54107137  0.00247910  1
  O  O192  1  0.43171036  0.95555099  0.00253497  1
  O  O193  1  0.93335979  0.99909965  0.06691180  1
  O  O194  1  0.37561604  0.80563673  0.02965787  1
  O  O195  1  0.40307884  0.27836948  0.02970059  1
  O  O196  1  0.97392674  0.64929030  0.05561225  1
  O  O197  1  0.80485638  0.31852340  0.05560937  1
  O  O198  1  0.03158284  0.27826779  0.04380190  1
  O  O199  1  0.74660974  0.06221164  0.04393415  1
  O  O200  1  0.20318400  0.30269054  0.04680542  1
  O  O201  1  0.10783302  0.77622933  0.02794134  1
  O  O202  1  0.67012072  0.71433906  0.02806634  1
  O  O203  1  0.57529588  0.43032657  0.04667079  1
  O  O204  1  0.24122852  0.19676644  0.24471308  1
  O  O205  1  0.53642037  0.79506345  0.26325672  1
  O  O206  1  0.24224615  0.58932180  0.26323234  1
  O  O207  1  0.53751685  0.40024355  0.24472112  1
  O  O208  1  0.03644430  0.29517948  0.24494876  1
  O  O209  1  0.74117133  0.69662652  0.26352758  1
  O  O210  1  0.03751560  0.90033199  0.26339106  1
  O  O211  1  0.74226547  0.08935381  0.24489809  1
  O  O212  1  0.41637964  0.31808433  0.23848777  1
  O  O213  1  0.36207010  0.67111758  0.26970557  1
  O  O214  1  0.41716356  0.11603231  0.26971659  1
  O  O215  1  0.36213179  0.87252514  0.23848739  1
  O  O216  1  0.86179488  0.17150855  0.23855713  1
  O  O217  1  0.91632992  0.81832036  0.26970835  1
  O  O218  1  0.86217307  0.37239126  0.26972842  1
  O  O219  1  0.91641107  0.61666794  0.23833231  1
  O  O220  1  0.10515533  0.58359590  0.22669080  1
  O  O221  1  0.67678196  0.39979581  0.28189707  1
  O  O222  1  0.10147696  0.47513025  0.28194463  1
  O  O223  1  0.67327697  0.51570143  0.22672688  1
  O  O224  1  0.17694763  0.89971258  0.22630363  1
  O  O225  1  0.60547970  0.08324502  0.28148380  1
  O  O226  1  0.17340934  0.01571334  0.28148187  1
  O  O227  1  0.60204637  0.97441876  0.22628633  1
  O  O228  1  0.94224111  0.90791900  0.20963772  1
  O  O229  1  0.32421186  0.09278468  0.15254316  1
  O  O230  1  0.45423718  0.46271130  0.15261497  1
  O  O231  1  0.83639973  0.51367856  0.20967394  1
  O  O232  1  0.33924058  0.57816975  0.20913964  1
  O  O233  1  0.95091886  0.39943941  0.15375731  1
  O  O234  1  0.82765237  0.02334038  0.15380392  1
  O  O235  1  0.43941426  0.97784300  0.20910716  1
  O  O236  1  0.78879952  0.87199945  0.19920021  1
  O  O237  1  0.49062293  0.11297660  0.16689364  1
  O  O238  1  0.28810813  0.81570980  0.16681933  1
  O  O239  1  0.98999031  0.17053016  0.19928798  1
  O  O240  1  0.48669011  0.61976068  0.19873537  1
  O  O241  1  0.78641858  0.37783928  0.16887536  1
  O  O242  1  0.99205579  0.67240855  0.16879062  1
  O  O243  1  0.29175557  0.31473018  0.19861007  1
  O  O244  1  0.58499630  0.19492739  0.19242461  1
  O  O245  1  0.69643953  0.79052838  0.17269554  1
  O  O246  1  0.08241771  0.90469389  0.17264839  1
  O  O247  1  0.19355455  0.08647371  0.19252018  1
  O  O248  1  0.69058816  0.29445416  0.19149332  1
  O  O249  1  0.58111477  0.69857054  0.17248650  1
  O  O250  1  0.19734910  0.58259246  0.17244333  1
  O  O251  1  0.08793015  0.39713315  0.19137627  1
  O  O252  1  0.75097388  0.18337289  0.38555795  1
  O  O253  1  0.03590748  0.77643338  0.41507057  1
  O  O254  1  0.74263848  0.57015270  0.41497506  1
  O  O255  1  0.02776734  0.40647448  0.38546517  1
  O  O256  1  0.52981770  0.30889759  0.38646327  1
  O  O257  1  0.23474375  0.71519459  0.40749313  1
  O  O258  1  0.54395683  0.90579877  0.40757628  1
  O  O259  1  0.24909845  0.08940482  0.38641741  1
  O  O260  1  0.91268585  0.31927251  0.38282417  1
  O  O261  1  0.86005997  0.67625583  0.41346825  1
  O  O262  1  0.91886265  0.11724367  0.41342731  1
  O  O263  1  0.86599608  0.86599241  0.38277232  1
  O  O264  1  0.36416909  0.17655854  0.38193869  1
  O  O265  1  0.42391733  0.81677335  0.41221544  1
  O  O266  1  0.35504231  0.38599068  0.41221726  1
  O  O267  1  0.41487596  0.62621224  0.38187431  1
  O  O268  1  0.60932618  0.57450347  0.36933115  1
  O  O269  1  0.17037880  0.39775095  0.42756842  1
  O  O270  1  0.60826502  0.45983618  0.42757040  1
  O  O271  1  0.16942790  0.51458280  0.36929250  1
  O  O272  1  0.67441009  0.90780001  0.36935925  1
  O  O273  1  0.10998703  0.08780296  0.42347676  1
  O  O274  1  0.66860702  0.02923267  0.42348093  1
  O  O275  1  0.10424726  0.97805214  0.36932140  1
  O  O276  1  0.45112191  0.89944631  0.35439179  1
  O  O277  1  0.83931160  0.07822125  0.29903753  1
  O  O278  1  0.93928176  0.47793404  0.29909501  1
  O  O279  1  0.32770917  0.52301050  0.35437563  1
  O  O280  1  0.82428058  0.59270205  0.35557852  1
  O  O281  1  0.44239400  0.40758621  0.29850504  1
  O  O282  1  0.33646948  0.01382054  0.29853186  1
  O  O283  1  0.95439469  0.96263093  0.35560256  1
  O  O284  1  0.28656621  0.87776527  0.33935002  1
  O  O285  1  0.98688846  0.11965957  0.30943306  1
  O  O286  1  0.79209655  0.81429829  0.30959797  1
  O  O287  1  0.49219843  0.17198161  0.33937414  1
  O  O288  1  0.99059925  0.61306606  0.34126960  1
  O  O289  1  0.28876476  0.37197526  0.30885585  1
  O  O290  1  0.48995536  0.67066826  0.30895539  1
  O  O291  1  0.78812070  0.31586522  0.34140193  1
  O  O292  1  0.08138955  0.19850374  0.33572149  1
  O  O293  1  0.19068464  0.79445424  0.31665626  1
  O  O294  1  0.58832172  0.89676431  0.31667043  1
  O  O295  1  0.69744739  0.08251579  0.33571157  1
  O  O296  1  0.19667543  0.29061471  0.33548700  1
  O  O297  1  0.08504842  0.69506432  0.31572482  1
  O  O298  1  0.69357513  0.58637461  0.31566629  1
  O  O299  1  0.58238951  0.40472092  0.33550979  1
  O  O300  1  0.84595373  0.04105873  0.50563594  1
  O  O301  1  0.34496768  0.08732789  0.44124521  1
  O  O302  1  0.43349200  0.49905225  0.44121483  1
  O  O303  1  0.93173047  0.45525666  0.50560995  1
  O  O304  1  0.94442479  0.40356587  0.44039688  1
  O  O305  1  0.83399972  0.01367910  0.44042820  1
  O  O306  1  0.47366115  0.14943662  0.45261393  1
  O  O307  1  0.30502343  0.81824917  0.45253887  1
  O  O308  1  0.87554854  0.30564096  0.47834129  1
  O  O309  1  0.90254489  0.77857875  0.47851751  1
  O  O310  1  0.60754955  0.27631335  0.48019749  1
  O  O311  1  0.70308314  0.80258353  0.46136464  1
  O  O312  1  0.07535910  0.93048622  0.46142989  1
  O  O313  1  0.17007234  0.21418396  0.48012893  1
  O  O314  1  0.53163223  0.77811288  0.46427546  1
  O  O315  1  0.24686158  0.56277178  0.46424987  1
