# generated using pymatgen
data_Li56La22Zr14O89
_symmetry_space_group_name_H-M   'P 1'
_cell_length_a   18.66058700
_cell_length_b   13.19488265
_cell_length_c   44.26921400
_cell_angle_alpha   90.00000000
_cell_angle_beta   90.00000000
_cell_angle_gamma   45.00062637
_symmetry_Int_Tables_number   1
_chemical_formula_structural   Li56La22Zr14O89
_chemical_formula_sum   'Li112 La44 Zr28 O178'
_cell_volume   7707.65725901
_cell_formula_units_Z   2
loop_
 _symmetry_equiv_pos_site_id
 _symmetry_equiv_pos_as_xyz
  1  'x, y, z'
loop_
 _atom_site_type_symbol
 _atom_site_label
 _atom_site_symmetry_multiplicity
 _atom_site_fract_x
 _atom_site_fract_y
 _atom_site_fract_z
 _atom_site_occupancy
  Li  Li0  1  0.12966159  0.16152947  0.11191557  1
  Li  Li1  1  0.28537742  0.84673753  0.00380203  1
  Li  Li2  1  0.62009366  0.02639699  0.00133348  1
  Li  Li3  1  0.78558350  0.99476512  0.11395509  1
  Li  Li4  1  0.28068962  0.34747049  0.11298313  1
  Li  Li5  1  0.14858951  0.63737620  0.00178617  1
  Li  Li6  1  0.79021913  0.47233843  0.99915129  1
  Li  Li7  1  0.63188998  0.49432374  0.11318542  1
  Li  Li8  1  0.53357542  0.75096450  0.09035750  1
  Li  Li9  1  0.86711239  0.23673966  0.00667171  1
  Li  Li10  1  0.03746380  0.57863691  0.02628203  1
  Li  Li11  1  0.37566823  0.40894650  0.08947877  1
  Li  Li12  1  0.87611024  0.75640772  0.08916472  1
  Li  Li13  1  0.51020087  0.28676846  0.03119552  1
  Li  Li14  1  0.39653677  0.89962140  0.02896367  1
  Li  Li15  1  0.04159690  0.08701665  0.09306545  1
  Li  Li16  1  0.36144790  0.01176735  0.07799937  1
  Li  Li17  1  0.96247323  0.10437665  0.05081498  1
  Li  Li18  1  0.89908871  0.63041526  0.04589765  1
  Li  Li19  1  0.53941942  0.33298402  0.07753749  1
  Li  Li20  1  0.05031237  0.48276697  0.07587760  1
  Li  Li21  1  0.36491748  0.53695419  0.04307124  1
  Li  Li22  1  0.53011298  0.86053744  0.04496579  1
  Li  Li23  1  0.81640822  0.22719346  0.07751652  1
  Li  Li24  1  0.20803595  0.25002476  0.09497616  1
  Li  Li25  1  0.14537633  0.85901460  0.03422534  1
  Li  Li26  1  0.71066548  0.75348280  0.02312819  1
  Li  Li27  1  0.69804395  0.24746110  0.09599075  1
  Li  Li28  1  0.62793334  0.16530131  0.25683872  1
  Li  Li29  1  0.78898208  0.82695147  0.14657211  1
  Li  Li30  1  0.12491029  0.99452687  0.14689628  1
  Li  Li31  1  0.28993948  0.00142311  0.25806468  1
  Li  Li32  1  0.78305360  0.33418609  0.25593469  1
  Li  Li33  1  0.62619304  0.66671477  0.14598870  1
  Li  Li34  1  0.28388358  0.51129783  0.14677106  1
  Li  Li35  1  0.12176366  0.50037545  0.25710664  1
  Li  Li36  1  0.02418258  0.75369299  0.23295601  1
  Li  Li37  1  0.38158371  0.25519562  0.16204581  1
  Li  Li38  1  0.53087505  0.60093110  0.16332052  1
  Li  Li39  1  0.88545333  0.39018033  0.24091095  1
  Li  Li40  1  0.38438950  0.74976377  0.23497706  1
  Li  Li41  1  0.03003662  0.25025314  0.16183791  1
  Li  Li42  1  0.88352037  0.89172667  0.16909098  1
  Li  Li43  1  0.53020071  0.10342319  0.24183604  1
  Li  Li44  1  0.86494147  0.01246569  0.21805388  1
  Li  Li45  1  0.53923543  0.00072240  0.18681700  1
  Li  Li46  1  0.37106964  0.66435621  0.18620812  1
  Li  Li47  1  0.04250150  0.32974301  0.21736737  1
  Li  Li48  1  0.54294368  0.49491448  0.21765943  1
  Li  Li49  1  0.87581047  0.49586737  0.18642429  1
  Li  Li50  1  0.03950751  0.83647629  0.18429870  1
  Li  Li51  1  0.37196117  0.16825260  0.21727699  1
  Li  Li52  1  0.70496281  0.25058723  0.23735532  1
  Li  Li53  1  0.70650707  0.74908039  0.16674042  1
  Li  Li54  1  0.20285568  0.75305877  0.16704994  1
  Li  Li55  1  0.20666103  0.24962942  0.23738845  1
  Li  Li56  1  0.12786671  0.16830810  0.39915844  1
  Li  Li57  1  0.29033008  0.83286123  0.28898478  1
  Li  Li58  1  0.62846901  0.98914625  0.29031984  1
  Li  Li59  1  0.78664985  0.00660727  0.40027459  1
  Li  Li60  1  0.28702987  0.33240652  0.39928267  1
  Li  Li61  1  0.12140528  0.66884933  0.28800016  1
  Li  Li62  1  0.78418313  0.50974276  0.28968324  1
  Li  Li63  1  0.62341920  0.49397853  0.39992755  1
  Li  Li64  1  0.52876307  0.74708382  0.37713315  1
  Li  Li65  1  0.88215977  0.25162992  0.30453220  1
  Li  Li66  1  0.02803483  0.60581584  0.31110738  1
  Li  Li67  1  0.38194208  0.39881371  0.38442400  1
  Li  Li68  1  0.88107800  0.75124100  0.38249945  1
  Li  Li69  1  0.52672570  0.24928766  0.30534003  1
  Li  Li70  1  0.38757558  0.89050911  0.31321879  1
  Li  Li71  1  0.03065958  0.10696653  0.38399074  1
  Li  Li72  1  0.37235514  0.00408213  0.36197413  1
  Li  Li73  1  0.04115521  0.99855489  0.32905035  1
  Li  Li74  1  0.86969862  0.66817607  0.32878356  1
  Li  Li75  1  0.53784644  0.33427538  0.36050376  1
  Li  Li76  1  0.04154406  0.49416693  0.36005327  1
  Li  Li77  1  0.37072206  0.50148476  0.32892040  1
  Li  Li78  1  0.54626768  0.83117040  0.32822951  1
  Li  Li79  1  0.87376722  0.16700489  0.35932898  1
  Li  Li80  1  0.20883019  0.24762118  0.37900430  1
  Li  Li81  1  0.20606341  0.75055187  0.30877278  1
  Li  Li82  1  0.70688867  0.74916513  0.30914832  1
  Li  Li83  1  0.70611677  0.24930516  0.37964533  1
  Li  Li84  1  0.62157481  0.14137710  0.54735258  1
  Li  Li85  1  0.78040070  0.84717982  0.43299802  1
  Li  Li86  1  0.13120313  0.99790189  0.43306288  1
  Li  Li87  1  0.26155783  0.02461260  0.54473056  1
  Li  Li88  1  0.79294639  0.35396084  0.54502083  1
  Li  Li89  1  0.62710291  0.65497886  0.43261164  1
  Li  Li90  1  0.28220879  0.50807987  0.43459208  1
  Li  Li91  1  0.12674041  0.50710832  0.54285479  1
  Li  Li92  1  0.01431189  0.78175996  0.51710123  1
  Li  Li93  1  0.36980679  0.25851110  0.45330616  1
  Li  Li94  1  0.53574736  0.59745491  0.45689202  1
  Li  Li95  1  0.90167207  0.39608952  0.51509187  1
  Li  Li96  1  0.37582371  0.74104896  0.51999765  1
  Li  Li97  1  0.03688035  0.24861433  0.45678492  1
  Li  Li98  1  0.87902114  0.90646483  0.45614819  1
  Li  Li99  1  0.54548972  0.05856733  0.53938132  1
  Li  Li100  1  0.88148714  0.01072310  0.50125490  1
  Li  Li101  1  0.59502422  0.94855240  0.46901374  1
  Li  Li102  1  0.36191462  0.67160705  0.47076206  1
  Li  Li103  1  0.04721879  0.35542803  0.50332226  1
  Li  Li104  1  0.51450577  0.51518680  0.50054105  1
  Li  Li105  1  0.87244339  0.49994787  0.46868935  1
  Li  Li106  1  0.05000701  0.82372674  0.46842083  1
  Li  Li107  1  0.44906364  0.11833616  0.49548066  1
  Li  Li108  1  0.70101643  0.26414176  0.52331247  1
  Li  Li109  1  0.71442672  0.73311598  0.45049055  1
  Li  Li110  1  0.20393396  0.75478493  0.45132315  1
  Li  Li111  1  0.26685014  0.23862723  0.51216193  1
  La  La112  1  0.33636403  0.86872630  0.13088884  1
  La  La113  1  0.57685558  0.12745650  0.12932688  1
  La  La114  1  0.07226537  0.63329685  0.12822333  1
  La  La115  1  0.83839979  0.37131460  0.12756179  1
  La  La116  1  0.71004212  0.74351653  0.09687841  1
  La  La117  1  0.69388737  0.26057463  0.02517698  1
  La  La118  1  0.21078651  0.24296918  0.02617309  1
  La  La119  1  0.20585771  0.74976669  0.09817132  1
  La  La120  1  0.96482169  0.33788803  0.04368048  1
  La  La121  1  0.46876819  0.61675312  0.06198894  1
  La  La122  1  0.44212949  0.14484820  0.06041613  1
  La  La123  1  0.94350278  0.89009855  0.05766405  1
  La  La124  1  0.83526843  0.87013592  0.27319205  1
  La  La125  1  0.07989810  0.12507164  0.27335627  1
  La  La126  1  0.57679366  0.62876236  0.27318881  1
  La  La127  1  0.33208883  0.37304935  0.27292946  1
  La  La128  1  0.20527129  0.74999435  0.23748275  1
  La  La129  1  0.20553557  0.25069663  0.16610331  1
  La  La130  1  0.70640123  0.24926294  0.16614599  1
  La  La131  1  0.70720062  0.74752596  0.23750626  1
  La  La132  1  0.45691170  0.36736433  0.20228457  1
  La  La133  1  0.95646870  0.62515888  0.20101673  1
  La  La134  1  0.95610712  0.13015276  0.20101356  1
  La  La135  1  0.45781942  0.86958228  0.20198408  1
  La  La136  1  0.33973622  0.86624208  0.41805491  1
  La  La137  1  0.57349666  0.13658250  0.41886334  1
  La  La138  1  0.07557209  0.62996001  0.41541702  1
  La  La139  1  0.83537423  0.36940664  0.41699470  1
  La  La140  1  0.70561082  0.75024233  0.38022237  1
  La  La141  1  0.70480664  0.25013358  0.30888588  1
  La  La142  1  0.20682504  0.24864073  0.30873320  1
  La  La143  1  0.20667711  0.74969831  0.38021126  1
  La  La144  1  0.95522534  0.36940509  0.34402975  1
  La  La145  1  0.45575631  0.62601430  0.34534189  1
  La  La146  1  0.45588148  0.13072965  0.34529501  1
  La  La147  1  0.95435122  0.87329956  0.34429857  1
  La  La148  1  0.20114970  0.75309862  0.52015153  1
  La  La149  1  0.20625961  0.24968577  0.44804304  1
  La  La150  1  0.70205315  0.25198150  0.44938534  1
  La  La151  1  0.71844616  0.73652790  0.52114410  1
  La  La152  1  0.44713147  0.35613330  0.50264137  1
  La  La153  1  0.94321736  0.64286292  0.48434555  1
  La  La154  1  0.97034519  0.11732839  0.48585442  1
  La  La155  1  0.46848528  0.86553371  0.48866656  1
  Zr  Zr156  1  0.45685441  0.99848151  0.13084861  1
  Zr  Zr157  1  0.45468364  0.49695584  0.13172572  1
  Zr  Zr158  1  0.95786612  0.49626688  0.12863108  1
  Zr  Zr159  1  0.95118135  0.00463253  0.12896685  1
  Zr  Zr160  1  0.21853588  0.98310602  0.05687638  1
  Zr  Zr161  1  0.70104354  0.00244783  0.05452724  1
  Zr  Zr162  1  0.20318936  0.51122020  0.05450839  1
  Zr  Zr163  1  0.70441686  0.50615718  0.05264302  1
  Zr  Zr164  1  0.95528869  0.00035906  0.27285200  1
  Zr  Zr165  1  0.95670307  0.49939152  0.27304635  1
  Zr  Zr166  1  0.45539371  0.50086880  0.27322930  1
  Zr  Zr167  1  0.45673996  0.99892864  0.27342142  1
  Zr  Zr168  1  0.70605466  0.99815020  0.20137412  1
  Zr  Zr169  1  0.20558604  0.00108659  0.20188923  1
  Zr  Zr170  1  0.70736105  0.49932967  0.20089981  1
  Zr  Zr171  1  0.20425914  0.50258363  0.20107079  1
  Zr  Zr172  1  0.46084369  0.99527372  0.41733010  1
  Zr  Zr173  1  0.45402567  0.50054200  0.41779199  1
  Zr  Zr174  1  0.95730231  0.49519202  0.41460121  1
  Zr  Zr175  1  0.95538329  0.00057712  0.41542608  1
  Zr  Zr176  1  0.20788572  0.99906976  0.34514079  1
  Zr  Zr177  1  0.70443305  0.00236370  0.34545122  1
  Zr  Zr178  1  0.20634100  0.50080385  0.34436622  1
  Zr  Zr179  1  0.70610740  0.49838562  0.34497292  1
  Zr  Zr180  1  0.70767076  0.00367425  0.49372637  1
  Zr  Zr181  1  0.20911685  0.00578894  0.49180939  1
  Zr  Zr182  1  0.71115826  0.49275007  0.49181339  1
  Zr  Zr183  1  0.19322933  0.50898702  0.48956979  1
  O  O184  1  0.80326322  0.20437449  0.11984719  1
  O  O185  1  0.10034825  0.80151254  0.13996966  1
  O  O186  1  0.80804811  0.59475416  0.13940398  1
  O  O187  1  0.10269223  0.40932308  0.11877706  1
  O  O188  1  0.59805078  0.29581677  0.12029311  1
  O  O189  1  0.30766237  0.69820520  0.14157342  1
  O  O190  1  0.60468591  0.90438652  0.14013143  1
  O  O191  1  0.31009708  0.09107539  0.12026924  1
  O  O192  1  0.98993392  0.31445544  0.11820427  1
  O  O193  1  0.92481258  0.88113702  0.11186917  1
  O  O194  1  0.42276716  0.18236054  0.11524045  1
  O  O195  1  0.92289381  0.31154500  0.00231109  1
  O  O196  1  0.48938748  0.61217749  0.11677376  1
  O  O197  1  0.67736824  0.59176162  0.10001626  1
  O  O198  1  0.72518954  0.41122535  0.01263700  1
  O  O199  1  0.16561826  0.48863561  0.01294224  1
  O  O200  1  0.23298984  0.53747258  0.10049927  1
  O  O201  1  0.73199543  0.91053937  0.09970059  1
  O  O202  1  0.64777921  0.12298415  0.01471384  1
  O  O203  1  0.26442720  0.99712295  0.01561735  1
  O  O204  1  0.18359634  0.95871390  0.10286549  1
  O  O205  1  0.51338154  0.91499659  0.08678773  1
  O  O206  1  0.87617771  0.09818149  0.02991819  1
  O  O207  1  0.03081239  0.44660198  0.03302664  1
  O  O208  1  0.39597139  0.53056671  0.08791826  1
  O  O209  1  0.89719088  0.59246959  0.08659441  1
  O  O210  1  0.51470245  0.42433856  0.03533977  1
  O  O211  1  0.39165598  0.04580745  0.03438746  1
  O  O212  1  0.00937170  0.97546746  0.08562656  1
  O  O213  1  0.36375245  0.86630930  0.07648472  1
  O  O214  1  0.07827019  0.06793047  0.04756744  1
  O  O215  1  0.85021140  0.81709956  0.04434326  1
  O  O216  1  0.55178079  0.17849979  0.07385699  1
  O  O217  1  0.05460557  0.62654687  0.07133105  1
  O  O218  1  0.35678353  0.39265706  0.04536022  1
  O  O219  1  0.55103013  0.69454424  0.04593078  1
  O  O220  1  0.85670717  0.32057827  0.07173966  1
  O  O221  1  0.17065107  0.17607755  0.06810847  1
  O  O222  1  0.28301338  0.77334213  0.03986523  1
  O  O223  1  0.62803193  0.93599500  0.03518287  1
  O  O224  1  0.74908651  0.09758319  0.06798466  1
  O  O225  1  0.25283110  0.31436630  0.06803531  1
  O  O226  1  0.14010717  0.71703162  0.03836326  1
  O  O227  1  0.76328144  0.58678151  0.03740833  1
  O  O228  1  0.66320935  0.39951593  0.07002517  1
  O  O229  1  0.30975990  0.19997614  0.26366180  1
  O  O230  1  0.60407825  0.79688953  0.28326391  1
  O  O231  1  0.30824810  0.59299061  0.28250028  1
  O  O232  1  0.60293616  0.40669274  0.26322488  1
  O  O233  1  0.10397495  0.29733987  0.26365819  1
  O  O234  1  0.80929745  0.70022096  0.28316432  1
  O  O235  1  0.10243775  0.90722115  0.28254496  1
  O  O236  1  0.80793613  0.09282264  0.26310741  1
  O  O237  1  0.48525585  0.31941486  0.25852854  1
  O  O238  1  0.92988426  0.67523957  0.14575579  1
  O  O239  1  0.98334423  0.11927780  0.14411616  1
  O  O240  1  0.43045086  0.87636637  0.25718809  1
  O  O241  1  0.92582449  0.18074090  0.25850543  1
  O  O242  1  0.48439595  0.82230342  0.14604410  1
  O  O243  1  0.42596970  0.37719546  0.14683436  1
  O  O244  1  0.98174506  0.62312044  0.25716875  1
  O  O245  1  0.16765103  0.59385187  0.24499052  1
  O  O246  1  0.23706075  0.41722864  0.15651501  1
  O  O247  1  0.67295698  0.48030773  0.15676877  1
  O  O248  1  0.74074380  0.51960925  0.24525074  1
  O  O249  1  0.24200574  0.90919393  0.24575175  1
  O  O250  1  0.17398965  0.08546833  0.15754673  1
  O  O251  1  0.74151882  0.01465236  0.15684610  1
  O  O252  1  0.67372234  0.97719321  0.24565446  1
  O  O253  1  0.00820497  0.91449134  0.22868793  1
  O  O254  1  0.40060669  0.09285135  0.17402938  1
  O  O255  1  0.51299343  0.47646349  0.17456560  1
  O  O256  1  0.90191556  0.51685684  0.22929497  1
  O  O257  1  0.40142875  0.58847976  0.22925313  1
  O  O258  1  0.01387563  0.40788552  0.17385537  1
  O  O259  1  0.89788054  0.02256376  0.17312582  1
  O  O260  1  0.51201667  0.98003492  0.22952831  1
  O  O261  1  0.85692499  0.87790438  0.21586391  1
  O  O262  1  0.55739115  0.12191095  0.18580958  1
  O  O263  1  0.35641374  0.82060783  0.18760567  1
  O  O264  1  0.05643098  0.17517800  0.21804230  1
  O  O265  1  0.55740317  0.62148278  0.21703131  1
  O  O266  1  0.85655592  0.37522749  0.18506470  1
  O  O267  1  0.05378268  0.68104848  0.18640825  1
  O  O268  1  0.35357609  0.32682608  0.21736877  1
  O  O269  1  0.65395310  0.19793728  0.21131055  1
  O  O270  1  0.76190924  0.79558844  0.19208023  1
  O  O271  1  0.14912366  0.91115556  0.19164198  1
  O  O272  1  0.25905526  0.09482283  0.21103634  1
  O  O273  1  0.75965620  0.29856326  0.21111183  1
  O  O274  1  0.65161347  0.70133120  0.19183612  1
  O  O275  1  0.25853111  0.59509177  0.19195839  1
  O  O276  1  0.15252633  0.40665492  0.21099014  1
  O  O277  1  0.80737515  0.20210341  0.40622376  1
  O  O278  1  0.10198101  0.79971065  0.42602805  1
  O  O279  1  0.81393999  0.58066095  0.42608808  1
  O  O280  1  0.10435546  0.40219025  0.40463194  1
  O  O281  1  0.60381245  0.29897712  0.40686813  1
  O  O282  1  0.30932145  0.70330890  0.42754900  1
  O  O283  1  0.60856203  0.89927754  0.42655574  1
  O  O284  1  0.31161232  0.09077579  0.40622280  1
  O  O285  1  0.98600407  0.31789908  0.39947622  1
  O  O286  1  0.43033865  0.67462387  0.28916007  1
  O  O287  1  0.48606046  0.12056756  0.28778747  1
  O  O288  1  0.92793854  0.87931005  0.40019873  1
  O  O289  1  0.42856823  0.17434593  0.40223409  1
  O  O290  1  0.98133310  0.82538193  0.28912426  1
  O  O291  1  0.92692921  0.37781829  0.28781402  1
  O  O292  1  0.48228540  0.62336257  0.40064431  1
  O  O293  1  0.67074397  0.58632069  0.38945629  1
  O  O294  1  0.73839372  0.41284568  0.30073005  1
  O  O295  1  0.17008067  0.48121069  0.30048502  1
  O  O296  1  0.23806717  0.52158652  0.38871344  1
  O  O297  1  0.73917575  0.91449492  0.38957876  1
  O  O298  1  0.67121616  0.08917028  0.30107392  1
  O  O299  1  0.24421543  0.01759325  0.30119065  1
  O  O300  1  0.17493274  0.97995670  0.38970430  1
  O  O301  1  0.51405260  0.90679725  0.37316109  1
  O  O302  1  0.90026337  0.09186865  0.31675037  1
  O  O303  1  0.01101329  0.47899153  0.31699091  1
  O  O304  1  0.39840852  0.52382033  0.37252100  1
  O  O305  1  0.89922897  0.59066292  0.37172639  1
  O  O306  1  0.51041489  0.40868558  0.31701476  1
  O  O307  1  0.40365028  0.01919880  0.31758285  1
  O  O308  1  0.01147138  0.98232625  0.37222050  1
  O  O309  1  0.35824942  0.87688925  0.35979398  1
  O  O310  1  0.05845424  0.12186924  0.32893248  1
  O  O311  1  0.85456313  0.82427222  0.32944967  1
  O  O312  1  0.55527586  0.17670106  0.36133095  1
  O  O313  1  0.05566251  0.62162800  0.35867843  1
  O  O314  1  0.35541903  0.37662308  0.32822434  1
  O  O315  1  0.55522445  0.67982687  0.33049742  1
  O  O316  1  0.85486018  0.32485143  0.36052573  1
  O  O317  1  0.15338246  0.20047110  0.35427106  1
  O  O318  1  0.25947257  0.79992766  0.33529463  1
  O  O319  1  0.65200367  0.90648244  0.33525954  1
  O  O320  1  0.76013902  0.09290559  0.35449791  1
  O  O321  1  0.26288763  0.29769941  0.35454791  1
  O  O322  1  0.15271688  0.70164577  0.33529089  1
  O  O323  1  0.75841874  0.59388992  0.33506084  1
  O  O324  1  0.65031572  0.40749121  0.35431530  1
  O  O325  1  0.48915253  0.24540001  0.54394998  1
  O  O326  1  0.92274599  0.67943858  0.42959832  1
  O  O327  1  0.98939245  0.11629352  0.43098849  1
  O  O328  1  0.48738070  0.81897281  0.43449464  1
  O  O329  1  0.42195824  0.38291869  0.42819562  1
  O  O330  1  0.14747137  0.61538151  0.53073928  1
  O  O331  1  0.22817264  0.41466625  0.44350524  1
  O  O332  1  0.68014890  0.46323651  0.44660787  1
  O  O333  1  0.76466781  0.50647028  0.53163705  1
  O  O334  1  0.24671989  0.90768570  0.53330603  1
  O  O335  1  0.17933162  0.09168606  0.44578595  1
  O  O336  1  0.73480246  0.03499670  0.44635276  1
  O  O337  1  0.68719787  0.94979569  0.53372116  1
  O  O338  1  0.02011838  0.91787381  0.51186986  1
  O  O339  1  0.40214682  0.08284235  0.46068175  1
  O  O340  1  0.51532731  0.47480985  0.45973861  1
  O  O341  1  0.89739590  0.54221617  0.51092596  1
  O  O342  1  0.38180635  0.59617149  0.51331449  1
  O  O343  1  0.01641875  0.41086784  0.45840477  1
  O  O344  1  0.89878763  0.03033328  0.45949641  1
  O  O345  1  0.53607224  0.93900849  0.51617399  1
  O  O346  1  0.86111909  0.88535846  0.50042898  1
  O  O347  1  0.55536757  0.12240107  0.47464590  1
  O  O348  1  0.35754910  0.82420156  0.47495932  1
  O  O349  1  0.05541990  0.19463774  0.50092292  1
  O  O350  1  0.56194684  0.60590580  0.50199085  1
  O  O351  1  0.86032060  0.37024028  0.47242103  1
  O  O352  1  0.04809710  0.68269855  0.46990534  1
  O  O353  1  0.33346488  0.31307624  0.49877200  1
  O  O354  1  0.64871138  0.20218979  0.50894754  1
  O  O355  1  0.74888476  0.81476280  0.47635072  1
  O  O356  1  0.15912543  0.90859753  0.47829880  1
  O  O357  1  0.27157969  0.08602038  0.50811409  1
  O  O358  1  0.78406707  0.28043805  0.51114242  1
  O  O359  1  0.66347556  0.68391849  0.47836872  1
  O  O360  1  0.24149531  0.60573033  0.47830157  1
  O  O361  1  0.12882357  0.42871216  0.50676583  1
