# generated using pymatgen
data_Li37La15Zr10O61
_symmetry_space_group_name_H-M   'P 1'
_cell_length_a   11.27162600
_cell_length_b   11.27162572
_cell_length_c   45.65416700
_cell_angle_alpha   90.00000000
_cell_angle_beta   90.00000000
_cell_angle_gamma   108.34782046
_symmetry_Int_Tables_number   1
_chemical_formula_structural   Li37La15Zr10O61
_chemical_formula_sum   'Li74 La30 Zr20 O122'
_cell_volume   5505.46986988
_cell_formula_units_Z   2
loop_
 _symmetry_equiv_pos_site_id
 _symmetry_equiv_pos_as_xyz
  1  'x, y, z'
loop_
 _atom_site_type_symbol
 _atom_site_label
 _atom_site_symmetry_multiplicity
 _atom_site_fract_x
 _atom_site_fract_y
 _atom_site_fract_z
 _atom_site_occupancy
  Li  Li0  1  0.70215461  0.75086758  0.01310502  1
  Li  Li1  1  0.94896645  0.85947221  0.12593549  1
  Li  Li2  1  0.53982104  0.92568626  0.03186100  1
  Li  Li3  1  0.09787535  0.73177239  0.11525402  1
  Li  Li4  1  0.49890966  0.31106709  0.15031457  1
  Li  Li5  1  0.61335644  0.87644103  0.19098140  1
  Li  Li6  1  0.53276979  0.27499577  0.09385938  1
  Li  Li7  1  0.10281764  0.39419463  0.05774001  1
  Li  Li8  1  0.07866650  0.19491352  0.03443063  1
  Li  Li9  1  0.51211360  0.47892565  0.11013696  1
  Li  Li10  1  0.70673207  0.29318012  0.12689648  1
  Li  Li11  1  0.14417976  0.86168787  0.16446716  1
  Li  Li12  1  0.97169101  0.32327762  0.17954583  1
  Li  Li13  1  0.10999416  0.91522086  0.08144524  1
  Li  Li14  1  0.54985662  0.74136073  0.05862498  1
  Li  Li15  1  0.02475277  0.90187077  0.02858033  1
  Li  Li16  1  0.60094638  0.72416112  0.11245373  1
  Li  Li17  1  0.82028735  0.08365439  0.04094705  1
  Li  Li18  1  0.95182501  0.36685501  0.12423893  1
  Li  Li19  1  0.27644143  0.04624834  0.19363831  1
  Li  Li20  1  0.83340184  0.14651506  0.14751315  1
  Li  Li21  1  0.28755739  0.04502733  0.04978393  1
  Li  Li22  1  0.37586979  0.60899003  0.09361313  1
  Li  Li23  1  0.36493340  0.28337185  0.19596493  1
  Li  Li24  1  0.74712555  0.90087734  0.14412886  1
  Li  Li25  1  0.53196980  0.15861575  0.04464817  1
  Li  Li26  1  0.13204373  0.52592785  0.09654083  1
  Li  Li27  1  0.15834802  0.31913765  0.21504994  1
  Li  Li28  1  0.42112906  0.38554551  0.32637907  1
  Li  Li29  1  0.02218800  0.46318202  0.22685535  1
  Li  Li30  1  0.56463416  0.23500575  0.31474541  1
  Li  Li31  1  0.98031597  0.83318471  0.34900679  1
  Li  Li32  1  0.09046150  0.39481223  0.39083809  1
  Li  Li33  1  0.01860259  0.80051702  0.29385346  1
  Li  Li34  1  0.57400808  0.90924152  0.24802475  1
  Li  Li35  1  0.58981937  0.70298156  0.22847386  1
  Li  Li36  1  0.98736363  0.01502526  0.30784924  1
  Li  Li37  1  0.39176821  0.89190049  0.20710622  1
  Li  Li38  1  0.20299921  0.81177143  0.33474790  1
  Li  Li39  1  0.60926845  0.38960589  0.35782935  1
  Li  Li40  1  0.44480464  0.84268886  0.37578822  1
  Li  Li41  1  0.57445147  0.42642004  0.28370140  1
  Li  Li42  1  0.02464706  0.26517843  0.26301079  1
  Li  Li43  1  0.52156712  0.45782143  0.22561763  1
  Li  Li44  1  0.07013288  0.25054718  0.31712005  1
  Li  Li45  1  0.15493905  0.81108624  0.21715137  1
  Li  Li46  1  0.43728008  0.89373259  0.32342908  1
  Li  Li47  1  0.75624183  0.55511403  0.39332047  1
  Li  Li48  1  0.31367438  0.65681516  0.34731937  1
  Li  Li49  1  0.74000012  0.57277578  0.24767432  1
  Li  Li50  1  0.84023787  0.13187319  0.29355198  1
  Li  Li51  1  0.84369691  0.80234895  0.39674514  1
  Li  Li52  1  0.22422155  0.42235583  0.34557712  1
  Li  Li53  1  0.98333476  0.66254518  0.24605666  1
  Li  Li54  1  0.60718902  0.04191723  0.29501582  1
  Li  Li55  1  0.64101474  0.84383464  0.41541263  1
  Li  Li56  1  0.88726387  0.95350118  0.52829950  1
  Li  Li57  1  0.49247657  0.97031270  0.42586997  1
  Li  Li58  1  0.05074477  0.77718534  0.50926166  1
  Li  Li59  1  0.48624091  0.30749669  0.48359307  1
  Li  Li60  1  0.05764076  0.43000032  0.44782335  1
  Li  Li61  1  0.07181501  0.23015921  0.42965406  1
  Li  Li62  1  0.51311311  0.50771965  0.50708787  1
  Li  Li63  1  0.88456759  0.40960499  0.41449020  1
  Li  Li64  1  0.03934115  0.96165410  0.48252645  1
  Li  Li65  1  0.47917600  0.78909017  0.45991704  1
  Li  Li66  1  0.98871689  0.98042178  0.42844405  1
  Li  Li67  1  0.56479937  0.80117982  0.51244907  1
  Li  Li68  1  0.63941847  0.33845827  0.41600426  1
  Li  Li69  1  0.77085149  0.62095607  0.50013270  1
  Li  Li70  1  0.21069661  0.09774298  0.44785963  1
  Li  Li71  1  0.30197942  0.65900242  0.49159916  1
  Li  Li72  1  0.45863385  0.17727168  0.44444858  1
  Li  Li73  1  0.05685333  0.54451793  0.49665929  1
  La  La74  1  0.80946743  0.58040022  0.11944584  1
  La  La75  1  0.30152707  0.08497541  0.12371576  1
  La  La76  1  0.35239190  0.56556448  0.02199673  1
  La  La77  1  0.86580321  0.78198674  0.19549880  1
  La  La78  1  0.24564247  0.39954772  0.14569873  1
  La  La79  1  0.99391926  0.63874882  0.04919589  1
  La  La80  1  0.62414992  0.01762072  0.09443479  1
  La  La81  1  0.62757311  0.49057486  0.04600930  1
  La  La82  1  0.00074205  0.14059256  0.09597690  1
  La  La83  1  0.74232573  0.40534502  0.19441042  1
  La  La84  1  0.37362860  0.77981307  0.14395174  1
  La  La85  1  0.30477818  0.60051135  0.22006497  1
  La  La86  1  0.28185764  0.10230843  0.32140494  1
  La  La87  1  0.78930740  0.60551725  0.32030635  1
  La  La88  1  0.80363519  0.10234592  0.22106205  1
  La  La89  1  0.34346642  0.30426914  0.39577405  1
  La  La90  1  0.72426806  0.92240542  0.34585717  1
  La  La91  1  0.48389289  0.16141270  0.24555110  1
  La  La92  1  0.10608994  0.54352302  0.29570489  1
  La  La93  1  0.10836144  0.03720324  0.24645883  1
  La  La94  1  0.48330429  0.66525959  0.29422922  1
  La  La95  1  0.21676181  0.92515682  0.39760735  1
  La  La96  1  0.84531047  0.29919186  0.34716091  1
  La  La97  1  0.77935362  0.12271515  0.42185797  1
  La  La98  1  0.23713029  0.13824456  0.51968527  1
  La  La99  1  0.28896711  0.61931473  0.41764047  1
  La  La100  1  0.96563228  0.68623509  0.44677751  1
  La  La101  1  0.59602059  0.06450971  0.49213740  1
  La  La102  1  0.58919181  0.56247769  0.44528286  1
  La  La103  1  0.96270653  0.21280171  0.49531096  1
  Zr  Zr104  1  0.55813332  0.59273130  0.16952418  1
  Zr  Zr105  1  0.82178161  0.32466089  0.06769554  1
  Zr  Zr106  1  0.05086112  0.08976499  0.17136706  1
  Zr  Zr107  1  0.31597727  0.81932807  0.06448983  1
  Zr  Zr108  1  0.82264271  0.84061442  0.06661369  1
  Zr  Zr109  1  0.05830813  0.59422047  0.17037170  1
  Zr  Zr110  1  0.55712559  0.09145119  0.17024050  1
  Zr  Zr111  1  0.31377814  0.31988690  0.07052717  1
  Zr  Zr112  1  0.03156988  0.11098684  0.37164336  1
  Zr  Zr113  1  0.29595906  0.85208975  0.27047707  1
  Zr  Zr114  1  0.53899491  0.61415805  0.36987424  1
  Zr  Zr115  1  0.79542792  0.35283566  0.27055647  1
  Zr  Zr116  1  0.29507491  0.35219548  0.27053322  1
  Zr  Zr117  1  0.53130600  0.11015251  0.37087475  1
  Zr  Zr118  1  0.03381051  0.61438615  0.37102203  1
  Zr  Zr119  1  0.79466389  0.85187126  0.27057179  1
  Zr  Zr120  1  0.76783779  0.37807880  0.47334556  1
  Zr  Zr121  1  0.27403651  0.88543189  0.47688638  1
  Zr  Zr122  1  0.76744351  0.86257705  0.47460412  1
  Zr  Zr123  1  0.27614002  0.38404539  0.47097569  1
  O  O124  1  0.20481414  0.62286682  0.06108761  1
  O  O125  1  0.43703621  0.00143463  0.05880448  1
  O  O126  1  0.86105834  0.98712616  0.17431810  1
  O  O127  1  0.24500784  0.18950761  0.16752349  1
  O  O128  1  0.95685322  0.48777581  0.08907323  1
  O  O129  1  0.69226040  0.16051662  0.05342445  1
  O  O130  1  0.71791692  0.72475048  0.15055982  1
  O  O131  1  0.40032302  0.45714026  0.18761443  1
  O  O132  1  0.55899314  0.60476271  0.01263832  1
  O  O133  1  0.07837037  0.01035445  0.13062432  1
  O  O134  1  0.41505350  0.77261227  0.03090498  1
  O  O135  1  0.24862415  0.86413923  0.10686895  1
  O  O136  1  0.63390264  0.45946670  0.15084021  1
  O  O137  1  0.48327698  0.72304743  0.18943388  1
  O  O138  1  0.68995296  0.39731037  0.09183174  1
  O  O139  1  0.95826788  0.25432135  0.05272774  1
  O  O140  1  0.22211035  0.34958023  0.03347966  1
  O  O141  1  0.39168742  0.31717700  0.11447547  1
  O  O142  1  0.54132112  0.16285980  0.12720963  1
  O  O143  1  0.99399388  0.73139382  0.15047942  1
  O  O144  1  0.12446147  0.45596547  0.19022848  1
  O  O145  1  0.95892153  0.76483656  0.08917570  1
  O  O146  1  0.68456676  0.89010688  0.04545569  1
  O  O147  1  0.44996749  0.59241401  0.13188285  1
  O  O148  1  0.82433114  0.45813068  0.03647057  1
  O  O149  1  0.81955619  0.21779697  0.10797747  1
  O  O150  1  0.08988936  0.94388917  0.19528058  1
  O  O151  1  0.01804201  0.23712975  0.14773113  1
  O  O152  1  0.17012979  0.86742963  0.04488944  1
  O  O153  1  0.46590598  0.79182760  0.09317266  1
  O  O154  1  0.96097249  0.00601604  0.05187593  1
  O  O155  1  0.68890779  0.66762079  0.08170661  1
  O  O156  1  0.21894634  0.73449785  0.18684232  1
  O  O157  1  0.89923502  0.45309161  0.15465610  1
  O  O158  1  0.36359131  0.97890813  0.16584454  1
  O  O159  1  0.74459758  0.20104496  0.17614534  1
  O  O160  1  0.21323398  0.12990527  0.07660268  1
  O  O161  1  0.42737269  0.51257275  0.06659486  1
  O  O162  1  0.86963769  0.75623312  0.02926019  1
  O  O163  1  0.80762779  0.94479872  0.10417629  1
  O  O164  1  0.17805997  0.59535953  0.13395979  1
  O  O165  1  0.51545448  0.23863037  0.19199148  1
  O  O166  1  0.59523567  0.94371455  0.14786210  1
  O  O167  1  0.46917631  0.28632652  0.05325063  1
  O  O168  1  0.16902386  0.36504158  0.09584638  1
  O  O169  1  0.69433132  0.16032796  0.26630298  1
  O  O170  1  0.89827156  0.54380668  0.27506694  1
  O  O171  1  0.34489905  0.51421510  0.37374653  1
  O  O172  1  0.72898429  0.71688375  0.36649156  1
  O  O173  1  0.43255025  0.01037309  0.28791828  1
  O  O174  1  0.15945984  0.69373840  0.25284308  1
  O  O175  1  0.18845837  0.24736373  0.35314029  1
  O  O176  1  0.87209332  0.97880646  0.39049323  1
  O  O177  1  0.02799618  0.16846222  0.21207714  1
  O  O178  1  0.56158900  0.52993267  0.32965338  1
  O  O179  1  0.87280870  0.32954131  0.22946609  1
  O  O180  1  0.71084516  0.37554380  0.31097649  1
  O  O181  1  0.11151853  0.98227635  0.35321502  1
  O  O182  1  0.95717300  0.24529590  0.39067155  1
  O  O183  1  0.16638355  0.93177070  0.28962497  1
  O  O184  1  0.42652338  0.77434575  0.25102046  1
  O  O185  1  0.71608499  0.86439403  0.22878040  1
  O  O186  1  0.87608270  0.84363068  0.31240235  1
  O  O187  1  0.56369968  0.01187645  0.21174726  1
  O  O188  1  0.02819607  0.69490330  0.32942966  1
  O  O189  1  0.46306083  0.24653973  0.35107008  1
  O  O190  1  0.59533903  0.97141539  0.39045953  1
  O  O191  1  0.42976597  0.28260192  0.29050986  1
  O  O192  1  0.15629104  0.41879141  0.25122266  1
  O  O193  1  0.66800149  0.59387108  0.20772144  1
  O  O194  1  0.91995909  0.11183554  0.33390855  1
  O  O195  1  0.29450537  0.96267954  0.23290405  1
  O  O196  1  0.29662838  0.74109666  0.30793200  1
  O  O197  1  0.57194015  0.46612128  0.39320864  1
  O  O198  1  0.50049369  0.75876294  0.34553842  1
  O  O199  1  0.64719957  0.38897903  0.24691198  1
  O  O200  1  0.94000639  0.31544628  0.29512572  1
  O  O201  1  0.43084233  0.51337917  0.25380723  1
  O  O202  1  0.15263446  0.19267601  0.28698614  1
  O  O203  1  0.69246038  0.24741204  0.38690722  1
  O  O204  1  0.37220819  0.96886974  0.35399474  1
  O  O205  1  0.84656507  0.50421782  0.36459829  1
  O  O206  1  0.22752134  0.72574911  0.37521782  1
  O  O207  1  0.68689187  0.66254622  0.27627322  1
  O  O208  1  0.90559409  0.04265967  0.26668397  1
  O  O209  1  0.30085435  0.23664762  0.23448883  1
  O  O210  1  0.29023090  0.46645137  0.30705217  1
  O  O211  1  0.94456587  0.60119448  0.20657520  1
  O  O212  1  0.64501671  0.10457622  0.33436103  1
  O  O213  1  0.99545953  0.76049901  0.39362422  1
  O  O214  1  0.07513105  0.46678281  0.34913469  1
  O  O215  1  0.94244750  0.81451726  0.24794771  1
  O  O216  1  0.64773492  0.89063620  0.29312381  1
  O  O217  1  0.15242894  0.70270320  0.48247274  1
  O  O218  1  0.38625258  0.08152396  0.48052585  1
  O  O219  1  0.89735121  0.54247552  0.48757080  1
  O  O220  1  0.63360230  0.21474176  0.45201945  1
  O  O221  1  0.51216664  0.69264692  0.41058325  1
  O  O222  1  0.03035044  0.09914440  0.52902538  1
  O  O223  1  0.34166710  0.83953689  0.43465174  1
  O  O224  1  0.17452748  0.93124572  0.51045689  1
  O  O225  1  0.63147209  0.44782821  0.48831958  1
  O  O226  1  0.90131469  0.30577659  0.44937139  1
  O  O227  1  0.19833981  0.38803684  0.42686978  1
  O  O228  1  0.36840511  0.35480079  0.50794567  1
  O  O229  1  0.04889008  0.54150025  0.41391044  1
  O  O230  1  0.90532215  0.81233336  0.49565943  1
  O  O231  1  0.63077557  0.93804450  0.45201703  1
  O  O232  1  0.13912547  0.11410461  0.40959036  1
  O  O233  1  0.77056129  0.48512022  0.43302123  1
  O  O234  1  0.76552969  0.24511304  0.50467819  1
  O  O235  1  0.12469611  0.91348188  0.44811283  1
  O  O236  1  0.41954890  0.83630689  0.49646586  1
  O  O237  1  0.90102829  0.03506344  0.45969233  1
  O  O238  1  0.62928596  0.69659760  0.48935489  1
  O  O239  1  0.16283492  0.19189678  0.47555352  1
  O  O240  1  0.37655923  0.57406982  0.46467562  1
  O  O241  1  0.78198339  0.75858278  0.43693968  1
  O  O242  1  0.72012081  0.94656852  0.51197960  1
  O  O243  1  0.41181398  0.10825388  0.40716850  1
  O  O244  1  0.41985842  0.33769806  0.44542783  1
  O  O245  1  0.12080006  0.41784613  0.48820108  1
