# generated using pymatgen
data_Li38La16Zr10O63
_symmetry_space_group_name_H-M   'P 1'
_cell_length_a   12.70453900
_cell_length_b   13.20454200
_cell_length_c   31.80681200
_cell_angle_alpha   90.00000000
_cell_angle_beta   90.00000000
_cell_angle_gamma   90.00000000
_symmetry_Int_Tables_number   1
_chemical_formula_structural   Li38La16Zr10O63
_chemical_formula_sum   'Li76 La32 Zr20 O126'
_cell_volume   5335.83504325
_cell_formula_units_Z   2
loop_
 _symmetry_equiv_pos_site_id
 _symmetry_equiv_pos_as_xyz
  1  'x, y, z'
loop_
 _atom_site_type_symbol
 _atom_site_label
 _atom_site_symmetry_multiplicity
 _atom_site_fract_x
 _atom_site_fract_y
 _atom_site_fract_z
 _atom_site_occupancy
  Li  Li0  1  0.70305407  0.90117063  0.12838353  1
  Li  Li1  1  0.81242574  0.07069386  0.12773769  1
  Li  Li2  1  0.20797667  0.56025157  0.12796376  1
  Li  Li3  1  0.30224079  0.33867064  0.14235401  1
  Li  Li4  1  0.86929034  0.24051282  0.16734081  1
  Li  Li5  1  0.63425162  0.75566083  0.17152075  1
  Li  Li6  1  0.41485130  0.19567850  0.12657426  1
  Li  Li7  1  0.09885070  0.67784207  0.19744618  1
  Li  Li8  1  0.32937391  0.16030832  0.19351592  1
  Li  Li9  1  0.18016864  0.87824508  0.19873091  1
  Li  Li10  1  0.81821570  0.40787597  0.19858973  1
  Li  Li11  1  0.67258311  0.58440910  0.20206640  1
  Li  Li12  1  0.42941193  0.32642654  0.20859861  1
  Li  Li13  1  0.01013733  0.62678595  0.26301297  1
  Li  Li14  1  0.95089738  0.14963376  0.23879594  1
  Li  Li15  1  0.54810605  0.84706701  0.23977792  1
  Li  Li16  1  0.34283331  0.95511740  0.23032087  1
  Li  Li17  1  0.16195257  0.05854231  0.23649652  1
  Li  Li18  1  0.58910564  0.42485114  0.23824326  1
  Li  Li19  1  0.84360047  0.56654503  0.24052685  1
  Li  Li20  1  0.39464831  0.42103592  0.29445183  1
  Li  Li21  1  0.15657677  0.57088577  0.29755460  1
  Li  Li22  1  0.64411161  0.93830219  0.30398895  1
  Li  Li23  1  0.85092139  0.06678630  0.30313713  1
  Li  Li24  1  0.05572652  0.16507829  0.30494993  1
  Li  Li25  1  0.44326777  0.84265729  0.30452969  1
  Li  Li26  1  0.55574923  0.32519350  0.30343870  1
  Li  Li27  1  0.92409304  0.67062616  0.32177046  1
  Li  Li28  1  0.20108696  0.41299187  0.33775655  1
  Li  Li29  1  0.31356946  0.58613182  0.33759810  1
  Li  Li30  1  0.68549547  0.09524749  0.34440037  1
  Li  Li31  1  0.80885944  0.91406525  0.34507989  1
  Li  Li32  1  0.37423872  0.75268747  0.37269684  1
  Li  Li33  1  0.12589601  0.25149085  0.37480713  1
  Li  Li34  1  0.87206431  0.75947902  0.37616280  1
  Li  Li35  1  0.62789481  0.25526160  0.37376268  1
  Li  Li36  1  0.81441744  0.59230839  0.40069192  1
  Li  Li37  1  0.69412621  0.41234580  0.40366712  1
  Li  Li38  1  0.30591693  0.91681812  0.40951075  1
  Li  Li39  1  0.20093543  0.08220715  0.41272570  1
  Li  Li40  1  0.94021594  0.83258076  0.44193920  1
  Li  Li41  1  0.56190281  0.17349321  0.43751756  1
  Li  Li42  1  0.44407932  0.66266831  0.44121751  1
  Li  Li43  1  0.05776988  0.34152591  0.44459722  1
  Li  Li44  1  0.86153036  0.43418821  0.44366327  1
  Li  Li45  1  0.65442277  0.56870349  0.44285153  1
  Li  Li46  1  0.11069235  0.92275166  0.44718536  1
  Li  Li47  1  0.39217261  0.08093014  0.45435580  1
  Li  Li48  1  0.89969018  0.93225102  0.50870079  1
  Li  Li49  1  0.57360942  0.08536344  0.50726073  1
  Li  Li50  1  0.16566948  0.44184041  0.51229860  1
  Li  Li51  1  0.35095702  0.55264624  0.51259498  1
  Li  Li52  1  0.54503673  0.65426570  0.50600900  1
  Li  Li53  1  0.95251753  0.34866060  0.51212325  1
  Li  Li54  1  0.05831585  0.82756820  0.51365604  1
  Li  Li55  1  0.40784518  0.16085224  0.54583331  1
  Li  Li56  1  0.69030573  0.92906054  0.54276066  1
  Li  Li57  1  0.80829754  0.08481827  0.54711778  1
  Li  Li58  1  0.17389535  0.60723589  0.54844593  1
  Li  Li59  1  0.33790914  0.37244681  0.55493606  1
  Li  Li60  1  0.87489031  0.25882750  0.57779715  1
  Li  Li61  1  0.62857117  0.74851435  0.57421425  1
  Li  Li62  1  0.37881038  0.26594830  0.61537773  1
  Li  Li63  1  0.12713205  0.75921951  0.57971788  1
  Li  Li64  1  0.29960183  0.07217935  0.61679682  1
  Li  Li65  1  0.18873470  0.91142699  0.61810846  1
  Li  Li66  1  0.79804760  0.38640889  0.61679882  1
  Li  Li67  1  0.70808100  0.60327039  0.61566739  1
  Li  Li68  1  0.10305618  0.69678051  0.64406911  1
  Li  Li69  1  0.87293042  0.17674588  0.64726895  1
  Li  Li70  1  0.59385445  0.79162634  0.64075694  1
  Li  Li71  1  0.92576613  0.57509800  0.66090552  1
  Li  Li72  1  0.95565455  0.90213346  0.08776119  1
  Li  Li73  1  0.60339521  0.68984902  0.10615873  1
  Li  Li74  1  0.89303208  0.32979263  0.10179182  1
  Li  Li75  1  0.09391408  0.78435599  0.13646939  1
  La  La76  1  0.25592110  0.02413185  0.11795520  1
  La  La77  1  0.74921064  0.50602553  0.11964519  1
  La  La78  1  0.87219212  0.73784837  0.17229256  1
  La  La79  1  0.39274942  0.75245061  0.17145628  1
  La  La80  1  0.62993143  0.25898503  0.16814958  1
  La  La81  1  0.11142361  0.23830092  0.17032018  1
  La  La82  1  0.74447350  0.00286674  0.21882131  1
  La  La83  1  0.25476776  0.48982182  0.21585386  1
  La  La84  1  0.49988593  0.12078106  0.26539827  1
  La  La85  1  0.00247384  0.38028081  0.26676936  1
  La  La86  1  0.49729418  0.62434806  0.26842395  1
  La  La87  1  0.99760345  0.87847835  0.27029881  1
  La  La88  1  0.74580514  0.49430682  0.31844417  1
  La  La89  1  0.25066604  0.00200842  0.32223966  1
  La  La90  1  0.37636688  0.24839312  0.37347583  1
  La  La91  1  0.87924878  0.24967354  0.37385409  1
  La  La92  1  0.12459981  0.75097515  0.37188048  1
  La  La93  1  0.62097468  0.75309187  0.37419775  1
  La  La94  1  0.25015419  0.50001838  0.42454211  1
  La  La95  1  0.74944379  0.00242489  0.43055640  1
  La  La96  1  0.99808147  0.62013580  0.47729097  1
  La  La97  1  0.49679236  0.87698241  0.47976463  1
  La  La98  1  0.00383638  0.12707798  0.48077679  1
  La  La99  1  0.50323377  0.37766980  0.47116165  1
  La  La100  1  0.24325545  0.98672931  0.52924123  1
  La  La101  1  0.75071374  0.49778597  0.52700574  1
  La  La102  1  0.87931373  0.75867378  0.57731422  1
  La  La103  1  0.37334727  0.74256510  0.57995623  1
  La  La104  1  0.62571187  0.24670028  0.58140353  1
  La  La105  1  0.12517240  0.26300194  0.58182362  1
  La  La106  1  0.74290189  0.97084577  0.62995933  1
  La  La107  1  0.23733094  0.50490104  0.63039408  1
  Zr  Zr108  1  0.00084212  0.98725585  0.16256774  1
  Zr  Zr109  1  0.51101594  0.99972139  0.15668052  1
  Zr  Zr110  1  0.49186199  0.50332869  0.15719553  1
  Zr  Zr111  1  0.00930981  0.49515500  0.15799488  1
  Zr  Zr112  1  0.75261891  0.24923353  0.26998343  1
  Zr  Zr113  1  0.74751955  0.75614928  0.27307422  1
  Zr  Zr114  1  0.25262935  0.24930229  0.27077999  1
  Zr  Zr115  1  0.25103469  0.75864262  0.26856051  1
  Zr  Zr116  1  0.49959464  0.50030422  0.37130500  1
  Zr  Zr117  1  0.00344698  0.49870843  0.36975068  1
  Zr  Zr118  1  0.00153354  0.00304294  0.37503387  1
  Zr  Zr119  1  0.49820041  0.00285880  0.37623370  1
  Zr  Zr120  1  0.24992576  0.74456935  0.47569376  1
  Zr  Zr121  1  0.25452173  0.25730057  0.47934515  1
  Zr  Zr122  1  0.74885839  0.74961015  0.47656594  1
  Zr  Zr123  1  0.75349188  0.25276921  0.47760482  1
  Zr  Zr124  1  0.00018076  0.00855010  0.58946563  1
  Zr  Zr125  1  0.49069778  0.98805446  0.58919162  1
  Zr  Zr126  1  0.51922711  0.50764066  0.58302743  1
  Zr  Zr127  1  0.99303414  0.51136620  0.58503948  1
  O  O128  1  0.86229047  0.92630147  0.13213830  1
  O  O129  1  0.66839775  0.04356414  0.14827927  1
  O  O130  1  0.15955905  0.42990717  0.14994519  1
  O  O131  1  0.34519617  0.57529859  0.15188215  1
  O  O132  1  0.34839062  0.93343351  0.17035313  1
  O  O133  1  0.14598271  0.04890061  0.17809201  1
  O  O134  1  0.64433785  0.45108333  0.18057579  1
  O  O135  1  0.85499136  0.55023004  0.18117141  1
  O  O136  1  0.47664191  0.15075184  0.18531235  1
  O  O137  1  0.03023524  0.83871856  0.18978669  1
  O  O138  1  0.96742580  0.35125348  0.18907816  1
  O  O139  1  0.53677639  0.65058856  0.19193551  1
  O  O140  1  0.78256799  0.19139725  0.21041200  1
  O  O141  1  0.72463503  0.81314823  0.21116196  1
  O  O142  1  0.28170234  0.29986117  0.20867639  1
  O  O143  1  0.22800983  0.73616378  0.20412318  1
  O  O144  1  0.93624134  0.01109598  0.22323848  1
  O  O145  1  0.55354061  0.97954535  0.22368958  1
  O  O146  1  0.07043996  0.53714570  0.22429641  1
  O  O147  1  0.44254897  0.47047290  0.22664548  1
  O  O148  1  0.09831431  0.20782799  0.24715731  1
  O  O149  1  0.40756511  0.79057042  0.24759686  1
  O  O150  1  0.60000939  0.28237477  0.24641406  1
  O  O151  1  0.89646093  0.71250701  0.25147895  1
  O  O152  1  0.30665234  0.10153652  0.25280588  1
  O  O153  1  0.19694890  0.91042025  0.25693668  1
  O  O154  1  0.81012345  0.39781768  0.25799238  1
  O  O155  1  0.69629725  0.60494498  0.25943635  1
  O  O156  1  0.19812817  0.39864086  0.27950942  1
  O  O157  1  0.30004242  0.60702134  0.27797075  1
  O  O158  1  0.69570640  0.09801101  0.28383291  1
  O  O159  1  0.80112037  0.90505981  0.28563416  1
  O  O160  1  0.40419824  0.27603378  0.29464658  1
  O  O161  1  0.10188097  0.71830473  0.29307642  1
  O  O162  1  0.90273450  0.20850231  0.29319039  1
  O  O163  1  0.59556243  0.79380681  0.29476579  1
  O  O164  1  0.94828815  0.53223122  0.30652283  1
  O  O165  1  0.55001468  0.46899148  0.30809636  1
  O  O166  1  0.05481357  0.02448178  0.31294891  1
  O  O167  1  0.44553863  0.98300429  0.31402805  1
  O  O168  1  0.71530494  0.30606166  0.33043663  1
  O  O169  1  0.77878142  0.70174551  0.33416573  1
  O  O170  1  0.21673653  0.19412097  0.33113054  1
  O  O171  1  0.28575547  0.81275903  0.32964526  1
  O  O172  1  0.03554581  0.35247089  0.34787512  1
  O  O173  1  0.46314223  0.64686464  0.34954118  1
  O  O174  1  0.53712615  0.15002615  0.35810693  1
  O  O175  1  0.96514592  0.85526363  0.35274350  1
  O  O176  1  0.34929531  0.44326572  0.35611013  1
  O  O177  1  0.15846795  0.55239246  0.35725121  1
  O  O178  1  0.65273109  0.94926386  0.36349577  1
  O  O179  1  0.84692627  0.05619216  0.36272523  1
  O  O180  1  0.84830140  0.44574038  0.38380277  1
  O  O181  1  0.65396211  0.55299953  0.38412976  1
  O  O182  1  0.15477257  0.94603480  0.38968631  1
  O  O183  1  0.34584949  0.05696682  0.39124912  1
  O  O184  1  0.96309077  0.64871803  0.38608540  1
  O  O185  1  0.53883136  0.35615043  0.39578177  1
  O  O186  1  0.46426523  0.85392299  0.39749945  1
  O  O187  1  0.03524213  0.14974117  0.39729286  1
  O  O188  1  0.28257455  0.69330804  0.41479894  1
  O  O189  1  0.21339795  0.31440864  0.41859678  1
  O  O190  1  0.78540986  0.81083535  0.41730324  1
  O  O191  1  0.71708911  0.19850835  0.41665517  1
  O  O192  1  0.44299205  0.52421784  0.43239129  1
  O  O193  1  0.04957503  0.48074054  0.43251663  1
  O  O194  1  0.54778977  0.03174211  0.44078464  1
  O  O195  1  0.95416600  0.97354265  0.43860124  1
  O  O196  1  0.59740725  0.70764105  0.45327302  1
  O  O197  1  0.90565889  0.29267798  0.45489574  1
  O  O198  1  0.09421585  0.77858167  0.45360400  1
  O  O199  1  0.40260966  0.22647223  0.45136443  1
  O  O200  1  0.80551678  0.60140206  0.46055050  1
  O  O201  1  0.70081334  0.40674210  0.46303712  1
  O  O202  1  0.30172402  0.89395682  0.46722294  1
  O  O203  1  0.19984298  0.10772707  0.47170286  1
  O  O204  1  0.68909185  0.89521155  0.48749036  1
  O  O205  1  0.81118426  0.10570898  0.48902320  1
  O  O206  1  0.19686196  0.59321626  0.48990880  1
  O  O207  1  0.31531163  0.40661613  0.49347031  1
  O  O208  1  0.90165294  0.78672326  0.49918920  1
  O  O209  1  0.59852226  0.22608863  0.50058362  1
  O  O210  1  0.39984152  0.70412859  0.49984166  1
  O  O211  1  0.10111161  0.30041361  0.50201794  1
  O  O212  1  0.43420658  0.02987021  0.52190634  1
  O  O213  1  0.05073068  0.97216187  0.52203837  1
  O  O214  1  0.55127791  0.51656686  0.52186255  1
  O  O215  1  0.93581935  0.48801956  0.52287906  1
  O  O216  1  0.21270210  0.79969865  0.53588278  1
  O  O217  1  0.28382021  0.23021737  0.54291031  1
  O  O218  1  0.72060608  0.68623339  0.53645909  1
  O  O219  1  0.78321440  0.31166515  0.53683372  1
  O  O220  1  0.53023389  0.85037702  0.55557005  1
  O  O221  1  0.96551833  0.14983639  0.55958622  1
  O  O222  1  0.03248938  0.65788540  0.55585777  1
  O  O223  1  0.47176179  0.35955430  0.58724271  1
  O  O224  1  0.84516633  0.94570568  0.56625394  1
  O  O225  1  0.64527245  0.05453097  0.57047361  1
  O  O226  1  0.14739173  0.46763609  0.56993776  1
  O  O227  1  0.35967445  0.55072508  0.57492055  1
  O  O228  1  0.33653536  0.93106184  0.59777373  1
  O  O229  1  0.15370053  0.05849831  0.59965357  1
  O  O230  1  0.67099141  0.46204577  0.59607063  1
  O  O231  1  0.85793184  0.58146908  0.61023821  1
  O  O232  1  0.43323712  0.05706349  0.10714030  1
  O  O233  1  0.08711389  0.92008430  0.11011722  1
  O  O234  1  0.56910336  0.55199435  0.10636219  1
  O  O235  1  0.92970551  0.46175554  0.10526415  1
  O  O236  1  0.26191853  0.19579215  0.13060983  1
  O  O237  1  0.73745497  0.69347075  0.12915733  1
  O  O238  1  0.76779098  0.31419818  0.12866850  1
  O  O239  1  0.54973460  0.84840851  0.14049733  1
  O  O240  1  0.95525326  0.13356784  0.14341332  1
  O  O241  1  0.06023802  0.64064207  0.14235352  1
  O  O242  1  0.45680647  0.35336425  0.14669518  1
  O  O243  1  0.43887173  0.13276447  0.60385466  1
  O  O244  1  0.04112886  0.85661878  0.60639580  1
  O  O245  1  0.95982099  0.36479843  0.59980082  1
  O  O246  1  0.54475444  0.65301715  0.60895855  1
  O  O247  1  0.76301790  0.24210498  0.62345627  1
  O  O248  1  0.73627307  0.79692711  0.62194852  1
  O  O249  1  0.24736854  0.33204371  0.62747476  1
  O  O250  1  0.23143601  0.69654129  0.61942452  1
  O  O251  1  0.91108098  0.04497496  0.64074988  1
  O  O252  1  0.56393213  0.93416394  0.64068580  1
  O  O253  1  0.06113751  0.55933547  0.64534808  1
