# generated using pymatgen
data_Li36La14Zr8O55
_symmetry_space_group_name_H-M   'P 1'
_cell_length_a   11.27162600
_cell_length_b   12.64834664
_cell_length_c   46.65146700
_cell_angle_alpha   90.00000000
_cell_angle_beta   90.00000000
_cell_angle_gamma   124.12984495
_symmetry_Int_Tables_number   1
_chemical_formula_structural   Li36La14Zr8O55
_chemical_formula_sum   'Li72 La28 Zr16 O110'
_cell_volume   5505.46958166
_cell_formula_units_Z   2
loop_
 _symmetry_equiv_pos_site_id
 _symmetry_equiv_pos_as_xyz
  1  'x, y, z'
loop_
 _atom_site_type_symbol
 _atom_site_label
 _atom_site_symmetry_multiplicity
 _atom_site_fract_x
 _atom_site_fract_y
 _atom_site_fract_z
 _atom_site_occupancy
  Li  Li0  1  0.74441914  0.33803401  0.06295254  1
  Li  Li1  1  0.19551425  0.91050621  0.05093204  1
  Li  Li2  1  0.96176289  0.95145352  0.09894202  1
  Li  Li3  1  0.67298681  0.26563307  0.15799493  1
  Li  Li4  1  0.34605898  0.49610092  0.15420591  1
  Li  Li5  1  0.50377675  0.07911317  0.18898227  1
  Li  Li6  1  0.50644390  0.68386985  0.11960753  1
  Li  Li7  1  0.25972850  0.62288702  0.13544463  1
  Li  Li8  1  0.76511208  0.11140236  0.17722800  1
  Li  Li9  1  0.39724189  0.42000592  0.09909650  1
  Li  Li10  1  0.59801942  0.78343465  0.00350121  1
  Li  Li11  1  0.25595649  0.13874027  0.08692727  1
  Li  Li12  1  0.51814140  0.11306611  0.06485952  1
  Li  Li13  1  0.12549790  0.86744818  0.09979204  1
  Li  Li14  1  0.87033731  0.37691223  0.01636442  1
  Li  Li15  1  0.04810033  0.62796526  0.12042191  1
  Li  Li16  1  0.02112871  0.21109304  0.18929995  1
  Li  Li17  1  0.30086632  0.35023869  0.05077816  1
  Li  Li18  1  0.69266292  0.98132286  0.03713657  1
  Li  Li19  1  0.54689700  0.33858396  0.09004679  1
  Li  Li20  1  0.37370038  0.83831230  0.01822280  1
  Li  Li21  1  0.18405837  0.79249678  0.15505692  1
  Li  Li22  1  0.82972862  0.98350958  0.14604490  1
  Li  Li23  1  0.77836461  0.39753459  0.10893546  1
  Li  Li24  1  0.06322632  0.73051931  0.99799459  1
  Li  Li25  1  0.23035822  0.58067379  0.02312490  1
  Li  Li26  1  0.73222335  0.87923289  0.09894258  1
  Li  Li27  1  0.83585024  0.85703558  0.25416528  1
  Li  Li28  1  0.17101998  0.40992146  0.25185824  1
  Li  Li29  1  0.99737630  0.83482687  0.22065368  1
  Li  Li30  1  0.99125743  0.44058212  0.28869040  1
  Li  Li31  1  0.68504260  0.79361385  0.35402340  1
  Li  Li32  1  0.32834570  0.98331632  0.36382595  1
  Li  Li33  1  0.55124186  0.63005446  0.38916632  1
  Li  Li34  1  0.51877266  0.20886397  0.32067668  1
  Li  Li35  1  0.26323372  0.11109790  0.33227414  1
  Li  Li36  1  0.75939999  0.62093189  0.37421585  1
  Li  Li37  1  0.39518021  0.97716072  0.30736099  1
  Li  Li38  1  0.61598506  0.33843389  0.20556425  1
  Li  Li39  1  0.24786379  0.61371067  0.27618887  1
  Li  Li40  1  0.74902259  0.61586621  0.23375516  1
  Li  Li41  1  0.11643342  0.33807363  0.30398509  1
  Li  Li42  1  0.89540589  0.97777324  0.20240615  1
  Li  Li43  1  0.00177559  0.07892361  0.32058653  1
  Li  Li44  1  0.00639521  0.68368957  0.38997575  1
  Li  Li45  1  0.33569011  0.85600991  0.25576040  1
  Li  Li46  1  0.67146877  0.41032300  0.25768044  1
  Li  Li47  1  0.49875452  0.83383252  0.28935111  1
  Li  Li48  1  0.49282381  0.44097361  0.22159078  1
  Li  Li49  1  0.17132329  0.26327840  0.35128105  1
  Li  Li50  1  0.84499899  0.49441546  0.35531110  1
  Li  Li51  1  0.75521510  0.88821330  0.30420718  1
  Li  Li52  1  0.25874331  0.39283721  0.20368191  1
  Li  Li53  1  0.25513758  0.88845722  0.20546893  1
  Li  Li54  1  0.75691898  0.39197759  0.30604906  1
  Li  Li55  1  0.80214252  0.35081503  0.45909696  1
  Li  Li56  1  0.19284768  0.98276245  0.47240556  1
  Li  Li57  1  0.04597177  0.33799649  0.41994224  1
  Li  Li58  1  0.87316651  0.83724148  0.49129094  1
  Li  Li59  1  0.36915954  0.37562273  0.49323032  1
  Li  Li60  1  0.62580302  0.86562452  0.40984400  1
  Li  Li61  1  0.01856423  0.11380839  0.44497718  1
  Li  Li62  1  0.75615266  0.13802445  0.42295413  1
  Li  Li63  1  0.09795734  0.78418236  0.50606820  1
  Li  Li64  1  0.89741517  0.42065228  0.41068885  1
  Li  Li65  1  0.24529974  0.33743961  0.44657296  1
  Li  Li66  1  0.69509640  0.91085449  0.45893067  1
  Li  Li67  1  0.46259560  0.95049112  0.41106889  1
  Li  Li68  1  0.73059914  0.58018943  0.48664267  1
  Li  Li69  1  0.23317892  0.88014376  0.41077045  1
  Li  Li70  1  0.27721948  0.39643211  0.40047989  1
  Li  Li71  1  0.56356663  0.73013862  0.51181886  1
  La  La72  1  0.13860964  0.44817967  0.07998352  1
  La  La73  1  0.84509191  0.81519456  0.03131392  1
  La  La74  1  0.39319244  0.08095423  0.12799435  1
  La  La75  1  0.63174230  0.70004763  0.18187654  1
  La  La76  1  0.74842770  0.12809320  0.10621533  1
  La  La77  1  0.76969068  0.64762153  0.10543386  1
  La  La78  1  0.65784383  0.47244210  0.02579109  1
  La  La79  1  0.40015274  0.82957711  0.08215440  1
  La  La80  1  0.88493010  0.58127048  0.17929182  1
  La  La81  1  0.12642148  0.20880575  0.12922209  1
  La  La82  1  0.13028358  0.95070888  0.27898139  1
  La  La83  1  0.87448411  0.32394749  0.22827755  1
  La  La84  1  0.38458355  0.58092364  0.33062131  1
  La  La85  1  0.62590065  0.20815056  0.38070921  1
  La  La86  1  0.25339967  0.63676412  0.20526451  1
  La  La87  1  0.75309741  0.63627447  0.30455216  1
  La  La88  1  0.75788866  0.14129960  0.30560094  1
  La  La89  1  0.25821135  0.14137470  0.20415824  1
  La  La90  1  0.63036342  0.95083080  0.23076083  1
  La  La91  1  0.37469871  0.32379240  0.28156293  1
  La  La92  1  0.89312306  0.08097122  0.38186510  1
  La  La93  1  0.13176292  0.70002451  0.32798493  1
  La  La94  1  0.15845962  0.47240492  0.48387213  1
  La  La95  1  0.90025965  0.82920375  0.42752267  1
  La  La96  1  0.24825030  0.12790728  0.40343298  1
  La  La97  1  0.26973662  0.64740175  0.40435278  1
  La  La98  1  0.63861261  0.44770878  0.42984643  1
  La  La99  1  0.34506492  0.81557184  0.47845143  1
  Zr  Zr100  1  0.00502728  0.39247929  0.15412757  1
  Zr  Zr101  1  0.48348013  0.61839111  0.04999743  1
  Zr  Zr102  1  0.01597687  0.89744205  0.15463014  1
  Zr  Zr103  1  0.01194526  0.64061168  0.05241723  1
  Zr  Zr104  1  0.51243015  0.39102018  0.15377185  1
  Zr  Zr105  1  0.50437864  0.88222711  0.15600653  1
  Zr  Zr106  1  0.00361851  0.88180729  0.35372076  1
  Zr  Zr107  1  0.50344105  0.13753992  0.25519034  1
  Zr  Zr108  1  0.50316065  0.63755794  0.25559156  1
  Zr  Zr109  1  0.01227635  0.39076271  0.35599433  1
  Zr  Zr110  1  0.00347740  0.13770177  0.25453984  1
  Zr  Zr111  1  0.00345715  0.63771448  0.25427103  1
  Zr  Zr112  1  0.51573188  0.89741629  0.35514535  1
  Zr  Zr113  1  0.50423096  0.39158379  0.35568748  1
  Zr  Zr114  1  0.51199542  0.64048293  0.45736486  1
  Zr  Zr115  1  0.98392251  0.61848283  0.45968874  1
  O  O116  1  0.82446909  0.83340790  0.13122647  1
  O  O117  1  0.21440469  0.95772144  0.17273724  1
  O  O118  1  0.61953407  0.23478981  0.09491712  1
  O  O119  1  0.69200713  0.74672387  0.07187583  1
  O  O120  1  0.28290174  0.47603958  0.03755434  1
  O  O121  1  0.09815049  0.40378147  0.19528155  1
  O  O122  1  0.92194125  0.36711538  0.11162585  1
  O  O123  1  0.68513808  0.31485790  0.02497252  1
  O  O124  1  0.32285397  0.00993266  0.07928396  1
  O  O125  1  0.88274763  0.77575320  0.18783900  1
  O  O126  1  0.13398374  0.01623278  0.11825035  1
  O  O127  1  0.83453426  0.36755873  0.17945048  1
  O  O128  1  0.18749886  0.43845697  0.13140576  1
  O  O129  1  0.61563863  0.64479582  0.01541996  1
  O  O130  1  0.38293280  0.62794393  0.08756741  1
  O  O131  1  0.41738468  0.68476516  0.16061879  1
  O  O132  1  0.60202248  0.08361415  0.15199920  1
  O  O133  1  0.53212535  0.55165941  0.13440222  1
  O  O134  1  0.49248369  0.22890739  0.17288613  1
  O  O135  1  0.99787447  0.80115640  0.06812835  1
  O  O136  1  0.03085938  0.49858276  0.03602266  1
  O  O137  1  0.10066060  0.59534337  0.15788382  1
  O  O138  1  0.92447517  0.20066984  0.15337047  1
  O  O139  1  0.50433331  0.45732225  0.06310440  1
  O  O140  1  0.44296004  0.74585433  0.02967284  1
  O  O141  1  0.60228541  0.01797316  0.06436079  1
  O  O142  1  0.00095982  0.74002995  0.13446073  1
  O  O143  1  0.03624280  0.05816026  0.17297369  1
  O  O144  1  0.13901328  0.65608916  0.08553474  1
  O  O145  1  0.89128518  0.64575934  0.01500160  1
  O  O146  1  0.19731802  0.28852611  0.08346682  1
  O  O147  1  0.77662396  0.92844326  0.01318580  1
  O  O148  1  0.39955773  0.27672737  0.11760558  1
  O  O149  1  0.62911029  0.50336356  0.19078804  1
  O  O150  1  0.33858263  0.85952804  0.13013613  1
  O  O151  1  0.69105869  0.92375872  0.17856751  1
  O  O152  1  0.80711960  0.51517813  0.07102901  1
  O  O153  1  0.19336217  0.79010188  0.02658635  1
  O  O154  1  0.89741833  0.05815393  0.10311100  1
  O  O155  1  0.71940898  0.46746571  0.13617350  1
  O  O156  1  0.31447588  0.33107101  0.17249939  1
  O  O157  1  0.41411759  0.87422335  0.19621913  1
  O  O158  1  0.58720563  0.87935680  0.11667221  1
  O  O159  1  0.81459434  0.33101697  0.33711620  1
  O  O160  1  0.21931379  0.46794824  0.37360170  1
  O  O161  1  0.41372046  0.55667461  0.21531595  1
  O  O162  1  0.59580589  0.71835151  0.29571909  1
  O  O163  1  0.70238912  0.27363958  0.27465634  1
  O  O164  1  0.30199488  0.00505174  0.23640685  1
  O  O165  1  0.08738958  0.87929860  0.39300009  1
  O  O166  1  0.91288764  0.87351368  0.31361658  1
  O  O167  1  0.67623624  0.78040617  0.23041985  1
  O  O168  1  0.32130906  0.49527821  0.27928315  1
  O  O169  1  0.89943190  0.27665579  0.39217365  1
  O  O170  1  0.12911495  0.50319375  0.31898305  1
  O  O171  1  0.83756908  0.85900896  0.37962366  1
  O  O172  1  0.19028749  0.92358846  0.33117013  1
  O  O173  1  0.62743672  0.14355602  0.22061617  1
  O  O174  1  0.37967722  0.12767389  0.29131609  1
  O  O175  1  0.42264061  0.19940811  0.35646018  1
  O  O176  1  0.60042806  0.59451796  0.35186809  1
  O  O177  1  0.53599797  0.05818395  0.33681472  1
  O  O178  1  0.50131405  0.74004118  0.37513077  1
  O  O179  1  0.09027274  0.52716570  0.25021750  1
  O  O180  1  0.90982137  0.74367471  0.25776717  1
  O  O181  1  0.98270254  0.28158065  0.27220020  1
  O  O182  1  0.02078716  0.99335802  0.23616004  1
  O  O183  1  0.10092586  0.08307184  0.35770588  1
  O  O184  1  0.91701550  0.68439045  0.34914185  1
  O  O185  1  0.52078269  0.99324383  0.27359750  1
  O  O186  1  0.48322271  0.28200621  0.23753703  1
  O  O187  1  0.40939415  0.74308662  0.25210565  1
  O  O188  1  0.59078269  0.52741670  0.25969484  1
  O  O189  1  0.99190941  0.22863633  0.33676655  1
  O  O190  1  0.03164555  0.55130160  0.37529302  1
  O  O191  1  0.12722533  0.14370938  0.28923932  1
  O  O192  1  0.88001754  0.12788528  0.21841153  1
  O  O193  1  0.17612295  0.78090185  0.27947645  1
  O  O194  1  0.82182314  0.49627426  0.23048338  1
  O  O195  1  0.38250690  0.77560906  0.32196353  1
  O  O196  1  0.63411954  0.01594377  0.39150562  1
  O  O197  1  0.33396201  0.36700573  0.33040673  1
  O  O198  1  0.68686521  0.43723996  0.37832109  1
  O  O199  1  0.80216479  0.00450100  0.27327271  1
  O  O200  1  0.20240073  0.27342403  0.23499620  1
  O  O201  1  0.09665996  0.71843938  0.21423159  1
  O  O202  1  0.91307792  0.55643206  0.29455134  1
  O  O203  1  0.71410249  0.95781523  0.33684273  1
  O  O204  1  0.32416378  0.83300976  0.37849777  1
  O  O205  1  0.42141663  0.36609405  0.39826512  1
  O  O206  1  0.59709373  0.40282903  0.31458267  1
  O  O207  1  0.39787945  0.05787794  0.40678367  1
  O  O208  1  0.69314840  0.79000113  0.48314178  1
  O  O209  1  0.30734882  0.51515055  0.43881256  1
  O  O210  1  0.69768625  0.28912005  0.42640851  1
  O  O211  1  0.27644468  0.92920689  0.49636819  1
  O  O212  1  0.63920030  0.65623336  0.42425208  1
  O  O213  1  0.39152776  0.64570881  0.49478771  1
  O  O214  1  0.10186716  0.01797550  0.44524998  1
  O  O215  1  0.94282430  0.74552607  0.47991178  1
  O  O216  1  0.00486479  0.45732785  0.44658732  1
  O  O217  1  0.53069842  0.49820108  0.47377703  1
  O  O218  1  0.49783040  0.80124768  0.44154519  1
  O  O219  1  0.11610322  0.64527118  0.49430917  1
  O  O220  1  0.88296531  0.62745745  0.42209303  1
  O  O221  1  0.18430734  0.31382523  0.48451663  1
  O  O222  1  0.82286196  0.01090258  0.43063123  1
  O  O223  1  0.78356763  0.47610079  0.47225180  1
  O  O224  1  0.19223059  0.74688747  0.43785212  1
  O  O225  1  0.11916483  0.23450791  0.41472183  1
