# generated using pymatgen
data_Li37La15Zr10O61
_symmetry_space_group_name_H-M   'P 1'
_cell_length_a   11.27162600
_cell_length_b   12.64834664
_cell_length_c   46.65146700
_cell_angle_alpha   90.00000000
_cell_angle_beta   90.00000000
_cell_angle_gamma   124.12984495
_symmetry_Int_Tables_number   1
_chemical_formula_structural   Li37La15Zr10O61
_chemical_formula_sum   'Li74 La30 Zr20 O122'
_cell_volume   5505.46958166
_cell_formula_units_Z   2
loop_
 _symmetry_equiv_pos_site_id
 _symmetry_equiv_pos_as_xyz
  1  'x, y, z'
loop_
 _atom_site_type_symbol
 _atom_site_label
 _atom_site_symmetry_multiplicity
 _atom_site_fract_x
 _atom_site_fract_y
 _atom_site_fract_z
 _atom_site_occupancy
  Li  Li0  1  0.82055179  0.38830919  0.06856462  1
  Li  Li1  1  0.17033318  0.93672782  0.06523508  1
  Li  Li2  1  0.08587350  0.39638351  0.03217078  1
  Li  Li3  1  0.99272271  0.96291375  0.09670681  1
  Li  Li4  1  0.66474906  0.29402029  0.16135516  1
  Li  Li5  1  0.33305218  0.51880410  0.16070246  1
  Li  Li6  1  0.48844389  0.09050398  0.19512776  1
  Li  Li7  1  0.49493589  0.70630778  0.12696719  1
  Li  Li8  1  0.24312122  0.67187053  0.14004171  1
  Li  Li9  1  0.74795342  0.16158975  0.18271104  1
  Li  Li10  1  0.39931628  0.46296200  0.11042976  1
  Li  Li11  1  0.63929486  0.84327533  0.01718403  1
  Li  Li12  1  0.24850750  0.16494156  0.08328283  1
  Li  Li13  1  0.76417137  0.20286816  0.04017950  1
  Li  Li14  1  0.10027770  0.81332172  0.11332994  1
  Li  Li15  1  0.86585553  0.46660276  0.02033822  1
  Li  Li16  1  0.98308527  0.58758217  0.12817698  1
  Li  Li17  1  0.00080218  0.20896688  0.19565183  1
  Li  Li18  1  0.31857991  0.37595801  0.06055998  1
  Li  Li19  1  0.68099279  0.94463693  0.06325164  1
  Li  Li20  1  0.51365898  0.35185053  0.09413229  1
  Li  Li21  1  0.50768624  0.96562767  0.03079333  1
  Li  Li22  1  0.16634957  0.79986379  0.16481048  1
  Li  Li23  1  0.83182619  0.01540430  0.16207850  1
  Li  Li24  1  0.74934816  0.40515766  0.11406467  1
  Li  Li25  1  0.25991538  0.89168767  0.01696357  1
  Li  Li26  1  0.30288238  0.42191706  0.01086548  1
  Li  Li27  1  0.74372291  0.90064846  0.11155489  1
  Li  Li28  1  0.82969019  0.87935981  0.26438412  1
  Li  Li29  1  0.17039355  0.43067895  0.26000848  1
  Li  Li30  1  0.00698761  0.85129124  0.22887721  1
  Li  Li31  1  0.99336756  0.45944187  0.29554827  1
  Li  Li32  1  0.66683422  0.79152740  0.36343746  1
  Li  Li33  1  0.33657652  0.01773720  0.36287225  1
  Li  Li34  1  0.50516251  0.60392057  0.39721006  1
  Li  Li35  1  0.51100495  0.21916786  0.32912909  1
  Li  Li36  1  0.25207771  0.14878252  0.34182520  1
  Li  Li37  1  0.75749262  0.63886751  0.38446767  1
  Li  Li38  1  0.39553373  0.98956031  0.31213035  1
  Li  Li39  1  0.60510733  0.32003869  0.21234943  1
  Li  Li40  1  0.25013618  0.64548146  0.28349341  1
  Li  Li41  1  0.74992699  0.66621390  0.24029436  1
  Li  Li42  1  0.10879693  0.34644974  0.31168916  1
  Li  Li43  1  0.89120932  0.96486042  0.21273786  1
  Li  Li44  1  0.99995582  0.10230705  0.32863355  1
  Li  Li45  1  0.01613460  0.72237182  0.39579876  1
  Li  Li46  1  0.33305033  0.87664803  0.26204284  1
  Li  Li47  1  0.66682299  0.43575911  0.26219985  1
  Li  Li48  1  0.50271292  0.85251194  0.29536261  1
  Li  Li49  1  0.49772921  0.45839144  0.22867359  1
  Li  Li50  1  0.17005828  0.29722364  0.36237582  1
  Li  Li51  1  0.83471639  0.51171163  0.35954399  1
  Li  Li52  1  0.74893217  0.90524940  0.31306359  1
  Li  Li53  1  0.25202832  0.40668306  0.21117978  1
  Li  Li54  1  0.24979015  0.90574187  0.21257642  1
  Li  Li55  1  0.75025653  0.40481926  0.31173673  1
  Li  Li56  1  0.82973330  0.37349079  0.45869814  1
  Li  Li57  1  0.17983116  0.92273460  0.45546466  1
  Li  Li58  1  0.00752352  0.34758555  0.42764855  1
  Li  Li59  1  0.91217049  0.91176603  0.49237149  1
  Li  Li60  1  0.36050909  0.46639731  0.50698043  1
  Li  Li61  1  0.60100808  0.84860056  0.41396441  1
  Li  Li62  1  0.23476740  0.10643768  0.48399170  1
  Li  Li63  1  0.75034205  0.14497878  0.44088748  1
  Li  Li64  1  0.13315574  0.84311844  0.50366613  1
  Li  Li65  1  0.89928059  0.49579991  0.41094098  1
  Li  Li66  1  0.31748218  0.36579011  0.46069902  1
  Li  Li67  1  0.68125436  0.93461740  0.46376606  1
  Li  Li68  1  0.49239862  0.34379442  0.49327268  1
  Li  Li69  1  0.48532569  0.95842513  0.43025619  1
  Li  Li70  1  0.74136823  0.42046808  0.50726659  1
  Li  Li71  1  0.25114345  0.90513763  0.40998240  1
  Li  Li72  1  0.25581456  0.40891684  0.41263786  1
  Li  Li73  1  0.69481900  0.88816160  0.51373505  1
  La  La74  1  0.12771860  0.47021128  0.08859473  1
  La  La75  1  0.85977538  0.82724497  0.04222820  1
  La  La76  1  0.37090039  0.09097165  0.13557171  1
  La  La77  1  0.62505410  0.71921904  0.18702557  1
  La  La78  1  0.27324732  0.17336005  0.01534900  1
  La  La79  1  0.75314196  0.15428059  0.11087885  1
  La  La80  1  0.74815548  0.65403952  0.11224737  1
  La  La81  1  0.61783149  0.47558186  0.03457434  1
  La  La82  1  0.36774102  0.84090141  0.08613043  1
  La  La83  1  0.86833693  0.58951147  0.18804075  1
  La  La84  1  0.12792071  0.21932924  0.13613614  1
  La  La85  1  0.12769002  0.96993079  0.28771485  1
  La  La86  1  0.87284073  0.34103269  0.23660744  1
  La  La87  1  0.37538056  0.59200205  0.33709708  1
  La  La88  1  0.62936167  0.21985728  0.38862272  1
  La  La89  1  0.24873306  0.65499484  0.21187173  1
  La  La90  1  0.75150175  0.65588496  0.31241161  1
  La  La91  1  0.75163579  0.15590397  0.31224379  1
  La  La92  1  0.24873866  0.15500344  0.21201473  1
  La  La93  1  0.62767177  0.96969938  0.23596052  1
  La  La94  1  0.37232026  0.34103601  0.28829675  1
  La  La95  1  0.87242003  0.09145841  0.38811228  1
  La  La96  1  0.13221192  0.72137821  0.33619402  1
  La  La97  1  0.14018422  0.48320764  0.48204840  1
  La  La98  1  0.87242514  0.84064443  0.43564713  1
  La  La99  1  0.24692108  0.15616911  0.41337937  1
  La  La100  1  0.72652480  0.13763389  0.50889190  1
  La  La101  1  0.25226622  0.65636882  0.41199527  1
  La  La102  1  0.63215398  0.46974389  0.43811186  1
  La  La103  1  0.38183720  0.83503856  0.48969474  1
  Zr  Zr104  1  0.99983527  0.40418989  0.16209504  1
  Zr  Zr105  1  0.48695641  0.65546467  0.05871275  1
  Zr  Zr106  1  0.51066614  0.16131388  0.06013748  1
  Zr  Zr107  1  0.99875390  0.90574707  0.16224480  1
  Zr  Zr108  1  0.00080262  0.65274453  0.06180821  1
  Zr  Zr109  1  0.99679256  0.15047887  0.05763333  1
  Zr  Zr110  1  0.49944248  0.40465430  0.16228981  1
  Zr  Zr111  1  0.49865607  0.90500677  0.16109129  1
  Zr  Zr112  1  0.00037987  0.90654608  0.36218515  1
  Zr  Zr113  1  0.50028949  0.15558270  0.26218794  1
  Zr  Zr114  1  0.50020623  0.65545512  0.26211709  1
  Zr  Zr115  1  0.00149048  0.40503537  0.36208107  1
  Zr  Zr116  1  0.00004604  0.15531635  0.26213958  1
  Zr  Zr117  1  0.99984684  0.65527857  0.26213726  1
  Zr  Zr118  1  0.50103583  0.90615733  0.36200650  1
  Zr  Zr119  1  0.50180582  0.40586561  0.36306993  1
  Zr  Zr120  1  0.51304584  0.65495884  0.46562210  1
  Zr  Zr121  1  0.48903400  0.14929291  0.46407482  1
  Zr  Zr122  1  0.99938716  0.65782104  0.46220361  1
  Zr  Zr123  1  0.00249014  0.15948881  0.46672059  1
  O  O124  1  0.79960819  0.84354170  0.14375657  1
  O  O125  1  0.20070497  0.97102401  0.18065369  1
  O  O126  1  0.39839444  0.05780835  0.02218322  1
  O  O127  1  0.60504551  0.24388441  0.09982128  1
  O  O128  1  0.69835848  0.78271641  0.08052460  1
  O  O129  1  0.29257764  0.50639427  0.04394503  1
  O  O130  1  0.90832129  0.39194929  0.12106724  1
  O  O131  1  0.69068977  0.31436885  0.03670852  1
  O  O132  1  0.33892554  0.02339066  0.08707523  1
  O  O133  1  0.87636298  0.79335788  0.19809599  1
  O  O134  1  0.12320815  0.02436381  0.12682197  1
  O  O135  1  0.82020280  0.36333850  0.18644679  1
  O  O136  1  0.17405037  0.43546168  0.13706266  1
  O  O137  1  0.62629761  0.68430006  0.02475058  1
  O  O138  1  0.37462777  0.65255784  0.09513534  1
  O  O139  1  0.40712398  0.70609000  0.16467001  1
  O  O140  1  0.58688407  0.10341662  0.15711144  1
  O  O141  1  0.51857182  0.56710911  0.14283073  1
  O  O142  1  0.47743480  0.24055508  0.18010473  1
  O  O143  1  0.09615369  0.04277660  0.05493312  1
  O  O144  1  0.92482270  0.26720300  0.06289787  1
  O  O145  1  0.97218750  0.79837942  0.08207440  1
  O  O146  1  0.00832671  0.50522610  0.04666496  1
  O  O147  1  0.08503624  0.60078344  0.16640208  1
  O  O148  1  0.90796070  0.20365033  0.15721039  1
  O  O149  1  0.51842990  0.51139586  0.07681654  1
  O  O150  1  0.49731092  0.81701217  0.04344392  1
  O  O151  1  0.41048144  0.26195975  0.05716236  1
  O  O152  1  0.61073743  0.06387682  0.06293319  1
  O  O153  1  0.97621176  0.73997977  0.14529464  1
  O  O154  1  0.01896756  0.06811695  0.18084339  1
  O  O155  1  0.12221434  0.66361625  0.09895179  1
  O  O156  1  0.86952584  0.63173511  0.02689185  1
  O  O157  1  0.17215254  0.28258986  0.08678486  1
  O  O158  1  0.82353809  0.99343862  0.03411360  1
  O  O159  1  0.38440532  0.29566431  0.12543124  1
  O  O160  1  0.62088145  0.52454687  0.19720050  1
  O  O161  1  0.31652994  0.86614175  0.13740464  1
  O  O162  1  0.67279411  0.93820537  0.18631567  1
  O  O163  1  0.80184953  0.52612354  0.08415298  1
  O  O164  1  0.19262187  0.80703579  0.04864069  1
  O  O165  1  0.13178557  0.25740266  0.02308267  1
  O  O166  1  0.89606158  0.06486728  0.09778323  1
  O  O167  1  0.70237446  0.46805999  0.14541704  1
  O  O168  1  0.29719196  0.33701958  0.17998465  1
  O  O169  1  0.42905429  0.37251835  0.00306471  1
  O  O170  1  0.59035114  0.91975485  0.12049675  1
  O  O171  1  0.79983057  0.33993324  0.34364470  1
  O  O172  1  0.20086390  0.46725744  0.38055449  1
  O  O173  1  0.40602574  0.57627217  0.22178525  1
  O  O174  1  0.59456851  0.73499099  0.30248005  1
  O  O175  1  0.70246372  0.28989935  0.28049654  1
  O  O176  1  0.29808721  0.02079345  0.24383451  1
  O  O177  1  0.09230635  0.41634729  0.20203641  1
  O  O178  1  0.90815302  0.89463698  0.32221633  1
  O  O179  1  0.67858517  0.79738056  0.23754804  1
  O  O180  1  0.32188669  0.51370699  0.28669648  1
  O  O181  1  0.87711587  0.28668432  0.39749759  1
  O  O182  1  0.12415750  0.51757633  0.32622016  1
  O  O183  1  0.82609955  0.87542788  0.38713635  1
  O  O184  1  0.18028147  0.94735840  0.33787648  1
  O  O185  1  0.61951712  0.16337184  0.22605126  1
  O  O186  1  0.38056423  0.14736026  0.29821878  1
  O  O187  1  0.41338408  0.20731573  0.36713481  1
  O  O188  1  0.59353465  0.60467591  0.35952500  1
  O  O189  1  0.52313565  0.07051840  0.34419092  1
  O  O190  1  0.48191272  0.74369188  0.38135240  1
  O  O191  1  0.09067622  0.54709122  0.25768450  1
  O  O192  1  0.90927513  0.76347470  0.26652784  1
  O  O193  1  0.98019293  0.29939395  0.27983346  1
  O  O194  1  0.02010983  0.01141624  0.24450627  1
  O  O195  1  0.09254717  0.10725492  0.36714235  1
  O  O196  1  0.91513767  0.70992279  0.35785933  1
  O  O197  1  0.52008530  0.01197481  0.28012698  1
  O  O198  1  0.48035376  0.29904210  0.24417409  1
  O  O199  1  0.41030174  0.76412824  0.25819284  1
  O  O200  1  0.59018604  0.54709783  0.26599771  1
  O  O201  1  0.98176977  0.24291490  0.34354108  1
  O  O202  1  0.02394138  0.57073911  0.37898690  1
  O  O203  1  0.12505629  0.16336336  0.29726009  1
  O  O204  1  0.87507424  0.14728765  0.22696484  1
  O  O205  1  0.17633957  0.79869911  0.28685281  1
  O  O206  1  0.82381882  0.51196575  0.23739002  1
  O  O207  1  0.37984299  0.78716547  0.32697439  1
  O  O208  1  0.61564392  0.01490332  0.39894733  1
  O  O209  1  0.32772320  0.37314959  0.33785992  1
  O  O210  1  0.68359367  0.44455643  0.38679364  1
  O  O211  1  0.79928887  0.01974460  0.28097345  1
  O  O212  1  0.20064358  0.29117522  0.24329930  1
  O  O213  1  0.09186557  0.73704074  0.22190205  1
  O  O214  1  0.90833872  0.57371798  0.30241217  1
  O  O215  1  0.70341372  0.97418891  0.34432362  1
  O  O216  1  0.29806475  0.84249499  0.37876415  1
  O  O217  1  0.40513658  0.89263339  0.20158662  1
  O  O218  1  0.59464770  0.41782663  0.32257218  1
  O  O219  1  0.39471573  0.06646858  0.42439695  1
  O  O220  1  0.60150004  0.25388051  0.50193274  1
  O  O221  1  0.70685189  0.80382294  0.48059671  1
  O  O222  1  0.30164040  0.52741629  0.44379792  1
  O  O223  1  0.09182422  0.91836121  0.40317745  1
  O  O224  1  0.66059084  0.28707483  0.43707747  1
  O  O225  1  0.30886352  0.99598700  0.48746549  1
  O  O226  1  0.62544289  0.65807545  0.42915481  1
  O  O227  1  0.37352778  0.62594885  0.49959157  1
  O  O228  1  0.07442025  0.04285553  0.46133285  1
  O  O229  1  0.90337449  0.26746323  0.46925892  1
  O  O230  1  0.99106893  0.80499560  0.47741067  1
  O  O231  1  0.02802344  0.51206890  0.44208077  1
  O  O232  1  0.50244003  0.49303581  0.48069383  1
  O  O233  1  0.48173843  0.79913278  0.44751336  1
  O  O234  1  0.38833979  0.24603101  0.46119236  1
  O  O235  1  0.58915101  0.04864672  0.46712445  1
  O  O236  1  0.13021231  0.67914111  0.49728792  1
  O  O237  1  0.87765845  0.64699815  0.42515807  1
  O  O238  1  0.17585672  0.31691222  0.49015935  1
  O  O239  1  0.82751629  0.02764260  0.43747838  1
  O  O240  1  0.80786515  0.50339129  0.47537513  1
  O  O241  1  0.19884052  0.78461364  0.44003355  1
  O  O242  1  0.10402870  0.24568456  0.42661532  1
  O  O243  1  0.86717041  0.05298602  0.50124988  1
  O  O244  1  0.40943285  0.39065000  0.40363704  1
  O  O245  1  0.57003272  0.93873272  0.52133721  1
