# generated using pymatgen
data_Li21La9Zr5O34
_symmetry_space_group_name_H-M   'P 1'
_cell_length_a   13.20454200
_cell_length_b   28.63531300
_cell_length_c   20.78762600
_cell_angle_alpha   90.00000000
_cell_angle_beta   90.00000000
_cell_angle_gamma   89.99998399
_symmetry_Int_Tables_number   1
_chemical_formula_structural   Li21La9Zr5O34
_chemical_formula_sum   'Li84 La36 Zr20 O136'
_cell_volume   7860.13800861
_cell_formula_units_Z   4
loop_
 _symmetry_equiv_pos_site_id
 _symmetry_equiv_pos_as_xyz
  1  'x, y, z'
loop_
 _atom_site_type_symbol
 _atom_site_label
 _atom_site_symmetry_multiplicity
 _atom_site_fract_x
 _atom_site_fract_y
 _atom_site_fract_z
 _atom_site_occupancy
  Li  Li0  1  0.41395996  0.85445552  0.14770132  1
  Li  Li1  1  0.12696826  0.32057361  0.10632944  1
  Li  Li2  1  0.88868236  0.87438545  0.14428598  1
  Li  Li3  1  0.96223629  0.92821990  0.05130161  1
  Li  Li4  1  0.11286421  0.73161323  0.12020515  1
  Li  Li5  1  0.90213886  0.25297534  0.12526413  1
  Li  Li6  1  0.27535140  0.15645529  0.12980272  1
  Li  Li7  1  0.73357673  0.64578844  0.12459669  1
  Li  Li8  1  0.34662876  0.78283664  0.11057082  1
  Li  Li9  1  0.65636865  0.30646826  0.13505512  1
  Li  Li10  1  0.90219339  0.68668411  0.15359251  1
  Li  Li11  1  0.04573473  0.27960754  0.18856510  1
  Li  Li12  1  0.09062708  0.19611745  0.15132870  1
  Li  Li13  1  0.94584028  0.78963779  0.17569679  1
  Li  Li14  1  0.77828994  0.96187669  0.10920555  1
  Li  Li15  1  0.99283813  0.48926522  0.12710054  1
  Li  Li16  1  0.09113436  0.41937631  0.18747597  1
  Li  Li17  1  0.86793308  0.04002032  0.07088392  1
  Li  Li18  1  0.66051479  0.40022731  0.20422736  1
  Li  Li19  1  0.34184257  0.92504502  0.21050628  1
  Li  Li20  1  0.25256579  0.55225728  0.19573256  1
  Li  Li21  1  0.75681216  0.05774376  0.18030605  1
  Li  Li22  1  0.92320307  0.45921567  0.21768953  1
  Li  Li23  1  0.97742830  0.99031894  0.14907130  1
  Li  Li24  1  0.06014803  0.69838888  0.22053737  1
  Li  Li25  1  0.84269364  0.84784623  0.25352550  1
  Li  Li26  1  0.16355122  0.34858156  0.23773790  1
  Li  Li27  1  0.43498134  0.80478420  0.23253001  1
  Li  Li28  1  0.93742074  0.20486623  0.22710046  1
  Li  Li29  1  0.68291528  0.66142183  0.24559844  1
  Li  Li30  1  0.33828382  0.16354146  0.24771928  1
  Li  Li31  1  0.57773631  0.31936201  0.24993269  1
  Li  Li32  1  0.62490234  0.05335536  0.25953617  1
  Li  Li33  1  0.39838287  0.54801843  0.26963646  1
  Li  Li34  1  0.74731579  0.46127432  0.27265387  1
  Li  Li35  1  0.22905454  0.96581228  0.26082510  1
  Li  Li36  1  0.83254600  0.12156231  0.27240518  1
  Li  Li37  1  0.16332504  0.62171291  0.28293983  1
  Li  Li38  1  0.40380031  0.00000377  0.27972626  1
  Li  Li39  1  0.58518987  0.59344215  0.30741227  1
  Li  Li40  1  0.58762082  0.50587410  0.30588220  1
  Li  Li41  1  0.43886938  0.08446236  0.29843597  1
  Li  Li42  1  0.43759071  0.23447754  0.31665667  1
  Li  Li43  1  0.58765637  0.81348200  0.30753740  1
  Li  Li44  1  0.58561616  0.72653154  0.30664679  1
  Li  Li45  1  0.40290329  0.31950956  0.33404126  1
  Li  Li46  1  0.17258068  0.70330350  0.34120937  1
  Li  Li47  1  0.83376471  0.19906286  0.34160261  1
  Li  Li48  1  0.74905589  0.85875044  0.34178245  1
  Li  Li49  1  0.22842368  0.35397355  0.35500929  1
  Li  Li50  1  0.40136910  0.77176965  0.34441445  1
  Li  Li51  1  0.62433599  0.26652192  0.35434633  1
  Li  Li52  1  0.57872433  0.99994843  0.36473729  1
  Li  Li53  1  0.33888431  0.15591559  0.36643374  1
  Li  Li54  1  0.68164799  0.65744420  0.36920062  1
  Li  Li55  1  0.93715076  0.11553690  0.38743692  1
  Li  Li56  1  0.43495732  0.51568307  0.38130613  1
  Li  Li57  1  0.16113125  0.96957664  0.38048859  1
  Li  Li58  1  0.84164413  0.47073823  0.36136839  1
  Li  Li59  1  0.06060506  0.61401777  0.40356238  1
  Li  Li60  1  0.97732270  0.32966192  0.46496467  1
  Li  Li61  1  0.92377403  0.86213116  0.39545296  1
  Li  Li62  1  0.25634076  0.76755429  0.41985895  1
  Li  Li63  1  0.75638038  0.26189509  0.43382129  1
  Li  Li64  1  0.34170586  0.39451671  0.40457827  1
  Li  Li65  1  0.66244910  0.91919178  0.41130091  1
  Li  Li66  1  0.86824926  0.27948515  0.54335338  1
  Li  Li67  1  0.09074774  0.89427806  0.43285158  1
  Li  Li68  1  0.95910480  0.83273448  0.50280656  1
  Li  Li69  1  0.77839155  0.35711836  0.50419017  1
  Li  Li70  1  0.94717356  0.53053546  0.43588231  1
  Li  Li71  1  0.09066078  0.12375465  0.46333093  1
  Li  Li72  1  0.04609626  0.04112529  0.42586006  1
  Li  Li73  1  0.90514772  0.62904743  0.46094037  1
  Li  Li74  1  0.65632466  0.01359865  0.47942665  1
  Li  Li75  1  0.34706845  0.53623761  0.50530496  1
  Li  Li76  1  0.27597906  0.16306087  0.48440200  1
  Li  Li77  1  0.73895244  0.67099106  0.48127565  1
  Li  Li78  1  0.90269057  0.06765939  0.48933953  1
  Li  Li79  1  0.11602073  0.58804812  0.50231602  1
  Li  Li80  1  0.95863437  0.39209953  0.56113694  1
  Li  Li81  1  0.88222743  0.44830789  0.47213152  1
  Li  Li82  1  0.12797136  0.00028077  0.50849446  1
  Li  Li83  1  0.41252477  0.46542694  0.46667518  1
  La  La84  1  0.75379973  0.16601490  0.13828223  1
  La  La85  1  0.25831578  0.65075197  0.13913566  1
  La  La86  1  0.51660268  0.98705812  0.16496180  1
  La  La87  1  0.50572556  0.48242084  0.18285968  1
  La  La88  1  0.90279313  0.35832541  0.16957183  1
  La  La89  1  0.12283276  0.85806588  0.16087840  1
  La  La90  1  0.64577575  0.84875924  0.16869450  1
  La  La91  1  0.37353614  0.35325734  0.19124634  1
  La  La92  1  0.49009249  0.23493801  0.17050847  1
  La  La93  1  0.53077998  0.72642347  0.15967626  1
  La  La94  1  0.24320726  0.05973383  0.19163618  1
  La  La95  1  0.76102681  0.55338409  0.19931354  1
  La  La96  1  0.25685115  0.45709428  0.27498837  1
  La  La97  1  0.75807654  0.95597795  0.25226228  1
  La  La98  1  0.99906733  0.28796824  0.32694466  1
  La  La99  1  0.01955284  0.78739733  0.30600306  1
  La  La100  1  0.37686005  0.65905815  0.30779105  1
  La  La101  1  0.63250481  0.16008524  0.30727872  1
  La  La102  1  0.11973528  0.15982122  0.30706425  1
  La  La103  1  0.88872684  0.66281269  0.31822687  1
  La  La104  1  0.01325305  0.53281522  0.30103691  1
  La  La105  1  0.99860030  0.03205833  0.28732126  1
  La  La106  1  0.75751712  0.36356659  0.36153878  1
  La  La107  1  0.25824252  0.86255079  0.34084816  1
  La  La108  1  0.76101420  0.76672618  0.41573852  1
  La  La109  1  0.24358379  0.25980535  0.42302504  1
  La  La110  1  0.53109425  0.59241276  0.45591319  1
  La  La111  1  0.49015605  0.08468652  0.44405840  1
  La  La112  1  0.90289666  0.96271635  0.44458235  1
  La  La113  1  0.11966850  0.46246905  0.45391312  1
  La  La114  1  0.64323146  0.46972899  0.44579432  1
  La  La115  1  0.37369968  0.96634962  0.42321589  1
  La  La116  1  0.50754798  0.83780527  0.43193232  1
  La  La117  1  0.51614729  0.33227943  0.44929049  1
  La  La118  1  0.26439463  0.66820117  0.47760302  1
  La  La119  1  0.75360038  0.15390160  0.47631543  1
  Zr  Zr120  1  0.50765903  0.11722684  0.16931315  1
  Zr  Zr121  1  0.00979372  0.60463902  0.16535287  1
  Zr  Zr122  1  0.99540243  0.11258387  0.15932415  1
  Zr  Zr123  1  0.50662296  0.61064022  0.17666057  1
  Zr  Zr124  1  0.75868682  0.26491300  0.23971710  1
  Zr  Zr125  1  0.24456129  0.25500624  0.24227081  1
  Zr  Zr126  1  0.76769067  0.75271340  0.23554665  1
  Zr  Zr127  1  0.24919833  0.75676227  0.22297841  1
  Zr  Zr128  1  0.00615430  0.40903667  0.32414643  1
  Zr  Zr129  1  0.50635503  0.90684473  0.29325128  1
  Zr  Zr130  1  0.50507661  0.41257008  0.32120106  1
  Zr  Zr131  1  0.00622020  0.91135122  0.29027930  1
  Zr  Zr132  1  0.24635969  0.56252093  0.39376754  1
  Zr  Zr133  1  0.76594000  0.56441472  0.37853057  1
  Zr  Zr134  1  0.24478570  0.06446275  0.37175172  1
  Zr  Zr135  1  0.75865930  0.05513474  0.37465904  1
  Zr  Zr136  1  0.51007830  0.70858857  0.43788248  1
  Zr  Zr137  1  0.99568835  0.20723726  0.45518377  1
  Zr  Zr138  1  0.01109319  0.71533160  0.45230336  1
  Zr  Zr139  1  0.50757845  0.20233533  0.44542621  1
  O  O140  1  0.51247825  0.31031709  0.14477544  1
  O  O141  1  0.48932311  0.80110910  0.12634469  1
  O  O142  1  0.64068353  0.59728155  0.13543269  1
  O  O143  1  0.36631933  0.10607758  0.13483162  1
  O  O144  1  0.96568921  0.42798795  0.14242904  1
  O  O145  1  0.00990315  0.87527740  0.09107161  1
  O  O146  1  0.05197757  0.67245553  0.13670975  1
  O  O147  1  0.25842010  0.73235529  0.12593817  1
  O  O148  1  0.74217129  0.24970749  0.14059406  1
  O  O149  1  0.15401368  0.58437217  0.14307277  1
  O  O150  1  0.94595506  0.18274410  0.14020323  1
  O  O151  1  0.85534215  0.09271929  0.12297196  1
  O  O152  1  0.80350275  0.80740504  0.17575699  1
  O  O153  1  0.21179404  0.30462138  0.17454653  1
  O  O154  1  0.31511419  0.20923439  0.17986593  1
  O  O155  1  0.71027513  0.70404320  0.17003926  1
  O  O156  1  0.68228403  0.00112972  0.15834379  1
  O  O157  1  0.34340756  0.50179923  0.19528221  1
  O  O158  1  0.23177685  0.40247567  0.19804480  1
  O  O159  1  0.76074989  0.90628241  0.16023735  1
  O  O160  1  0.86050068  0.62306064  0.15154706  1
  O  O161  1  0.94867962  0.53598518  0.18408633  1
  O  O162  1  0.14227442  0.13482209  0.15163987  1
  O  O163  1  0.68417821  0.47646164  0.19347578  1
  O  O164  1  0.32804979  0.98828421  0.19064282  1
  O  O165  1  0.05601589  0.04613236  0.17511982  1
  O  O166  1  0.09438848  0.77312979  0.19386648  1
  O  O167  1  0.91157465  0.27330931  0.22532498  1
  O  O168  1  0.35417546  0.60535575  0.21666092  1
  O  O169  1  0.66480308  0.11160469  0.20741574  1
  O  O170  1  0.48050317  0.90362148  0.18899649  1
  O  O171  1  0.51777659  0.40463306  0.21988969  1
  O  O172  1  0.29844538  0.82220715  0.18464373  1
  O  O173  1  0.71935830  0.33569574  0.21391585  1
  O  O174  1  0.48854674  0.05478401  0.22126794  1
  O  O175  1  0.54235785  0.55301852  0.23768234  1
  O  O176  1  0.47841039  0.15941070  0.24107672  1
  O  O177  1  0.91454653  0.72399149  0.23236800  1
  O  O178  1  0.61581951  0.77663380  0.23705731  1
  O  O179  1  0.02815108  0.35874132  0.25184025  1
  O  O180  1  0.53968227  0.65892092  0.24101311  1
  O  O181  1  0.09797867  0.22479589  0.23576400  1
  O  O182  1  0.39067077  0.28506899  0.25588846  1
  O  O183  1  0.97821076  0.85184576  0.22776106  1
  O  O184  1  0.06525086  0.46117774  0.25914736  1
  O  O185  1  0.94446258  0.96316902  0.23327318  1
  O  O186  1  0.21260980  0.68528349  0.24718342  1
  O  O187  1  0.79013257  0.19049618  0.25095487  1
  O  O188  1  0.02309594  0.61745023  0.26019683  1
  O  O189  1  0.97497873  0.11885106  0.25501286  1
  O  O190  1  0.15496962  0.90893530  0.24810569  1
  O  O191  1  0.85955700  0.42010709  0.28785295  1
  O  O192  1  0.39925205  0.74016372  0.24878739  1
  O  O193  1  0.60481566  0.24618872  0.26313871  1
  O  O194  1  0.56748114  0.97304922  0.27545935  1
  O  O195  1  0.78947316  0.03966986  0.27701777  1
  O  O196  1  0.19828847  0.54375063  0.30190353  1
  O  O197  1  0.65031439  0.87648803  0.27668500  1
  O  O198  1  0.45088243  0.47933365  0.30533347  1
  O  O199  1  0.35893129  0.38498907  0.31045758  1
  O  O200  1  0.27689890  0.11072634  0.29040227  1
  O  O201  1  0.73331737  0.61108932  0.29917629  1
  O  O202  1  0.81750145  0.52047587  0.30081638  1
  O  O203  1  0.18140702  0.02112767  0.29705185  1
  O  O204  1  0.18181086  0.29904392  0.31681793  1
  O  O205  1  0.82696753  0.79780550  0.31564668  1
  O  O206  1  0.72936166  0.70881087  0.31510565  1
  O  O207  1  0.27655908  0.20880009  0.32410390  1
  O  O208  1  0.35990216  0.93437252  0.30506508  1
  O  O209  1  0.45186767  0.83999826  0.30976083  1
  O  O210  1  0.64944102  0.44210827  0.33756480  1
  O  O211  1  0.20445572  0.77725148  0.31492970  1
  O  O212  1  0.78922734  0.27943517  0.33751635  1
  O  O213  1  0.56615492  0.34614527  0.33878075  1
  O  O214  1  0.60469320  0.07326841  0.35127762  1
  O  O215  1  0.39676697  0.57995205  0.36665964  1
  O  O216  1  0.85953023  0.89995446  0.32571147  1
  O  O217  1  0.15360522  0.41040784  0.36784523  1
  O  O218  1  0.97561928  0.20065736  0.35944761  1
  O  O219  1  0.03041226  0.70965617  0.35633516  1
  O  O220  1  0.78959057  0.12938197  0.36335074  1
  O  O221  1  0.20999985  0.63459623  0.37258621  1
  O  O222  1  0.94374338  0.35642700  0.38025768  1
  O  O223  1  0.06117419  0.85728975  0.35553744  1
  O  O224  1  0.97871465  0.46973221  0.38398078  1
  O  O225  1  0.39078690  0.03416141  0.35828284  1
  O  O226  1  0.09879343  0.09513523  0.37888017  1
  O  O227  1  0.53992869  0.65982995  0.37397649  1
  O  O228  1  0.02651281  0.96190700  0.36157146  1
  O  O229  1  0.61353052  0.54220149  0.37736467  1
  O  O230  1  0.91628151  0.59123855  0.38426553  1
  O  O231  1  0.47863064  0.16016695  0.37356882  1
  O  O232  1  0.54545961  0.76679041  0.37820468  1
  O  O233  1  0.48772772  0.26445459  0.39307733  1
  O  O234  1  0.72027367  0.98421931  0.40144432  1
  O  O235  1  0.29741225  0.49749159  0.43062934  1
  O  O236  1  0.51935013  0.91528784  0.39445892  1
  O  O237  1  0.48020467  0.41588246  0.42596660  1
  O  O238  1  0.66429918  0.20810301  0.40751295  1
  O  O239  1  0.35725790  0.71385057  0.39809356  1
  O  O240  1  0.91174081  0.04700704  0.38913234  1
  O  O241  1  0.09590093  0.54765643  0.42756573  1
  O  O242  1  0.05614320  0.27360427  0.43898150  1
  O  O243  1  0.32769927  0.33109998  0.42450387  1
  O  O244  1  0.68626680  0.84429434  0.42119709  1
  O  O245  1  0.14235551  0.18494743  0.46353663  1
  O  O246  1  0.93323126  0.77781618  0.46023355  1
  O  O247  1  0.86017254  0.68801794  0.43217549  1
  O  O248  1  0.75958967  0.41279229  0.45386612  1
  O  O249  1  0.22976674  0.91617674  0.41826364  1
  O  O250  1  0.34564180  0.81844304  0.42123439  1
  O  O251  1  0.68188231  0.31819439  0.45540171  1
  O  O252  1  0.70754797  0.61301309  0.44497332  1
  O  O253  1  0.31567305  0.11018865  0.43439239  1
  O  O254  1  0.21288894  0.01477039  0.43989652  1
  O  O255  1  0.80215507  0.51068613  0.43971248  1
  O  O256  1  0.85540912  0.22677358  0.49148622  1
  O  O257  1  0.94604934  0.13698401  0.47439348  1
  O  O258  1  0.15774390  0.73300164  0.46696308  1
  O  O259  1  0.74214236  0.07021220  0.47388548  1
  O  O260  1  0.26153369  0.58760152  0.49196463  1
  O  O261  1  0.04398074  0.64716746  0.48444098  1
  O  O262  1  0.00506474  0.44545324  0.52276947  1
  O  O263  1  0.95994680  0.89190448  0.47293445  1
  O  O264  1  0.36631585  0.21346206  0.47995249  1
  O  O265  1  0.64725275  0.71987607  0.47788540  1
  O  O266  1  0.48902687  0.51798375  0.48910056  1
  O  O267  1  0.51205399  0.00911486  0.46978650  1
  O  O268  1  0.99406326  0.30675929  0.11263978  1
  O  O269  1  0.90039221  0.98053997  0.07565215  1
  O  O270  1  0.57220197  0.16868209  0.11498947  1
  O  O271  1  0.44093590  0.65772839  0.11628086  1
  O  O272  1  0.44428168  0.66287751  0.49986938  1
  O  O273  1  0.57185048  0.15070956  0.49974455  1
  O  O274  1  0.89997999  0.33885086  0.53816814  1
  O  O275  1  0.99510291  0.01377827  0.50183794  1
