# generated using pymatgen
data_Li40La18Zr10O67
_symmetry_space_group_name_H-M   'P 1'
_cell_length_a   11.27162600
_cell_length_b   12.64834664
_cell_length_c   46.65146700
_cell_angle_alpha   90.00000000
_cell_angle_beta   90.00000000
_cell_angle_gamma   124.12984495
_symmetry_Int_Tables_number   1
_chemical_formula_structural   Li40La18Zr10O67
_chemical_formula_sum   'Li80 La36 Zr20 O134'
_cell_volume   5505.46958166
_cell_formula_units_Z   2
loop_
 _symmetry_equiv_pos_site_id
 _symmetry_equiv_pos_as_xyz
  1  'x, y, z'
loop_
 _atom_site_type_symbol
 _atom_site_label
 _atom_site_symmetry_multiplicity
 _atom_site_fract_x
 _atom_site_fract_y
 _atom_site_fract_z
 _atom_site_occupancy
  Li  Li0  1  0.82089673  0.46595427  0.10476412  1
  Li  Li1  1  0.15159320  0.02948558  0.10147190  1
  Li  Li2  1  0.91288032  0.44927253  0.06335510  1
  Li  Li3  1  0.99304092  0.05090435  0.13196841  1
  Li  Li4  1  0.66173080  0.38282397  0.19578714  1
  Li  Li5  1  0.32853820  0.60554990  0.19713303  1
  Li  Li6  1  0.46814176  0.63039554  0.03878467  1
  Li  Li7  1  0.48745452  0.79114791  0.16164210  1
  Li  Li8  1  0.24050609  0.75981084  0.17776781  1
  Li  Li9  1  0.88068265  0.68468564  0.02274503  1
  Li  Li10  1  0.38530271  0.55083776  0.14426804  1
  Li  Li11  1  0.62533975  0.96069023  0.03949735  1
  Li  Li12  1  0.26132880  0.27302768  0.12225003  1
  Li  Li13  1  0.75067250  0.23505660  0.08114547  1
  Li  Li14  1  0.10275488  0.90346206  0.14863630  1
  Li  Li15  1  0.92964268  0.54578190  0.01246511  1
  Li  Li16  1  0.98731070  0.68312872  0.16534289  1
  Li  Li17  1  0.06673657  0.85564492  0.04064552  1
  Li  Li18  1  0.35422000  0.47326765  0.09404049  1
  Li  Li19  1  0.66541356  0.01484482  0.09654200  1
  Li  Li20  1  0.52103730  0.44941458  0.12980274  1
  Li  Li21  1  0.51579115  0.05507168  0.06238233  1
  Li  Li22  1  0.16414902  0.88859516  0.20065111  1
  Li  Li23  1  0.82838537  0.10434136  0.19804404  1
  Li  Li24  1  0.75038247  0.49731705  0.14911997  1
  Li  Li25  1  0.26587828  0.02016336  0.05542531  1
  Li  Li26  1  0.24159437  0.46476944  0.04731290  1
  Li  Li27  1  0.74638957  0.99413501  0.14682201  1
  Li  Li28  1  0.82885160  0.96699721  0.29972793  1
  Li  Li29  1  0.16375207  0.52304013  0.29804189  1
  Li  Li30  1  0.00615281  0.93919833  0.26458741  1
  Li  Li31  1  0.99955681  0.54851222  0.33201880  1
  Li  Li32  1  0.66634592  0.89008188  0.39419189  1
  Li  Li33  1  0.33023009  0.10643726  0.39770606  1
  Li  Li34  1  0.48526377  0.17732903  0.23127916  1
  Li  Li35  1  0.49684837  0.29776014  0.36389764  1
  Li  Li36  1  0.24427561  0.25473050  0.37608817  1
  Li  Li37  1  0.74334550  0.25569699  0.22012439  1
  Li  Li38  1  0.38842324  0.04899531  0.34776594  1
  Li  Li39  1  0.60396236  0.40607005  0.24674368  1
  Li  Li40  1  0.24818600  0.76123906  0.31973190  1
  Li  Li41  1  0.74806122  0.75941710  0.27645875  1
  Li  Li42  1  0.10222908  0.40699124  0.34875136  1
  Li  Li43  1  0.88691133  0.04795145  0.24814250  1
  Li  Li44  1  0.98605351  0.17785392  0.36495762  1
  Li  Li45  1  0.99482886  0.29521958  0.23180792  1
  Li  Li46  1  0.32884895  0.96786574  0.29601306  1
  Li  Li47  1  0.66409171  0.52211837  0.29769035  1
  Li  Li48  1  0.50685410  0.94026110  0.33145111  1
  Li  Li49  1  0.49857910  0.54774401  0.26374323  1
  Li  Li50  1  0.16268542  0.38344650  0.39993514  1
  Li  Li51  1  0.82895589  0.60563347  0.39967443  1
  Li  Li52  1  0.74664712  0.99333776  0.34750294  1
  Li  Li53  1  0.24596517  0.49317910  0.24764933  1
  Li  Li54  1  0.24576326  0.99264465  0.24816681  1
  Li  Li55  1  0.74766980  0.49350382  0.34844922  1
  Li  Li56  1  0.85683335  0.47129302  0.50318577  1
  Li  Li57  1  0.16619742  0.01540632  0.49684388  1
  Li  Li58  1  0.02214053  0.44845058  0.46706395  1
  Li  Li59  1  0.00671059  0.05498304  0.53300664  1
  Li  Li60  1  0.48303744  0.67839454  0.43076881  1
  Li  Li61  1  0.51921067  0.82910397  0.56425192  1
  Li  Li62  1  0.19534028  0.81975017  0.57700946  1
  Li  Li63  1  0.73650319  0.76194645  0.41929975  1
  Li  Li64  1  0.41657933  0.57577698  0.58007187  1
  Li  Li65  1  0.60735495  0.90098822  0.44595083  1
  Li  Li66  1  0.24647588  0.22712587  0.51643583  1
  Li  Li67  1  0.76026198  0.27264215  0.47405105  1
  Li  Li68  1  0.14204698  0.97641141  0.54970967  1
  Li  Li69  1  0.89008936  0.55115270  0.45277412  1
  Li  Li70  1  0.94900935  0.61781166  0.55495325  1
  Li  Li71  1  0.98750612  0.79084786  0.43443448  1
  Li  Li72  1  0.32061330  0.46832232  0.49166116  1
  Li  Li73  1  0.66061374  0.03053018  0.49280236  1
  Li  Li74  1  0.41420413  0.44845285  0.53249722  1
  Li  Li75  1  0.49453393  0.05056024  0.46314434  1
  Li  Li76  1  0.72919659  0.45932117  0.54754768  1
  Li  Li77  1  0.24774804  0.99323720  0.44849473  1
  Li  Li78  1  0.25042831  0.49641868  0.44677605  1
  Li  Li79  1  0.74525085  0.00336648  0.54294696  1
  La  La80  1  0.11832831  0.55666569  0.12538665  1
  La  La81  1  0.86934468  0.93541681  0.06440750  1
  La  La82  1  0.36525798  0.17564009  0.17202820  1
  La  La83  1  0.64105815  0.30511944  0.02556950  1
  La  La84  1  0.25626680  0.24223618  0.05457009  1
  La  La85  1  0.75024680  0.24115272  0.14925160  1
  La  La86  1  0.74292350  0.74601827  0.14532348  1
  La  La87  1  0.22455012  0.73216326  0.05133608  1
  La  La88  1  0.64374864  0.55581193  0.06528974  1
  La  La89  1  0.37329532  0.92829973  0.12277622  1
  La  La90  1  0.88288306  0.19741389  0.02548138  1
  La  La91  1  0.12481082  0.30821780  0.17324297  1
  La  La92  1  0.12569756  0.05717359  0.32405932  1
  La  La93  1  0.86953060  0.43023225  0.27320668  1
  La  La94  1  0.36519479  0.67878728  0.37206015  1
  La  La95  1  0.62016452  0.80467413  0.22236430  1
  La  La96  1  0.24528715  0.74273336  0.24838287  1
  La  La97  1  0.74492865  0.74160863  0.34794264  1
  La  La98  1  0.74708552  0.24362163  0.34829112  1
  La  La99  1  0.24689016  0.24340913  0.24769162  1
  La  La100  1  0.62608947  0.05730720  0.27205181  1
  La  La101  1  0.36937690  0.42987236  0.32287116  1
  La  La102  1  0.86500011  0.67928266  0.22391482  1
  La  La103  1  0.12101495  0.80530049  0.37378360  1
  La  La104  1  0.15227733  0.56095905  0.53257965  1
  La  La105  1  0.87351244  0.92846493  0.47323595  1
  La  La106  1  0.38283043  0.20002534  0.57084149  1
  La  La107  1  0.62618024  0.30893689  0.42264723  1
  La  La108  1  0.24894225  0.24165015  0.44708853  1
  La  La109  1  0.75608187  0.23874569  0.54214146  1
  La  La110  1  0.72718108  0.73833248  0.54406125  1
  La  La111  1  0.24526990  0.74527608  0.45057388  1
  La  La112  1  0.62003962  0.55644908  0.47126793  1
  La  La113  1  0.38488171  0.94555714  0.52771628  1
  La  La114  1  0.86700109  0.17710081  0.42397426  1
  La  La115  1  0.14237234  0.30730966  0.57065698  1
  Zr  Zr116  1  0.99599285  0.49417684  0.19896910  1
  Zr  Zr117  1  0.50725424  0.74620982  0.09292231  1
  Zr  Zr118  1  0.50842776  0.24231950  0.09921183  1
  Zr  Zr119  1  0.99534815  0.99218334  0.19742477  1
  Zr  Zr120  1  0.99275943  0.74554585  0.09801236  1
  Zr  Zr121  1  0.00462380  0.25239589  0.09868254  1
  Zr  Zr122  1  0.49602725  0.49383526  0.19648960  1
  Zr  Zr123  1  0.49617282  0.99116838  0.19782350  1
  Zr  Zr124  1  0.99582415  0.99043925  0.39840806  1
  Zr  Zr125  1  0.49640905  0.24285053  0.29800155  1
  Zr  Zr126  1  0.49510561  0.74248931  0.29775233  1
  Zr  Zr127  1  0.99730951  0.49438273  0.39958949  1
  Zr  Zr128  1  0.99641738  0.24267316  0.29784729  1
  Zr  Zr129  1  0.99517448  0.74296902  0.29837756  1
  Zr  Zr130  1  0.49647851  0.99274474  0.39829293  1
  Zr  Zr131  1  0.49645362  0.49327576  0.39729256  1
  Zr  Zr132  1  0.49624250  0.74823678  0.49742383  1
  Zr  Zr133  1  0.50249447  0.25044130  0.49730991  1
  Zr  Zr134  1  0.00708542  0.74627906  0.50325602  1
  Zr  Zr135  1  0.00717626  0.24214953  0.49710800  1
  O  O136  1  0.79696536  0.92639572  0.17799385  1
  O  O137  1  0.42982623  0.17276610  0.05696324  1
  O  O138  1  0.60260466  0.32729554  0.13829971  1
  O  O139  1  0.69574957  0.88404689  0.11355213  1
  O  O140  1  0.32326528  0.61619995  0.06666798  1
  O  O141  1  0.10945457  0.02372831  0.04607453  1
  O  O142  1  0.90664062  0.48758775  0.15862068  1
  O  O143  1  0.69701066  0.36984674  0.07455354  1
  O  O144  1  0.32691706  0.09778818  0.12186869  1
  O  O145  1  0.88521384  0.38750510  0.02486879  1
  O  O146  1  0.12236943  0.11211208  0.16335816  1
  O  O147  1  0.80198414  0.99070602  0.02501211  1
  O  O148  1  0.16834802  0.52429745  0.17400150  1
  O  O149  1  0.62686814  0.73906647  0.05995021  1
  O  O150  1  0.37035613  0.73282040  0.12739330  1
  O  O151  1  0.58417029  0.18910293  0.19387755  1
  O  O152  1  0.51085082  0.65448297  0.17799291  1
  O  O153  1  0.09904742  0.14987768  0.09804403  1
  O  O154  1  0.90990703  0.35736178  0.10498564  1
  O  O155  1  0.97568016  0.88557933  0.11755059  1
  O  O156  1  0.02774204  0.60622121  0.08289043  1
  O  O157  1  0.90352441  0.29434208  0.19472811  1
  O  O158  1  0.52465235  0.60636385  0.11411967  1
  O  O159  1  0.48614027  0.88972922  0.07339829  1
  O  O160  1  0.42239865  0.35158125  0.09541121  1
  O  O161  1  0.58719471  0.12518254  0.10356284  1
  O  O162  1  0.97741272  0.82920062  0.18118258  1
  O  O163  1  0.07181494  0.72195909  0.01973915  1
  O  O164  1  0.11886845  0.75794189  0.13435467  1
  O  O165  1  0.89013029  0.75039392  0.06086187  1
  O  O166  1  0.19161871  0.40292346  0.12094590  1
  O  O167  1  0.82655738  0.12574283  0.07513431  1
  O  O168  1  0.37638374  0.37937765  0.16039306  1
  O  O169  1  0.64363020  0.12229574  0.03126120  1
  O  O170  1  0.31594097  0.95329546  0.17364692  1
  O  O171  1  0.73069925  0.51814413  0.02238402  1
  O  O172  1  0.79537798  0.60555655  0.11528201  1
  O  O173  1  0.20012176  0.87649727  0.07761104  1
  O  O174  1  0.09304445  0.30728815  0.05598130  1
  O  O175  1  0.91299707  0.16986460  0.13936692  1
  O  O176  1  0.69724524  0.56157514  0.17854098  1
  O  O177  1  0.40993695  0.46093182  0.04224038  1
  O  O178  1  0.58751652  0.00105891  0.15789703  1
  O  O179  1  0.79530565  0.42616219  0.38059918  1
  O  O180  1  0.19826133  0.05872012  0.21650580  1
  O  O181  1  0.40270706  0.66345097  0.25737646  1
  O  O182  1  0.58852316  0.82532788  0.33793569  1
  O  O183  1  0.69756274  0.37714366  0.31678351  1
  O  O184  1  0.29546138  0.10726714  0.27941239  1
  O  O185  1  0.08691413  0.50567150  0.23914722  1
  O  O186  1  0.90260919  0.97987938  0.35806424  1
  O  O187  1  0.67573575  0.88344435  0.27339005  1
  O  O188  1  0.32123770  0.59914903  0.32261039  1
  O  O189  1  0.87320608  0.88167569  0.23383124  1
  O  O190  1  0.11785248  0.61196433  0.36418139  1
  O  O191  1  0.81317753  0.45362562  0.22255767  1
  O  O192  1  0.17045826  0.02222595  0.37356484  1
  O  O193  1  0.61750061  0.25209791  0.26181853  1
  O  O194  1  0.37176291  0.23725904  0.33272074  1
  O  O195  1  0.40150229  0.79179015  0.20097461  1
  O  O196  1  0.58276215  0.68995733  0.39264094  1
  O  O197  1  0.51639118  0.15699004  0.37946386  1
  O  O198  1  0.47457498  0.32872111  0.21455431  1
  O  O199  1  0.08832894  0.63658931  0.29473794  1
  O  O200  1  0.90749850  0.85303408  0.30240380  1
  O  O201  1  0.97794962  0.38691444  0.31672518  1
  O  O202  1  0.01746520  0.09953973  0.28033742  1
  O  O203  1  0.08353225  0.69155639  0.20335411  1
  O  O204  1  0.90101909  0.79131742  0.39558295  1
  O  O205  1  0.51774324  0.09984211  0.31551908  1
  O  O206  1  0.47820614  0.38662836  0.27906433  1
  O  O207  1  0.40766169  0.85291173  0.29369626  1
  O  O208  1  0.58790995  0.63571738  0.30143102  1
  O  O209  1  0.97563908  0.32958097  0.38130574  1
  O  O210  1  0.01494503  0.15596561  0.21626273  1
  O  O211  1  0.11670303  0.25168829  0.33411575  1
  O  O212  1  0.87191342  0.23756494  0.26320003  1
  O  O213  1  0.17610790  0.88434700  0.32263221  1
  O  O214  1  0.82177306  0.60016406  0.27339668  1
  O  O215  1  0.37342747  0.88247518  0.36202151  1
  O  O216  1  0.61779506  0.61116892  0.23177975  1
  O  O217  1  0.31454391  0.45268674  0.37346702  1
  O  O218  1  0.67052557  0.02202702  0.22256849  1
  O  O219  1  0.79495984  0.10698633  0.31630173  1
  O  O220  1  0.19753095  0.37666897  0.27917674  1
  O  O221  1  0.08821571  0.82567724  0.25820274  1
  O  O222  1  0.90335225  0.66413041  0.33877243  1
  O  O223  1  0.69903075  0.05946099  0.37908053  1
  O  O224  1  0.29427190  0.42576969  0.21564056  1
  O  O225  1  0.40285209  0.98045323  0.23817900  1
  O  O226  1  0.58787156  0.50429773  0.35724199  1
  O  O227  1  0.20006107  0.56109398  0.41676722  1
  O  O228  1  0.41146269  0.16834811  0.45710802  1
  O  O229  1  0.58539490  0.29962175  0.54058744  1
  O  O230  1  0.70657562  0.88167356  0.51485123  1
  O  O231  1  0.29967756  0.60829160  0.47926173  1
  O  O232  1  0.08781729  0.99980373  0.43835725  1
  O  O233  1  0.89935093  0.45514381  0.55315409  1
  O  O234  1  0.69041066  0.39869331  0.47586949  1
  O  O235  1  0.32337832  0.11552395  0.52071458  1
  O  O236  1  0.87904864  0.38209992  0.43593358  1
  O  O237  1  0.15060735  0.12832180  0.56139975  1
  O  O238  1  0.81517859  0.95389542  0.42204574  1
  O  O239  1  0.21610074  0.51410652  0.57373818  1
  O  O240  1  0.62177042  0.75473920  0.46035335  1
  O  O241  1  0.38823809  0.75573158  0.53222999  1
  O  O242  1  0.40434841  0.29362162  0.40137106  1
  O  O243  1  0.59566418  0.73739639  0.57661998  1
  O  O244  1  0.47865826  0.82957033  0.41421581  1
  O  O245  1  0.08895861  0.12727495  0.49212292  1
  O  O246  1  0.91805499  0.34740183  0.50082529  1
  O  O247  1  0.98779892  0.89211490  0.52086821  1
  O  O248  1  0.02796288  0.60689503  0.48363921  1
  O  O249  1  0.08504467  0.18918325  0.40245562  1
  O  O250  1  0.52500081  0.60673727  0.51311020  1
  O  O251  1  0.48042428  0.88878232  0.47722062  1
  O  O252  1  0.40997761  0.35554418  0.49273872  1
  O  O253  1  0.59545830  0.14345316  0.49868455  1
  O  O254  1  0.01343420  0.65502744  0.41852872  1
  O  O255  1  0.12279402  0.74594357  0.54110644  1
  O  O256  1  0.87414504  0.73110671  0.46905463  1
  O  O257  1  0.19305439  0.37247147  0.52189448  1
  O  O258  1  0.83091134  0.10018294  0.47276832  1
  O  O259  1  0.38346362  0.39074189  0.57121525  1
  O  O260  1  0.62394346  0.11506238  0.43223250  1
  O  O261  1  0.29847070  0.98636676  0.57194815  1
  O  O262  1  0.66829508  0.52290739  0.42264984  1
  O  O263  1  0.81906930  0.61306581  0.52794765  1
  O  O264  1  0.19881770  0.88139124  0.48258171  1
  O  O265  1  0.10324859  0.32881039  0.45811783  1
  O  O266  1  0.91925031  0.16220336  0.53864772  1
  O  O267  1  0.29897576  0.92712640  0.41786479  1
  O  O268  1  0.40596801  0.48406224  0.43781251  1
  O  O269  1  0.59705549  0.01817063  0.55267351  1
