# generated using pymatgen
data_Li20La8Zr5O32
_symmetry_space_group_name_H-M   'P 1'
_cell_length_a   12.70453900
_cell_length_b   13.20454200
_cell_length_c   31.80681200
_cell_angle_alpha   90.00000000
_cell_angle_beta   90.00000000
_cell_angle_gamma   90.00000000
_symmetry_Int_Tables_number   1
_chemical_formula_structural   Li20La8Zr5O32
_chemical_formula_sum   'Li80 La32 Zr20 O128'
_cell_volume   5335.83504325
_cell_formula_units_Z   4
loop_
 _symmetry_equiv_pos_site_id
 _symmetry_equiv_pos_as_xyz
  1  'x, y, z'
loop_
 _atom_site_type_symbol
 _atom_site_label
 _atom_site_symmetry_multiplicity
 _atom_site_fract_x
 _atom_site_fract_y
 _atom_site_fract_z
 _atom_site_occupancy
  Li  Li0  1  0.70891968  0.88709119  0.13026492  1
  Li  Li1  1  0.79635473  0.10173307  0.13139335  1
  Li  Li2  1  0.19677548  0.57642571  0.13231654  1
  Li  Li3  1  0.30587037  0.40156064  0.13108327  1
  Li  Li4  1  0.87068139  0.24623672  0.17370454  1
  Li  Li5  1  0.62937445  0.75697373  0.16920724  1
  Li  Li6  1  0.36959872  0.25431641  0.17133444  1
  Li  Li7  1  0.13369678  0.73933721  0.16560147  1
  Li  Li8  1  0.31360861  0.09360221  0.20257618  1
  Li  Li9  1  0.18017921  0.90899964  0.19318458  1
  Li  Li10  1  0.80919718  0.41203762  0.20412750  1
  Li  Li11  1  0.68684908  0.58018484  0.19658670  1
  Li  Li12  1  0.44155052  0.33160202  0.23678266  1
  Li  Li13  1  0.05868074  0.65877579  0.23299828  1
  Li  Li14  1  0.94711639  0.15898558  0.23913561  1
  Li  Li15  1  0.55562004  0.84688012  0.23335988  1
  Li  Li16  1  0.34723027  0.93388066  0.23825664  1
  Li  Li17  1  0.11893351  0.06408161  0.23818386  1
  Li  Li18  1  0.60915811  0.42794877  0.23895012  1
  Li  Li19  1  0.86080813  0.57519139  0.23663108  1
  Li  Li20  1  0.36104258  0.42860042  0.30103773  1
  Li  Li21  1  0.11792058  0.57039783  0.30124332  1
  Li  Li22  1  0.64173635  0.93343105  0.30075720  1
  Li  Li23  1  0.85094376  0.06759354  0.30304086  1
  Li  Li24  1  0.05551082  0.16269405  0.30755500  1
  Li  Li25  1  0.44965027  0.83254147  0.30283598  1
  Li  Li26  1  0.55560206  0.33682994  0.30767282  1
  Li  Li27  1  0.94523518  0.67049928  0.30387013  1
  Li  Li28  1  0.19315446  0.41405226  0.34209849  1
  Li  Li29  1  0.30727090  0.58964024  0.33862684  1
  Li  Li30  1  0.68947958  0.08872246  0.34539651  1
  Li  Li31  1  0.81097458  0.90742556  0.34168275  1
  Li  Li32  1  0.37566761  0.74988742  0.37458407  1
  Li  Li33  1  0.12577307  0.24999177  0.37459263  1
  Li  Li34  1  0.87688950  0.75002606  0.37447064  1
  Li  Li35  1  0.62530814  0.25004338  0.37456554  1
  Li  Li36  1  0.81121500  0.59259899  0.40666718  1
  Li  Li37  1  0.69052815  0.41173672  0.40319137  1
  Li  Li38  1  0.30868123  0.91096371  0.40970314  1
  Li  Li39  1  0.19358034  0.08508149  0.40610334  1
  Li  Li40  1  0.94628517  0.82933414  0.44476609  1
  Li  Li41  1  0.55536273  0.16325055  0.44153801  1
  Li  Li42  1  0.45025386  0.66657638  0.44615052  1
  Li  Li43  1  0.05545373  0.33746454  0.44158044  1
  Li  Li44  1  0.85142003  0.43239813  0.44570000  1
  Li  Li45  1  0.64264771  0.56751490  0.44739339  1
  Li  Li46  1  0.11944075  0.92990462  0.44723837  1
  Li  Li47  1  0.36165020  0.07175995  0.44715003  1
  Li  Li48  1  0.86081856  0.92599490  0.51122551  1
  Li  Li49  1  0.60804272  0.07159788  0.50942828  1
  Li  Li50  1  0.11866472  0.43643537  0.51080692  1
  Li  Li51  1  0.34713456  0.56610137  0.51014347  1
  Li  Li52  1  0.55629009  0.65377268  0.51550816  1
  Li  Li53  1  0.94771855  0.34090940  0.50947687  1
  Li  Li54  1  0.05876163  0.84099957  0.51531313  1
  Li  Li55  1  0.44107459  0.16848772  0.51228858  1
  Li  Li56  1  0.68707601  0.91977408  0.55158874  1
  Li  Li57  1  0.81086204  0.08806520  0.54434697  1
  Li  Li58  1  0.18048937  0.59087594  0.55545425  1
  Li  Li59  1  0.31301149  0.40691694  0.54606725  1
  Li  Li60  1  0.87030171  0.25460902  0.57488038  1
  Li  Li61  1  0.62953784  0.74337297  0.57979584  1
  Li  Li62  1  0.36888533  0.24637305  0.57711078  1
  Li  Li63  1  0.13283480  0.76039900  0.58287234  1
  Li  Li64  1  0.30564966  0.09714383  0.61663087  1
  Li  Li65  1  0.19582499  0.92293702  0.61610515  1
  Li  Li66  1  0.79756076  0.39990872  0.61687181  1
  Li  Li67  1  0.70885108  0.61295421  0.61880664  1
  Li  Li68  1  0.40086241  0.29309012  0.64121227  1
  Li  Li69  1  0.10246731  0.65532640  0.63609348  1
  Li  Li70  1  0.90576648  0.21916358  0.64024982  1
  Li  Li71  1  0.63046577  0.83007615  0.64681757  1
  Li  Li72  1  0.07720147  0.08221975  0.65884938  1
  Li  Li73  1  0.57951568  0.42057136  0.65735774  1
  Li  Li74  1  0.57889268  0.07722106  0.09057859  1
  Li  Li75  1  0.07767057  0.41655903  0.08996785  1
  Li  Li76  1  0.63024272  0.66995214  0.10245997  1
  Li  Li77  1  0.90598648  0.28006866  0.10822487  1
  Li  Li78  1  0.10352177  0.84471588  0.11279689  1
  Li  Li79  1  0.40139864  0.20642954  0.10707601  1
  La  La80  1  0.25462371  0.01848594  0.11704590  1
  La  La81  1  0.75468497  0.45904741  0.11643272  1
  La  La82  1  0.87988465  0.74688495  0.16506569  1
  La  La83  1  0.37807511  0.76199283  0.16693897  1
  La  La84  1  0.61889032  0.25150844  0.17209131  1
  La  La85  1  0.12317100  0.24339928  0.17030556  1
  La  La86  1  0.75844093  0.00014563  0.21764967  1
  La  La87  1  0.25724338  0.49931497  0.21935807  1
  La  La88  1  0.50285708  0.11925503  0.27153701  1
  La  La89  1  0.00218580  0.37804778  0.26968401  1
  La  La90  1  0.50358315  0.62198388  0.26614308  1
  La  La91  1  0.00129282  0.88004626  0.27015081  1
  La  La92  1  0.75252139  0.50345263  0.31973905  1
  La  La93  1  0.25266953  0.99690563  0.32158468  1
  La  La94  1  0.37827044  0.25017672  0.37421950  1
  La  La95  1  0.87839738  0.25008328  0.37425137  1
  La  La96  1  0.12625040  0.74997718  0.37419986  1
  La  La97  1  0.62468188  0.75011611  0.37410151  1
  La  La98  1  0.25253963  0.50273276  0.42682344  1
  La  La99  1  0.75251330  0.99674817  0.42861795  1
  La  La100  1  0.00120675  0.61987670  0.47822011  1
  La  La101  1  0.50346251  0.87783100  0.48211094  1
  La  La102  1  0.00251982  0.12187630  0.47861061  1
  La  La103  1  0.50300655  0.38104705  0.47693753  1
  La  La104  1  0.25720893  0.00025851  0.52888718  1
  La  La105  1  0.75813815  0.50011687  0.53083040  1
  La  La106  1  0.87931472  0.75326915  0.58327445  1
  La  La107  1  0.37763240  0.73804670  0.58149886  1
  La  La108  1  0.61892728  0.24827861  0.57626385  1
  La  La109  1  0.12283094  0.25655543  0.57827197  1
  La  La110  1  0.75447115  0.04042659  0.63182209  1
  La  La111  1  0.25453810  0.48184330  0.63151797  1
  Zr  Zr112  1  0.99523686  0.00567687  0.15537790  1
  Zr  Zr113  1  0.50339276  0.00856275  0.16464063  1
  Zr  Zr114  1  0.49842165  0.50013379  0.15784246  1
  Zr  Zr115  1  0.00201585  0.49173217  0.16327984  1
  Zr  Zr116  1  0.75037492  0.24936886  0.27342650  1
  Zr  Zr117  1  0.75127496  0.75323227  0.26883245  1
  Zr  Zr118  1  0.24981623  0.24750414  0.27273509  1
  Zr  Zr119  1  0.25001285  0.74844613  0.26891655  1
  Zr  Zr120  1  0.50064792  0.50460465  0.37276678  1
  Zr  Zr121  1  0.00145066  0.50179481  0.37434611  1
  Zr  Zr122  1  0.00145285  0.99791572  0.37409326  1
  Zr  Zr123  1  0.50078426  0.99578837  0.37561598  1
  Zr  Zr124  1  0.24984843  0.75121041  0.47945645  1
  Zr  Zr125  1  0.25015823  0.25254973  0.47592205  1
  Zr  Zr126  1  0.75133034  0.74721136  0.47953050  1
  Zr  Zr127  1  0.75072961  0.25056399  0.47518864  1
  Zr  Zr128  1  0.00202846  0.00820082  0.58516210  1
  Zr  Zr129  1  0.49841801  0.99934494  0.59043362  1
  Zr  Zr130  1  0.50336203  0.49151028  0.58384287  1
  Zr  Zr131  1  0.99529154  0.49479693  0.59306314  1
  O  O132  1  0.44327841  0.06581253  0.10544221  1
  O  O133  1  0.07950694  0.97912791  0.10223570  1
  O  O134  1  0.59128386  0.53650783  0.10649884  1
  O  O135  1  0.94242810  0.42469468  0.10545329  1
  O  O136  1  0.23989093  0.81920339  0.12977595  1
  O  O137  1  0.26382022  0.20362694  0.12652819  1
  O  O138  1  0.73828886  0.74245110  0.12373897  1
  O  O139  1  0.76195374  0.28746642  0.12457188  1
  O  O140  1  0.53587255  0.86050348  0.15013180  1
  O  O141  1  0.95780511  0.15934342  0.14106400  1
  O  O142  1  0.04695151  0.63332427  0.14445509  1
  O  O143  1  0.45863625  0.34684919  0.14087887  1
  O  O144  1  0.84026906  0.95873170  0.14857501  1
  O  O145  1  0.64741543  0.07333080  0.14171953  1
  O  O146  1  0.15126854  0.43244639  0.13985955  1
  O  O147  1  0.34461971  0.54762545  0.14831772  1
  O  O148  1  0.35047787  0.96157766  0.17989620  1
  O  O149  1  0.15025626  0.05869354  0.17896781  1
  O  O150  1  0.65476476  0.43548495  0.18032158  1
  O  O151  1  0.84669087  0.54606724  0.17600040  1
  O  O152  1  0.46305184  0.15389194  0.19389669  1
  O  O153  1  0.03622548  0.85246086  0.17339788  1
  O  O154  1  0.96217602  0.34998961  0.19351794  1
  O  O155  1  0.54044583  0.64294620  0.18594560  1
  O  O156  1  0.78057874  0.19068027  0.21258179  1
  O  O157  1  0.72147761  0.81324973  0.20985410  1
  O  O158  1  0.28123788  0.30680658  0.21192851  1
  O  O159  1  0.21778080  0.68956476  0.20941609  1
  O  O160  1  0.95561328  0.02036026  0.22468450  1
  O  O161  1  0.56851915  0.98726993  0.22610329  1
  O  O162  1  0.06379513  0.51704983  0.22481100  1
  O  O163  1  0.45386623  0.47179299  0.22460586  1
  O  O164  1  0.09738087  0.21089002  0.24949445  1
  O  O165  1  0.40248624  0.79170053  0.24496236  1
  O  O166  1  0.59752820  0.28515308  0.25037721  1
  O  O167  1  0.90613065  0.71494721  0.24461411  1
  O  O168  1  0.30567107  0.09750628  0.26078147  1
  O  O169  1  0.19609179  0.89724609  0.25441258  1
  O  O170  1  0.80886729  0.39880845  0.26143247  1
  O  O171  1  0.70516361  0.60259267  0.25525652  1
  O  O172  1  0.20094321  0.39939799  0.28373042  1
  O  O173  1  0.31203560  0.59887837  0.27958258  1
  O  O174  1  0.70030115  0.09986610  0.28637698  1
  O  O175  1  0.80720029  0.90404893  0.28217542  1
  O  O176  1  0.40303504  0.28590729  0.29486625  1
  O  O177  1  0.09806122  0.71378879  0.29130134  1
  O  O178  1  0.90324428  0.20997461  0.29543013  1
  O  O179  1  0.59948806  0.78791535  0.29073055  1
  O  O180  1  0.95633285  0.53015927  0.31121654  1
  O  O181  1  0.55850767  0.47885051  0.30986206  1
  O  O182  1  0.05990809  0.02181468  0.31190732  1
  O  O183  1  0.44971459  0.97186006  0.31310328  1
  O  O184  1  0.71733158  0.30784324  0.33328596  1
  O  O185  1  0.78678623  0.69830272  0.33023760  1
  O  O186  1  0.21728481  0.19259607  0.33295724  1
  O  O187  1  0.28318279  0.80209169  0.33030540  1
  O  O188  1  0.03614170  0.35448010  0.35362860  1
  O  O189  1  0.46737690  0.65053780  0.35039768  1
  O  O190  1  0.53559345  0.14462454  0.35493651  1
  O  O191  1  0.96715294  0.85123689  0.35041407  1
  O  O192  1  0.34695432  0.44964976  0.35984639  1
  O  O193  1  0.15510007  0.55843051  0.35964469  1
  O  O194  1  0.65469441  0.94157199  0.36108716  1
  O  O195  1  0.84757337  0.04936032  0.36199018  1
  O  O196  1  0.84761485  0.45045724  0.38651926  1
  O  O197  1  0.65495419  0.55862547  0.38724957  1
  O  O198  1  0.15541560  0.94151924  0.38867971  1
  O  O199  1  0.34708397  0.05060765  0.38853426  1
  O  O200  1  0.96685570  0.64859801  0.39802495  1
  O  O201  1  0.53563123  0.35577012  0.39337978  1
  O  O202  1  0.46682762  0.85008911  0.39809713  1
  O  O203  1  0.03597509  0.14530518  0.39487531  1
  O  O204  1  0.28285806  0.69697603  0.41818174  1
  O  O205  1  0.21745629  0.30760680  0.41575163  1
  O  O206  1  0.78652700  0.80226135  0.41818206  1
  O  O207  1  0.71741683  0.19215438  0.41537311  1
  O  O208  1  0.44948405  0.52792964  0.43528060  1
  O  O209  1  0.05970476  0.47816715  0.43652681  1
  O  O210  1  0.55832920  0.02149796  0.43855614  1
  O  O211  1  0.95643895  0.96972994  0.43721236  1
  O  O212  1  0.59943838  0.71221318  0.45775489  1
  O  O213  1  0.90355358  0.28999083  0.45316375  1
  O  O214  1  0.09809460  0.78613879  0.45690228  1
  O  O215  1  0.40334444  0.21434234  0.45388414  1
  O  O216  1  0.80673835  0.59616766  0.46622184  1
  O  O217  1  0.70060933  0.39999431  0.46213993  1
  O  O218  1  0.31157771  0.90078824  0.46869041  1
  O  O219  1  0.20124075  0.10057259  0.46459169  1
  O  O220  1  0.70488735  0.89766756  0.49301011  1
  O  O221  1  0.80978158  0.10094958  0.48696552  1
  O  O222  1  0.19573345  0.60254022  0.49414945  1
  O  O223  1  0.30591333  0.40253971  0.48783509  1
  O  O224  1  0.90625727  0.78518647  0.50364205  1
  O  O225  1  0.59785929  0.21468028  0.49827997  1
  O  O226  1  0.40225327  0.70819058  0.50351265  1
  O  O227  1  0.09761792  0.28937191  0.49923460  1
  O  O228  1  0.45358089  0.02794662  0.52361803  1
  O  O229  1  0.06379960  0.98297718  0.52356679  1
  O  O230  1  0.56853955  0.51315286  0.52238246  1
  O  O231  1  0.95560021  0.47965910  0.52368340  1
  O  O232  1  0.21715110  0.81024659  0.53889507  1
  O  O233  1  0.28078981  0.19285559  0.53671681  1
  O  O234  1  0.72157285  0.68767128  0.53868896  1
  O  O235  1  0.78060747  0.30957068  0.53589332  1
  O  O236  1  0.54042020  0.85691643  0.56224560  1
  O  O237  1  0.96184979  0.15010712  0.55510490  1
  O  O238  1  0.03578780  0.64775347  0.57508991  1
  O  O239  1  0.46303726  0.34625881  0.55448609  1
  O  O240  1  0.84680229  0.95368390  0.57223005  1
  O  O241  1  0.65436739  0.06416854  0.56802518  1
  O  O242  1  0.15011566  0.44175246  0.56962048  1
  O  O243  1  0.35031517  0.53867099  0.56865079  1
  O  O244  1  0.34442613  0.95164519  0.59991646  1
  O  O245  1  0.15091095  0.06745891  0.60876933  1
  O  O246  1  0.64789875  0.42698291  0.60644541  1
  O  O247  1  0.84025684  0.54181667  0.59990550  1
  O  O248  1  0.45806886  0.15276771  0.60712084  1
  O  O249  1  0.04691498  0.86669912  0.60408147  1
  O  O250  1  0.95734371  0.34113848  0.60738597  1
  O  O251  1  0.53545378  0.63964753  0.59840596  1
  O  O252  1  0.76185020  0.21186594  0.62377634  1
  O  O253  1  0.73808142  0.75760424  0.62505547  1
  O  O254  1  0.26354330  0.29719753  0.62176155  1
  O  O255  1  0.23909973  0.68065395  0.61862908  1
  O  O256  1  0.94211069  0.07461036  0.64307868  1
  O  O257  1  0.59092101  0.96304300  0.64188755  1
  O  O258  1  0.07924387  0.52088484  0.64631763  1
  O  O259  1  0.44369671  0.43346422  0.64288711  1
