# generated using pymatgen
data_Li17La7Zr4O27
_symmetry_space_group_name_H-M   'P 1'
_cell_length_a   11.27162600
_cell_length_b   11.27162572
_cell_length_c   45.65416700
_cell_angle_alpha   90.00000000
_cell_angle_beta   90.00000000
_cell_angle_gamma   108.34782046
_symmetry_Int_Tables_number   1
_chemical_formula_structural   Li17La7Zr4O27
_chemical_formula_sum   'Li68 La28 Zr16 O108'
_cell_volume   5505.46986988
_cell_formula_units_Z   4
loop_
 _symmetry_equiv_pos_site_id
 _symmetry_equiv_pos_as_xyz
  1  'x, y, z'
loop_
 _atom_site_type_symbol
 _atom_site_label
 _atom_site_symmetry_multiplicity
 _atom_site_fract_x
 _atom_site_fract_y
 _atom_site_fract_z
 _atom_site_occupancy
  Li  Li0  1  0.21648225  0.36009514  0.19631493  1
  Li  Li1  1  0.98406519  0.90736968  0.10728503  1
  Li  Li2  1  0.82005966  0.15420519  0.01917484  1
  Li  Li3  1  0.14578356  0.77103482  0.09871884  1
  Li  Li4  1  0.53638781  0.35933979  0.13642204  1
  Li  Li5  1  0.65327015  0.91727338  0.17554598  1
  Li  Li6  1  0.52064885  0.36674949  0.05960668  1
  Li  Li7  1  0.10374824  0.42696822  0.04698575  1
  Li  Li8  1  0.58031340  0.50954395  0.09676807  1
  Li  Li9  1  0.43145070  0.93656796  0.18797552  1
  Li  Li10  1  0.69552846  0.34475167  0.10092573  1
  Li  Li11  1  0.19352923  0.90527271  0.14503938  1
  Li  Li12  1  0.03306761  0.35065422  0.16830668  1
  Li  Li13  1  0.13778907  0.93519746  0.06643578  1
  Li  Li14  1  0.61136032  0.85768642  0.03929341  1
  Li  Li15  1  0.13969869  0.98582695  0.01708387  1
  Li  Li16  1  0.69811697  0.80473909  0.09501770  1
  Li  Li17  1  0.20144257  0.85650353  0.19910487  1
  Li  Li18  1  0.90568097  0.33765984  0.12401617  1
  Li  Li19  1  0.31741792  0.08758090  0.17716891  1
  Li  Li20  1  0.85123496  0.13800058  0.13642812  1
  Li  Li21  1  0.34138873  0.88129442  0.05791501  1
  Li  Li22  1  0.51498800  0.70320970  0.07279963  1
  Li  Li23  1  0.40720369  0.32633541  0.17783347  1
  Li  Li24  1  0.78836619  0.93512283  0.12942272  1
  Li  Li25  1  0.59188409  0.28387549  0.01254697  1
  Li  Li26  1  0.09382519  0.51104157  0.09480254  1
  Li  Li27  1  0.69158420  0.87899134  0.39760867  1
  Li  Li28  1  0.46682798  0.43066863  0.30860625  1
  Li  Li29  1  0.07121273  0.50988407  0.20872793  1
  Li  Li30  1  0.61387029  0.27951778  0.29659086  1
  Li  Li31  1  0.02522760  0.87014057  0.33094310  1
  Li  Li32  1  0.14662480  0.43513892  0.36937069  1
  Li  Li33  1  0.06499729  0.83989737  0.27415396  1
  Li  Li34  1  0.61771715  0.94916124  0.23050138  1
  Li  Li35  1  0.64833487  0.73568984  0.21414039  1
  Li  Li36  1  0.04550012  0.04765403  0.29435668  1
  Li  Li37  1  0.98242734  0.44472064  0.40352255  1
  Li  Li38  1  0.24432669  0.85159223  0.31536110  1
  Li  Li39  1  0.65272091  0.44155636  0.33613895  1
  Li  Li40  1  0.49450852  0.88156067  0.36064148  1
  Li  Li41  1  0.61567124  0.47424004  0.26279284  1
  Li  Li42  1  0.06374362  0.31751225  0.24039986  1
  Li  Li43  1  0.56958171  0.49699934  0.20602308  1
  Li  Li44  1  0.11465657  0.29056856  0.29825719  1
  Li  Li45  1  0.77143875  0.44889941  0.38201387  1
  Li  Li46  1  0.47830112  0.93133073  0.30662226  1
  Li  Li47  1  0.82879192  0.65288042  0.37014579  1
  Li  Li48  1  0.36469255  0.70074197  0.32787915  1
  Li  Li49  1  0.79445018  0.61443475  0.22959059  1
  Li  Li50  1  0.89409429  0.17433622  0.27584598  1
  Li  Li51  1  0.89739629  0.85971244  0.37827445  1
  Li  Li52  1  0.27366137  0.46280727  0.32684604  1
  Li  Li53  1  0.03073986  0.70430166  0.22792063  1
  Li  Li54  1  0.65278976  0.08488610  0.27744269  1
  Li  Li55  1  0.53852819  0.01430862  0.40697422  1
  Li  Li56  1  0.86634748  0.64155960  0.48547528  1
  Li  Li57  1  0.58318093  0.36379346  0.45819770  1
  Li  Li58  1  0.15899007  0.42841244  0.44481648  1
  Li  Li59  1  0.10894885  0.28550307  0.40818908  1
  Li  Li60  1  0.06765917  0.94813095  0.46225186  1
  Li  Li61  1  0.53730331  0.85129892  0.44029054  1
  Li  Li62  1  0.03465821  0.02105029  0.41093002  1
  Li  Li63  1  0.58008962  0.83327104  0.49015489  1
  Li  Li64  1  0.24597084  0.11617010  0.42912361  1
  Li  Li65  1  0.33897781  0.91095386  0.44725945  1
  Li  Li66  1  0.58798958  0.27388853  0.41120619  1
  Li  Li67  1  0.09274562  0.50889914  0.49258334  1
  La  La68  1  0.86347314  0.62219383  0.10265123  1
  La  La69  1  0.34652041  0.13605012  0.10863780  1
  La  La70  1  0.91615917  0.82255761  0.17758276  1
  La  La71  1  0.30312261  0.45117717  0.12111359  1
  La  La72  1  0.03200668  0.69392140  0.02836875  1
  La  La73  1  0.67239604  0.07450418  0.07709390  1
  La  La74  1  0.68913545  0.58201575  0.02189164  1
  La  La75  1  0.02260699  0.19376774  0.07863575  1
  La  La76  1  0.79138059  0.44864455  0.17639779  1
  La  La77  1  0.41690407  0.82810506  0.12286684  1
  La  La78  1  0.35639775  0.64396682  0.20109633  1
  La  La79  1  0.33098068  0.14685770  0.30380160  1
  La  La80  1  0.83706354  0.64791064  0.30056877  1
  La  La81  1  0.84596095  0.14119904  0.20425593  1
  La  La82  1  0.38796194  0.34611742  0.38234299  1
  La  La83  1  0.76871966  0.96703333  0.32755217  1
  La  La84  1  0.52942033  0.20331591  0.22774228  1
  La  La85  1  0.15370371  0.58533647  0.27714121  1
  La  La86  1  0.15302491  0.08205926  0.22896755  1
  La  La87  1  0.52987543  0.70837278  0.27626035  1
  La  La88  1  0.26770896  0.95754347  0.38012252  1
  La  La89  1  0.89228163  0.34083199  0.32915309  1
  La  La90  1  0.82534677  0.16242041  0.40360245  1
  La  La91  1  0.33504000  0.65323401  0.39621504  1
  La  La92  1  0.00736803  0.71744211  0.42773578  1
  La  La93  1  0.64638756  0.09857601  0.47700783  1
  La  La94  1  0.65559623  0.59552776  0.42691928  1
  La  La95  1  0.99528853  0.21214056  0.48274605  1
  Zr  Zr96  1  0.60547227  0.63937192  0.15074932  1
  Zr  Zr97  1  0.84082317  0.37855172  0.04782374  1
  Zr  Zr98  1  0.09224826  0.13090799  0.15280230  1
  Zr  Zr99  1  0.87003924  0.89932795  0.04669145  1
  Zr  Zr100  1  0.10966078  0.63749709  0.15308212  1
  Zr  Zr101  1  0.59977244  0.13611771  0.15303890  1
  Zr  Zr102  1  0.08110724  0.15453434  0.35415297  1
  Zr  Zr103  1  0.34153663  0.89460975  0.25252964  1
  Zr  Zr104  1  0.59072344  0.65912333  0.35195914  1
  Zr  Zr105  1  0.84138312  0.39379646  0.25272813  1
  Zr  Zr106  1  0.34150179  0.39448205  0.25243938  1
  Zr  Zr107  1  0.57666670  0.15216026  0.35274900  1
  Zr  Zr108  1  0.08035672  0.65240217  0.35202755  1
  Zr  Zr109  1  0.84251823  0.89606151  0.25263116  1
  Zr  Zr110  1  0.84351863  0.41418808  0.45726813  1
  Zr  Zr111  1  0.80750282  0.88994879  0.45654668  1
  O  O112  1  0.90176959  0.01921279  0.15897853  1
  O  O113  1  0.28459514  0.23504337  0.14975081  1
  O  O114  1  0.99843072  0.53625727  0.06425393  1
  O  O115  1  0.69238206  0.22432543  0.03558012  1
  O  O116  1  0.77078906  0.76360094  0.13125809  1
  O  O117  1  0.45361160  0.49963596  0.16782609  1
  O  O118  1  0.07403008  0.21621774  0.19398861  1
  O  O119  1  0.11826894  0.06439916  0.11117177  1
  O  O120  1  0.28275925  0.91872173  0.09545598  1
  O  O121  1  0.68046574  0.49731404  0.13210587  1
  O  O122  1  0.52880106  0.76513023  0.16958379  1
  O  O123  1  0.71356524  0.47207938  0.06994022  1
  O  O124  1  0.96515932  0.29203821  0.03497105  1
  O  O125  1  0.43728809  0.36196985  0.09765317  1
  O  O126  1  0.60682611  0.05525519  0.19499721  1
  O  O127  1  0.57206545  0.19629613  0.11108151  1
  O  O128  1  0.04007270  0.77455833  0.13373041  1
  O  O129  1  0.17441633  0.50011325  0.17239423  1
  O  O130  1  0.97923504  0.79476560  0.07252735  1
  O  O131  1  0.75302048  0.99100780  0.03226545  1
  O  O132  1  0.71708290  0.63625594  0.18862652  1
  O  O133  1  0.50549185  0.64181054  0.11115539  1
  O  O134  1  0.84890430  0.50221756  0.01423425  1
  O  O135  1  0.83201061  0.27057792  0.08871900  1
  O  O136  1  0.13556150  0.98613457  0.17708263  1
  O  O137  1  0.02475127  0.25673199  0.13207355  1
  O  O138  1  0.20347010  0.86563376  0.03151656  1
  O  O139  1  0.50559606  0.86995281  0.07120708  1
  O  O140  1  0.04121772  0.03327260  0.04398892  1
  O  O141  1  0.68327039  0.73861348  0.05649729  1
  O  O142  1  0.26808261  0.77870472  0.16896513  1
  O  O143  1  0.95262163  0.50392806  0.13403193  1
  O  O144  1  0.40850916  0.02569627  0.14959429  1
  O  O145  1  0.79068775  0.24609867  0.15866203  1
  O  O146  1  0.88628981  0.78234149  0.01385798  1
  O  O147  1  0.83825144  0.97667150  0.08918869  1
  O  O148  1  0.99005682  0.63708338  0.18898237  1
  O  O149  1  0.21952442  0.64205022  0.11493825  1
  O  O150  1  0.56106497  0.28477784  0.17535891  1
  O  O151  1  0.64925804  0.99377655  0.13189355  1
  O  O152  1  0.53255068  0.41105357  0.02029262  1
  O  O153  1  0.17206754  0.39023474  0.08130437  1
  O  O154  1  0.73896742  0.20287517  0.24848515  1
  O  O155  1  0.94267676  0.58611788  0.25655391  1
  O  O156  1  0.39789013  0.55437740  0.35442223  1
  O  O157  1  0.78145373  0.77204875  0.34687018  1
  O  O158  1  0.47838557  0.05195768  0.27032571  1
  O  O159  1  0.20473466  0.73710873  0.23487750  1
  O  O160  1  0.23448949  0.29024503  0.33632655  1
  O  O161  1  0.92183657  0.02989218  0.37499123  1
  O  O162  1  0.55995616  0.72518259  0.39285931  1
  O  O163  1  0.61049965  0.57435483  0.31074080  1
  O  O164  1  0.92504812  0.37037533  0.21233935  1
  O  O165  1  0.76034240  0.41857991  0.29324255  1
  O  O166  1  0.15205726  0.02481744  0.33442951  1
  O  O167  1  0.00605422  0.29419157  0.37294424  1
  O  O168  1  0.21236851  0.97351671  0.27235011  1
  O  O169  1  0.47129808  0.81452157  0.23339183  1
  O  O170  1  0.75851050  0.90516204  0.21167206  1
  O  O171  1  0.92437776  0.88418837  0.29365913  1
  O  O172  1  0.10859862  0.59152139  0.39373824  1
  O  O173  1  0.07291009  0.73295000  0.31008024  1
  O  O174  1  0.51229451  0.29006422  0.33310363  1
  O  O175  1  0.64529552  0.01252346  0.37121853  1
  O  O176  1  0.47787148  0.32592226  0.27211773  1
  O  O177  1  0.20599904  0.46388785  0.23294329  1
  O  O178  1  0.18364868  0.15489826  0.39389796  1
  O  O179  1  0.96833459  0.15406632  0.31651388  1
  O  O180  1  0.33857749  0.00609905  0.21536707  1
  O  O181  1  0.34285987  0.78249629  0.28974679  1
  O  O182  1  0.65121590  0.52864504  0.37305622  1
  O  O183  1  0.54719192  0.80319310  0.32760958  1
  O  O184  1  0.69730210  0.43234362  0.22814249  1
  O  O185  1  0.98707341  0.35667073  0.27675919  1
  O  O186  1  0.48229810  0.55357859  0.23540282  1
  O  O187  1  0.20383501  0.23441794  0.26957951  1
  O  O188  1  0.73351949  0.28266028  0.37210626  1
  O  O189  1  0.41618840  0.01211960  0.33654128  1
  O  O190  1  0.88937941  0.54395581  0.34690240  1
  O  O191  1  0.27241937  0.76300150  0.35504382  1
  O  O192  1  0.73242964  0.70522254  0.25656162  1
  O  O193  1  0.95044537  0.08583479  0.24743255  1
  O  O194  1  0.34378256  0.27969419  0.21602868  1
  O  O195  1  0.33907705  0.51041826  0.28871341  1
  O  O196  1  0.46308967  0.14460968  0.39074638  1
  O  O197  1  0.69413642  0.15282134  0.31651574  1
  O  O198  1  0.03593619  0.79786362  0.37351624  1
  O  O199  1  0.12040556  0.50452304  0.32981681  1
  O  O200  1  0.98993168  0.85661229  0.23000342  1
  O  O201  1  0.69585193  0.93420138  0.27559643  1
  O  O202  1  0.99222255  0.56909045  0.46952806  1
  O  O203  1  0.68788094  0.25696121  0.44133888  1
  O  O204  1  0.39535890  0.86838336  0.40994233  1
  O  O205  1  0.71961066  0.50007616  0.47043473  1
  O  O206  1  0.97258070  0.32249290  0.43514390  1
  O  O207  1  0.25028691  0.43167264  0.40710312  1
  O  O208  1  0.93306306  0.80593993  0.47109966  1
  O  O209  1  0.69548360  0.99249904  0.43180278  1
  O  O210  1  0.85085498  0.52044562  0.41659215  1
  O  O211  1  0.83741014  0.28861670  0.49106046  1
  O  O212  1  0.18111187  0.94104432  0.43270148  1
  O  O213  1  0.47836477  0.93004092  0.47368392  1
  O  O214  1  0.97319107  0.05302870  0.44737886  1
  O  O215  1  0.63545981  0.75308465  0.45961643  1
  O  O216  1  0.83159204  0.79388417  0.41541882  1
  O  O217  1  0.76297628  0.97986189  0.49206118  1
  O  O218  1  0.50717917  0.39200624  0.42427051  1
  O  O219  1  0.15054784  0.38029541  0.48410404  1
