# generated using pymatgen
data_Li68La30Zr18O115
_symmetry_space_group_name_H-M   'P 1'
_cell_length_a   11.27162600
_cell_length_b   18.66058700
_cell_length_c   41.87959700
_cell_angle_alpha   90.00000000
_cell_angle_beta   90.00000000
_cell_angle_gamma   89.99896220
_symmetry_Int_Tables_number   1
_chemical_formula_structural   Li68La30Zr18O115
_chemical_formula_sum   'Li136 La60 Zr36 O230'
_cell_volume   8808.75163541
_cell_formula_units_Z   2
loop_
 _symmetry_equiv_pos_site_id
 _symmetry_equiv_pos_as_xyz
  1  'x, y, z'
loop_
 _atom_site_type_symbol
 _atom_site_label
 _atom_site_symmetry_multiplicity
 _atom_site_fract_x
 _atom_site_fract_y
 _atom_site_fract_z
 _atom_site_occupancy
  Li  Li0  1  0.16459483  0.22264816  0.00852292  1
  Li  Li1  1  0.54159517  0.22480604  0.11157631  1
  Li  Li2  1  0.93110720  0.30462017  0.00476986  1
  Li  Li3  1  0.74130674  0.14971020  0.10609928  1
  Li  Li4  1  0.29903684  0.95959268  0.02108838  1
  Li  Li5  1  0.45357816  0.45275792  0.10181722  1
  Li  Li6  1  0.31604809  0.88557392  0.06953953  1
  Li  Li7  1  0.44368520  0.54073855  0.06305864  1
  Li  Li8  1  0.62254879  0.51272061  0.03601923  1
  Li  Li9  1  0.10910586  0.93738099  0.03875257  1
  Li  Li10  1  0.34238644  0.59591034  0.10793606  1
  Li  Li11  1  0.37250358  0.84845625  0.01263869  1
  Li  Li12  1  0.58013287  0.17035175  0.06100501  1
  Li  Li13  1  0.10972943  0.28642400  0.05831895  1
  Li  Li14  1  0.88012835  0.59617938  0.01075599  1
  Li  Li15  1  0.84539980  0.85638326  0.10443103  1
  Li  Li16  1  0.81520056  0.56538612  0.06779666  1
  Li  Li17  1  0.90435168  0.91053955  0.04832041  1
  Li  Li18  1  0.62497091  0.17600750  0.00867320  1
  Li  Li19  1  0.04360134  0.22664790  0.11164278  1
  Li  Li20  1  0.42945973  0.12813947  0.01112255  1
  Li  Li21  1  0.22958919  0.30963740  0.10585415  1
  Li  Li22  1  0.80946981  0.48246135  0.01953953  1
  Li  Li23  1  0.94413623  0.98477024  0.09342197  1
  Li  Li24  1  0.94747908  0.60365712  0.11816004  1
  Li  Li25  1  0.44563849  0.34248682  0.11969431  1
  Li  Li26  1  0.44976212  0.84919896  0.11792984  1
  Li  Li27  1  0.94971011  0.10422887  0.11952281  1
  Li  Li28  1  0.85367033  0.72545559  0.12257969  1
  Li  Li29  1  0.23443121  0.72889648  0.23635953  1
  Li  Li30  1  0.66019749  0.81202673  0.13131841  1
  Li  Li31  1  0.42359897  0.64435780  0.23039650  1
  Li  Li32  1  0.96326120  0.48173871  0.14666805  1
  Li  Li33  1  0.12538975  0.97605723  0.21640465  1
  Li  Li34  1  0.00866899  0.39257477  0.19695566  1
  Li  Li35  1  0.07797378  0.05775449  0.16778936  1
  Li  Li36  1  0.30428632  0.02949772  0.17636956  1
  Li  Li37  1  0.79437879  0.42629770  0.17860551  1
  Li  Li38  1  0.03067156  0.10170278  0.22916360  1
  Li  Li39  1  0.03493326  0.34960411  0.14041907  1
  Li  Li40  1  0.30005126  0.67682437  0.17800136  1
  Li  Li41  1  0.80227702  0.77950353  0.17661321  1
  Li  Li42  1  0.55736396  0.09847599  0.13575119  1
  Li  Li43  1  0.54214244  0.35053654  0.22313654  1
  Li  Li44  1  0.51315626  0.05939960  0.19592715  1
  Li  Li45  1  0.57189698  0.39620222  0.16644876  1
  Li  Li46  1  0.35149116  0.72697606  0.12289966  1
  Li  Li47  1  0.73609296  0.72609388  0.23630438  1
  Li  Li48  1  0.15797192  0.64018541  0.13162650  1
  Li  Li49  1  0.91874211  0.80868696  0.23040015  1
  Li  Li50  1  0.46866833  0.97191746  0.14578013  1
  Li  Li51  1  0.62327367  0.47841980  0.21687427  1
  Li  Li52  1  0.63609958  0.10111440  0.24402517  1
  Li  Li53  1  0.13496355  0.85107159  0.24366948  1
  Li  Li54  1  0.13568852  0.35150431  0.24405818  1
  Li  Li55  1  0.63547181  0.60160523  0.24390673  1
  Li  Li56  1  0.53547522  0.22371477  0.25056990  1
  Li  Li57  1  0.92157125  0.22822384  0.36226878  1
  Li  Li58  1  0.34807069  0.30923126  0.25713623  1
  Li  Li59  1  0.11103821  0.14322862  0.35536806  1
  Li  Li60  1  0.64738775  0.97812524  0.27213148  1
  Li  Li61  1  0.80591013  0.47269819  0.34182733  1
  Li  Li62  1  0.69558592  0.89280472  0.32202418  1
  Li  Li63  1  0.75960939  0.56017835  0.29127573  1
  Li  Li64  1  0.97215995  0.53100195  0.30899962  1
  Li  Li65  1  0.47267258  0.92356098  0.30831177  1
  Li  Li66  1  0.72342220  0.60028030  0.35120349  1
  Li  Li67  1  0.72851303  0.85065294  0.26445721  1
  Li  Li68  1  0.98037116  0.17336502  0.30554490  1
  Li  Li69  1  0.48040575  0.28030764  0.30554237  1
  Li  Li70  1  0.23947060  0.60098482  0.25960398  1
  Li  Li71  1  0.23080313  0.85184966  0.34800499  1
  Li  Li72  1  0.19557841  0.56005279  0.32039529  1
  Li  Li73  1  0.25865068  0.89300373  0.29061008  1
  Li  Li74  1  0.03624847  0.23029305  0.25055166  1
  Li  Li75  1  0.42192491  0.22564282  0.36224011  1
  Li  Li76  1  0.84378075  0.14329209  0.25785550  1
  Li  Li77  1  0.60693845  0.30940461  0.35597871  1
  Li  Li78  1  0.14684158  0.47561220  0.27240530  1
  Li  Li79  1  0.30558625  0.98088840  0.34197507  1
  Li  Li80  1  0.32143414  0.60246422  0.36919642  1
  Li  Li81  1  0.82173832  0.35041407  0.36922880  1
  Li  Li82  1  0.82087722  0.85090133  0.36952124  1
  Li  Li83  1  0.32061803  0.10214059  0.36951955  1
  Li  Li84  1  0.22073296  0.72696584  0.37682937  1
  Li  Li85  1  0.60466890  0.72778267  0.49050396  1
  Li  Li86  1  0.03748459  0.80936250  0.38268946  1
  Li  Li87  1  0.79749132  0.64085306  0.48157205  1
  Li  Li88  1  0.33310893  0.47960004  0.39629448  1
  Li  Li89  1  0.48751595  0.97123313  0.46782632  1
  Li  Li90  1  0.38303024  0.39594493  0.44732368  1
  Li  Li91  1  0.44223921  0.05917835  0.41709743  1
  Li  Li92  1  0.65063104  0.02922305  0.43687417  1
  Li  Li93  1  0.16045676  0.42652223  0.43498418  1
  Li  Li94  1  0.40082867  0.09851640  0.47665934  1
  Li  Li95  1  0.41292198  0.35117540  0.39053391  1
  Li  Li96  1  0.65637168  0.67648874  0.43541293  1
  Li  Li97  1  0.15305914  0.78043521  0.43636513  1
  Li  Li98  1  0.92503758  0.10109922  0.38453691  1
  Li  Li99  1  0.92103377  0.35002521  0.47252445  1
  Li  Li100  1  0.87816120  0.05811884  0.44580102  1
  Li  Li101  1  0.94701649  0.39308873  0.41615329  1
  Li  Li102  1  0.72181594  0.72796980  0.37688046  1
  Li  Li103  1  0.10297145  0.72555674  0.49029185  1
  Li  Li104  1  0.53581023  0.64417387  0.38280410  1
  Li  Li105  1  0.29679594  0.81269652  0.48162594  1
  Li  Li106  1  0.82984316  0.97629209  0.39712353  1
  Li  Li107  1  0.99176523  0.48183355  0.46667135  1
  Li  Li108  1  0.00575732  0.10407850  0.49372878  1
  Li  Li109  1  0.50675555  0.84965837  0.49551330  1
  Li  Li110  1  0.51070797  0.34273682  0.49373340  1
  Li  Li111  1  0.00815452  0.60357976  0.49519833  1
  Li  Li112  1  0.91154010  0.22701299  0.50151752  1
  Li  Li113  1  0.32943108  0.17600272  0.60404110  1
  Li  Li114  1  0.72751369  0.30997264  0.50735540  1
  Li  Li115  1  0.52590411  0.12921498  0.60214199  1
  Li  Li116  1  0.01163290  0.98475187  0.51946238  1
  Li  Li117  1  0.14497025  0.48192161  0.59362871  1
  Li  Li118  1  0.05138691  0.91044014  0.56462240  1
  Li  Li119  1  0.14075918  0.56489836  0.54585280  1
  Li  Li120  1  0.33284917  0.51241327  0.57732780  1
  Li  Li121  1  0.84720357  0.93739602  0.57440158  1
  Li  Li122  1  0.07421519  0.59574446  0.60283516  1
  Li  Li123  1  0.11040909  0.85612378  0.50837842  1
  Li  Li124  1  0.37591092  0.16961426  0.55201915  1
  Li  Li125  1  0.84647435  0.28441452  0.55523567  1
  Li  Li126  1  0.61360827  0.59615004  0.50524829  1
  Li  Li127  1  0.58268617  0.84872293  0.60085948  1
  Li  Li128  1  0.51154267  0.54129119  0.55011111  1
  Li  Li129  1  0.63924457  0.88561143  0.54378691  1
  Li  Li130  1  0.41378633  0.22451351  0.50144768  1
  Li  Li131  1  0.78942507  0.22173969  0.60448688  1
  Li  Li132  1  0.21463283  0.14905232  0.50704833  1
  Li  Li133  1  0.02443023  0.30240960  0.60882622  1
  Li  Li134  1  0.50120971  0.45288772  0.51194866  1
  Li  Li135  1  0.65647254  0.95954137  0.59182619  1
  La  La136  1  0.61352898  0.66326044  0.10186201  1
  La  La137  1  0.12088133  0.78208625  0.01120034  1
  La  La138  1  0.45825796  0.02766322  0.07160351  1
  La  La139  1  0.29804085  0.41106627  0.04374366  1
  La  La140  1  0.60934042  0.34902082  0.05610355  1
  La  La141  1  0.10516611  0.10095217  0.05723618  1
  La  La142  1  0.09724761  0.60698729  0.05605148  1
  La  La143  1  0.59530512  0.84304440  0.05554802  1
  La  La144  1  0.11433875  0.79127415  0.10165197  1
  La  La145  1  0.62412437  0.66744627  0.01150355  1
  La  La146  1  0.94082985  0.42117582  0.07492113  1
  La  La147  1  0.77474911  0.05884770  0.04394447  1
  La  La148  1  0.29572172  0.16076824  0.22727377  1
  La  La149  1  0.78387627  0.29156500  0.13480508  1
  La  La150  1  0.13062698  0.54062182  0.19727089  1
  La  La151  1  0.95979371  0.91194719  0.16609823  1
  La  La152  1  0.29389615  0.85241666  0.18115019  1
  La  La153  1  0.79303685  0.60321308  0.18139432  1
  La  La154  1  0.79455956  0.10071817  0.18184096  1
  La  La155  1  0.28964917  0.34986836  0.18170070  1
  La  La156  1  0.79698478  0.29093154  0.22762121  1
  La  La157  1  0.28819259  0.16112227  0.13262951  1
  La  La158  1  0.63327694  0.91193000  0.19792405  1
  La  La159  1  0.45742108  0.54341767  0.16778534  1
  La  La160  1  0.98325631  0.66307103  0.35346337  1
  La  La161  1  0.47194252  0.79130183  0.26001480  1
  La  La162  1  0.81486919  0.04082702  0.32237397  1
  La  La163  1  0.63994196  0.41204262  0.29020732  1
  La  La164  1  0.97794965  0.35167642  0.30660762  1
  La  La165  1  0.47768404  0.10176332  0.30661314  1
  La  La166  1  0.47822258  0.60119717  0.30659744  1
  La  La167  1  0.97805594  0.85112881  0.30663475  1
  La  La168  1  0.48474334  0.79046185  0.35324796  1
  La  La169  1  0.97433082  0.66184852  0.25997661  1
  La  La170  1  0.31616842  0.41174595  0.32301109  1
  La  La171  1  0.14077155  0.04057265  0.29084599  1
  La  La172  1  0.66756185  0.16130473  0.48048833  1
  La  La173  1  0.15841106  0.29125914  0.38558479  1
  La  La174  1  0.49847569  0.54317788  0.44563628  1
  La  La175  1  0.32252454  0.91194913  0.41525479  1
  La  La176  1  0.66192111  0.85214014  0.43204287  1
  La  La177  1  0.16305201  0.60354356  0.43187431  1
  La  La178  1  0.16115979  0.10091034  0.43137887  1
  La  La179  1  0.66576906  0.35026308  0.43146823  1
  La  La180  1  0.17128386  0.29124190  0.47842994  1
  La  La181  1  0.65970746  0.16072852  0.38590401  1
  La  La182  1  0.99580482  0.91225123  0.44712538  1
  La  La183  1  0.82494648  0.54098413  0.41576346  1
  La  La184  1  0.33093447  0.66744027  0.60165735  1
  La  La185  1  0.84159613  0.79140951  0.51165706  1
  La  La186  1  0.18067641  0.05843996  0.56925545  1
  La  La187  1  0.01410739  0.42089465  0.53832500  1
  La  La188  1  0.34585064  0.34888783  0.55704784  1
  La  La189  1  0.85071741  0.10089859  0.55596885  1
  La  La190  1  0.85809751  0.60697969  0.55713918  1
  La  La191  1  0.36007228  0.84302607  0.55764375  1
  La  La192  1  0.83469178  0.78219464  0.60198935  1
  La  La193  1  0.34221520  0.66345674  0.51132279  1
  La  La194  1  0.65781868  0.41108172  0.56939160  1
  La  La195  1  0.49741010  0.02784858  0.54165280  1
  Zr  Zr196  1  0.69427049  0.48216498  0.11712497  1
  Zr  Zr197  1  0.35932356  0.71330096  0.05303749  1
  Zr  Zr198  1  0.34928981  0.23007000  0.05296727  1
  Zr  Zr199  1  0.70617440  0.97670806  0.11941125  1
  Zr  Zr200  1  0.85977986  0.73624251  0.05303881  1
  Zr  Zr201  1  0.85892557  0.23393554  0.05471651  1
  Zr  Zr202  1  0.19969604  0.47345347  0.11888809  1
  Zr  Zr203  1  0.19932444  0.97401978  0.11659506  1
  Zr  Zr204  1  0.38596835  0.97722809  0.24380703  1
  Zr  Zr205  1  0.04262908  0.22523265  0.18107320  1
  Zr  Zr206  1  0.04366421  0.72611748  0.18089073  1
  Zr  Zr207  1  0.38541557  0.47477380  0.24442286  1
  Zr  Zr208  1  0.54054671  0.22387257  0.18100474  1
  Zr  Zr209  1  0.54250633  0.72842861  0.18111179  1
  Zr  Zr210  1  0.88623090  0.97561637  0.24424613  1
  Zr  Zr211  1  0.88521258  0.47652940  0.24380154  1
  Zr  Zr212  1  0.07196130  0.47687364  0.36950255  1
  Zr  Zr213  1  0.72856754  0.72531418  0.30665159  1
  Zr  Zr214  1  0.72833353  0.22665755  0.30688496  1
  Zr  Zr215  1  0.06902382  0.97553655  0.36902040  1
  Zr  Zr216  1  0.22789034  0.72575148  0.30645762  1
  Zr  Zr217  1  0.22773833  0.22677706  0.30648041  1
  Zr  Zr218  1  0.57019866  0.47521411  0.36880571  1
  Zr  Zr219  1  0.57004892  0.97702193  0.36937812  1
  Zr  Zr220  1  0.75615533  0.97405868  0.49662237  1
  Zr  Zr221  1  0.41475795  0.22407890  0.43212713  1
  Zr  Zr222  1  0.41368781  0.72819117  0.43214245  1
  Zr  Zr223  1  0.75569658  0.47384102  0.49431103  1
  Zr  Zr224  1  0.91274790  0.22542012  0.43204820  1
  Zr  Zr225  1  0.91248923  0.72637488  0.43237760  1
  Zr  Zr226  1  0.24983988  0.97693702  0.49376580  1
  Zr  Zr227  1  0.26090687  0.48227158  0.49614424  1
  Zr  Zr228  1  0.09571548  0.73603094  0.56003727  1
  Zr  Zr229  1  0.09664439  0.23347122  0.55848837  1
  Zr  Zr230  1  0.59621856  0.71347337  0.56023336  1
  Zr  Zr231  1  0.60602687  0.23019823  0.56001359  1
  O  O232  1  0.54668846  0.92933961  0.10442430  1
  O  O233  1  0.39681510  0.32719223  0.07658988  1
  O  O234  1  0.27400862  0.14553028  0.02554858  1
  O  O235  1  0.23171622  0.67396970  0.02295713  1
  O  O236  1  0.47721314  0.76590326  0.08965726  1
  O  O237  1  0.60087387  0.38364606  0.11348879  1
  O  O238  1  0.78123437  0.58077326  0.12076496  1
  O  O239  1  0.24223581  0.30110166  0.02597303  1
  O  O240  1  0.43551857  0.16309064  0.08798570  1
  O  O241  1  0.65381275  0.06852527  0.09310244  1
  O  O242  1  0.20462084  0.88828372  0.00384141  1
  O  O243  1  0.53205934  0.53974539  0.11070442  1
  O  O244  1  0.24205749  0.80129301  0.05634928  1
  O  O245  1  0.49003884  0.63180769  0.05221551  1
  O  O246  1  0.49145150  0.44962426  0.04246939  1
  O  O247  1  0.23418383  0.98730203  0.06604734  1
  O  O248  1  0.29265649  0.51451639  0.07932321  1
  O  O249  1  0.44286267  0.92174095  0.03921770  1
  O  O250  1  0.69430036  0.24210630  0.08320102  1
  O  O251  1  0.01290076  0.23377790  0.02753950  1
  O  O252  1  0.96794328  0.68110978  0.02132370  1
  O  O253  1  0.75224845  0.77739255  0.09179510  1
  O  O254  1  0.73653099  0.47175295  0.06808401  1
  O  O255  1  0.97605528  0.00510547  0.04311346  1
  O  O256  1  0.25234345  0.67346096  0.09206165  1
  O  O257  1  0.46846264  0.76618923  0.02074261  1
  O  O258  1  0.50685096  0.23496024  0.02845465  1
  O  O259  1  0.19432995  0.21581462  0.08424188  1
  O  O260  1  0.95577935  0.51965685  0.03712057  1
  O  O261  1  0.78629133  0.93847476  0.07741268  1
  O  O262  1  0.74168136  0.64980050  0.05693143  1
  O  O263  1  0.98353742  0.82243207  0.05101686  1
  O  O264  1  0.77612979  0.17124067  0.02175364  1
  O  O265  1  0.93965870  0.29447036  0.09332137  1
  O  O266  1  0.56413455  0.08386739  0.02880035  1
  O  O267  1  0.14992078  0.38896720  0.08578354  1
  O  O268  1  0.71666402  0.56043722  0.00388152  1
  O  O269  1  0.04104150  0.91302874  0.11123050  1
  O  O270  1  0.97809308  0.68635677  0.08948656  1
  O  O271  1  0.73290099  0.77561384  0.02252967  1
  O  O272  1  0.82146966  0.33883248  0.03416515  1
  O  O273  1  0.89727887  0.13608317  0.07774641  1
  O  O274  1  0.04181906  0.52298399  0.10487361  1
  O  O275  1  0.28509717  0.87471877  0.11920511  1
  O  O276  1  0.11126163  0.07415535  0.11343263  1
  O  O277  1  0.86519986  0.02367905  0.13627018  1
  O  O278  1  0.22659919  0.42888678  0.22686447  1
  O  O279  1  0.08741836  0.82665767  0.20121343  1
  O  O280  1  0.00107560  0.62503450  0.16090490  1
  O  O281  1  0.92287239  0.18194147  0.14742969  1
  O  O282  1  0.15608119  0.27166474  0.21538893  1
  O  O283  1  0.29967064  0.87678056  0.24082549  1
  O  O284  1  0.47107188  0.07749203  0.24694725  1
  O  O285  1  0.95114098  0.78674243  0.14672938  1
  O  O286  1  0.12873022  0.66451952  0.21703405  1
  O  O287  1  0.75583614  0.88717321  0.14724879  1
  O  O288  1  0.33399664  0.56526188  0.21636568  1
  O  O289  1  0.84681602  0.41983340  0.12807828  1
  O  O290  1  0.22962645  0.03881720  0.23622196  1
  O  O291  1  0.92398478  0.31625425  0.17853775  1
  O  O292  1  0.16054977  0.13832640  0.18175581  1
  O  O293  1  0.16864691  0.96597998  0.16718920  1
  O  O294  1  0.91950189  0.48748559  0.19407247  1
  O  O295  1  0.97109535  0.02139658  0.20362658  1
  O  O296  1  0.11443866  0.42989375  0.15961138  1
  O  O297  1  0.38261741  0.73837726  0.20818870  1
  O  O298  1  0.69819675  0.71693978  0.15335432  1
  O  O299  1  0.65203707  0.18219496  0.14484106  1
  O  O300  1  0.43097919  0.27085165  0.21659169  1
  O  O301  1  0.42189447  0.96608677  0.19418081  1
  O  O302  1  0.66300806  0.48949745  0.16769166  1
  O  O303  1  0.93105414  0.18175292  0.21720252  1
  O  O304  1  0.15009720  0.27283976  0.14550492  1
  O  O305  1  0.19915899  0.73699105  0.15282764  1
  O  O306  1  0.88318052  0.71617557  0.20788221  1
  O  O307  1  0.62179520  0.02118039  0.16059898  1
  O  O308  1  0.46948753  0.43227623  0.20320585  1
  O  O309  1  0.42411825  0.13515211  0.17935696  1
  O  O310  1  0.65451419  0.31589334  0.18275932  1
  O  O311  1  0.44802022  0.66609232  0.14755230  1
  O  O312  1  0.62640177  0.78838848  0.21765684  1
  O  O313  1  0.25270591  0.56221653  0.14713706  1
  O  O314  1  0.83642004  0.88822812  0.21522782  1
  O  O315  1  0.35378670  0.03452994  0.12743233  1
  O  O316  1  0.72999142  0.41432360  0.23508751  1
  O  O317  1  0.65862743  0.17973341  0.21481503  1
  O  O318  1  0.42455424  0.26541448  0.14611489  1
  O  O319  1  0.50126557  0.82850289  0.16086091  1
  O  O320  1  0.58369257  0.62703890  0.20175580  1
  O  O321  1  0.72726385  0.02271493  0.22770901  1
  O  O322  1  0.35477942  0.42144923  0.13650718  1
  O  O323  1  0.97013597  0.37562541  0.24647695  1
  O  O324  1  0.79965582  0.57691951  0.24083764  1
  O  O325  1  0.54567955  0.52154439  0.26040994  1
  O  O326  1  0.91035453  0.92945577  0.35234814  1
  O  O327  1  0.77106391  0.32730156  0.32675089  1
  O  O328  1  0.68688378  0.12593937  0.28639464  1
  O  O329  1  0.61124935  0.67889891  0.27328940  1
  O  O330  1  0.84512774  0.77209623  0.34041919  1
  O  O331  1  0.98679511  0.37575223  0.36682989  1
  O  O332  1  0.15643654  0.57740523  0.37279022  1
  O  O333  1  0.63955746  0.28720273  0.27103784  1
  O  O334  1  0.81549165  0.16518742  0.34232456  1
  O  O335  1  0.43420201  0.38703937  0.27328226  1
  O  O336  1  0.01843729  0.06575949  0.34104988  1
  O  O337  1  0.54044373  0.91545633  0.25266438  1
  O  O338  1  0.91579403  0.53708738  0.35999591  1
  O  O339  1  0.61224055  0.81510074  0.30425649  1
  O  O340  1  0.84599823  0.63671085  0.30870641  1
  O  O341  1  0.85011007  0.46620256  0.29343620  1
  O  O342  1  0.60445964  0.98668500  0.31958806  1
  O  O343  1  0.65310483  0.52081643  0.32808734  1
  O  O344  1  0.80253652  0.93154351  0.28524111  1
  O  O345  1  0.06940875  0.23687635  0.33384505  1
  O  O346  1  0.38569319  0.21635634  0.27917305  1
  O  O347  1  0.33854811  0.68200692  0.27032900  1
  O  O348  1  0.11926319  0.77170381  0.34266408  1
  O  O349  1  0.10496691  0.46692300  0.31976999  1
  O  O350  1  0.34971234  0.98731599  0.29358083  1
  O  O351  1  0.61862230  0.68145506  0.34289170  1
  O  O352  1  0.83796655  0.77081765  0.27055451  1
  O  O353  1  0.88575683  0.23712560  0.27920588  1
  O  O354  1  0.56946807  0.21660827  0.33387840  1
  O  O355  1  0.30240472  0.52129117  0.28495108  1
  O  O356  1  0.15263749  0.93193840  0.32800026  1
  O  O357  1  0.10893041  0.63812796  0.30499127  1
  O  O358  1  0.34386678  0.81616703  0.30887497  1
  O  O359  1  0.13795867  0.16553619  0.27123416  1
  O  O360  1  0.31399574  0.28768292  0.34247860  1
  O  O361  1  0.93676748  0.06593066  0.27231226  1
  O  O362  1  0.52129008  0.38745576  0.33988887  1
  O  O363  1  0.04093530  0.53748205  0.25196694  1
  O  O364  1  0.41497596  0.91582621  0.35959158  1
  O  O365  1  0.34594371  0.67973101  0.33986988  1
  O  O366  1  0.11196012  0.77233789  0.27270515  1
  O  O367  1  0.18510230  0.32731003  0.28644056  1
  O  O368  1  0.26919004  0.12604119  0.32691029  1
  O  O369  1  0.41057453  0.52206882  0.35287425  1
  O  O370  1  0.04563006  0.92976676  0.26099429  1
  O  O371  1  0.65547055  0.87622843  0.37236352  1
  O  O372  1  0.48481121  0.07728962  0.36640670  1
  O  O373  1  0.22901860  0.02269909  0.38530722  1
  O  O374  1  0.60043084  0.42206600  0.47680365  1
  O  O375  1  0.45483959  0.82834521  0.45251495  1
  O  O376  1  0.37235651  0.62697859  0.41158316  1
  O  O377  1  0.29637131  0.17997926  0.39852736  1
  O  O378  1  0.53100918  0.26590665  0.46694854  1
  O  O379  1  0.67060262  0.87472590  0.49407410  1
  O  O380  1  0.84428022  0.07414886  0.49969499  1
  O  O381  1  0.33070452  0.78875680  0.39552063  1
  O  O382  1  0.50785465  0.66625139  0.46585863  1
  O  O383  1  0.11914960  0.88855440  0.39832608  1
  O  O384  1  0.70349353  0.56277274  0.46609116  1
  O  O385  1  0.22671431  0.41481164  0.37815312  1
  O  O386  1  0.60171764  0.03466659  0.48578084  1
  O  O387  1  0.30068452  0.31599395  0.43058157  1
  O  O388  1  0.53059970  0.13500444  0.43403689  1
  O  O389  1  0.53344761  0.96558746  0.41892011  1
  O  O390  1  0.29268317  0.48953577  0.44566697  1
  O  O391  1  0.33397150  0.02111204  0.45249637  1
  O  O392  1  0.48691295  0.43237316  0.41015880  1
  O  O393  1  0.75702132  0.73703554  0.46041138  1
  O  O394  1  0.07286949  0.71690750  0.40523028  1
  O  O395  1  0.02452807  0.18161143  0.39600395  1
  O  O396  1  0.80573174  0.27313225  0.46766428  1
  O  O397  1  0.78684924  0.96616855  0.44602256  1
  O  O398  1  0.03556441  0.48774859  0.41908258  1
  O  O399  1  0.30335714  0.18209081  0.46828174  1
  O  O400  1  0.52422033  0.27109755  0.39652404  1
  O  O401  1  0.57395436  0.73799381  0.40508667  1
  O  O402  1  0.25751375  0.71716392  0.45968381  1
  O  O403  1  0.98462177  0.02152703  0.40973177  1
  O  O404  1  0.84045093  0.43020256  0.45345311  1
  O  O405  1  0.79500053  0.13833139  0.43139815  1
  O  O406  1  0.03113627  0.31643921  0.43471945  1
  O  O407  1  0.82836263  0.66433337  0.39616246  1
  O  O408  1  0.00499247  0.78715589  0.46643126  1
  O  O409  1  0.62203754  0.56466646  0.39733968  1
  O  O410  1  0.20047913  0.88745160  0.46586739  1
  O  O411  1  0.72578815  0.03850058  0.37696664  1
  O  O412  1  0.10836853  0.41971793  0.48507449  1
  O  O413  1  0.03251586  0.18200239  0.46578122  1
  O  O414  1  0.79912294  0.27154069  0.39787550  1
  O  O415  1  0.86785301  0.82677365  0.41204453  1
  O  O416  1  0.95509429  0.62546269  0.45238412  1
  O  O417  1  0.09050964  0.02378254  0.47698072  1
  O  O418  1  0.73019314  0.42903061  0.38581133  1
  O  O419  1  0.35451769  0.38363168  0.49975726  1
  O  O420  1  0.17438376  0.58077130  0.49244823  1
  O  O421  1  0.91411813  0.52271840  0.50828730  1
  O  O422  1  0.13352872  0.33789476  0.57931839  1
  O  O423  1  0.05850200  0.13563634  0.53541644  1
  O  O424  1  0.97743001  0.68628677  0.52369593  1
  O  O425  1  0.22241899  0.77557769  0.59061806  1
  O  O426  1  0.01560159  0.29433224  0.52009040  1
  O  O427  1  0.17829249  0.17062503  0.59157138  1
  O  O428  1  0.80541224  0.38941290  0.52740561  1
  O  O429  1  0.39144832  0.08416641  0.58432407  1
  O  O430  1  0.91445430  0.91308091  0.50195529  1
  O  O431  1  0.23805778  0.56024684  0.60922315  1
  O  O432  1  0.97185355  0.82232405  0.56208064  1
  O  O433  1  0.21406032  0.64979409  0.55618026  1
  O  O434  1  0.21846197  0.47126299  0.54524426  1
  O  O435  1  0.97966292  0.00491725  0.57000554  1
  O  O436  1  0.99895352  0.51940402  0.57614226  1
  O  O437  1  0.16941983  0.93834653  0.53563814  1
  O  O438  1  0.44851266  0.23494377  0.58458637  1
  O  O439  1  0.76139494  0.21576603  0.52885225  1
  O  O440  1  0.70326893  0.67377254  0.52117451  1
  O  O441  1  0.48701691  0.76630422  0.59252084  1
  O  O442  1  0.46409387  0.44965875  0.57039920  1
  O  O443  1  0.72141336  0.98720681  0.54713725  1
  O  O444  1  0.98783342  0.68096380  0.59187609  1
  O  O445  1  0.20340627  0.77732912  0.52128288  1
  O  O446  1  0.26099490  0.24178269  0.53001055  1
  O  O447  1  0.94203399  0.23208006  0.58563845  1
  O  O448  1  0.66316514  0.51500065  0.53394574  1
  O  O449  1  0.51243013  0.92172412  0.57397232  1
  O  O450  1  0.46529485  0.63214710  0.56101620  1
  O  O451  1  0.71371597  0.80132521  0.55686174  1
  O  O452  1  0.52013755  0.16325311  0.52501160  1
  O  O453  1  0.71353720  0.30090483  0.58709427  1
  O  O454  1  0.30206521  0.06841993  0.52020096  1
  O  O455  1  0.42306320  0.53976355  0.50269652  1
  O  O456  1  0.75080767  0.88837918  0.60929651  1
  O  O457  1  0.72396294  0.67401936  0.59025284  1
  O  O458  1  0.47865227  0.76609281  0.52365036  1
  O  O459  1  0.55873858  0.32741179  0.53660535  1
  O  O460  1  0.68096934  0.14551899  0.58745493  1
  O  O461  1  0.40931220  0.92955776  0.50877088  1
