# generated using pymatgen
data_Li37La15Zr10O61
_symmetry_space_group_name_H-M   'P 1'
_cell_length_a   11.27162600
_cell_length_b   11.27162572
_cell_length_c   45.65416700
_cell_angle_alpha   90.00000000
_cell_angle_beta   90.00000000
_cell_angle_gamma   108.34782046
_symmetry_Int_Tables_number   1
_chemical_formula_structural   Li37La15Zr10O61
_chemical_formula_sum   'Li74 La30 Zr20 O122'
_cell_volume   5505.46986988
_cell_formula_units_Z   2
loop_
 _symmetry_equiv_pos_site_id
 _symmetry_equiv_pos_as_xyz
  1  'x, y, z'
loop_
 _atom_site_type_symbol
 _atom_site_label
 _atom_site_symmetry_multiplicity
 _atom_site_fract_x
 _atom_site_fract_y
 _atom_site_fract_z
 _atom_site_occupancy
  Li  Li0  1  0.73199639  0.77721169  0.00173897  1
  Li  Li1  1  0.97832376  0.88597991  0.11439717  1
  Li  Li2  1  0.56960849  0.95343340  0.02050969  1
  Li  Li3  1  0.12771334  0.76089360  0.10380087  1
  Li  Li4  1  0.52965360  0.33864110  0.13876778  1
  Li  Li5  1  0.64357807  0.90311754  0.17950919  1
  Li  Li6  1  0.56136716  0.30276685  0.08271790  1
  Li  Li7  1  0.13148247  0.41977760  0.04659834  1
  Li  Li8  1  0.10772624  0.22039896  0.02322315  1
  Li  Li9  1  0.54091517  0.50701890  0.09882527  1
  Li  Li10  1  0.42194579  0.91907708  0.19611273  1
  Li  Li11  1  0.73723426  0.31936376  0.11571768  1
  Li  Li12  1  0.17292737  0.88833167  0.15323978  1
  Li  Li13  1  0.99873431  0.35062208  0.16766469  1
  Li  Li14  1  0.13859792  0.94373998  0.06962071  1
  Li  Li15  1  0.58043029  0.76929338  0.04734967  1
  Li  Li16  1  0.05539282  0.92865728  0.01711171  1
  Li  Li17  1  0.63171166  0.75219724  0.10158743  1
  Li  Li18  1  0.84899931  0.10994465  0.02961886  1
  Li  Li19  1  0.98024958  0.39402906  0.11291876  1
  Li  Li20  1  0.30541404  0.07247309  0.18254201  1
  Li  Li21  1  0.86144766  0.17102637  0.13647501  1
  Li  Li22  1  0.31761871  0.07300490  0.03849154  1
  Li  Li23  1  0.40723129  0.63644227  0.08235198  1
  Li  Li24  1  0.39433197  0.30975988  0.18450190  1
  Li  Li25  1  0.77655615  0.92718604  0.13289598  1
  Li  Li26  1  0.56234553  0.18663050  0.03354441  1
  Li  Li27  1  0.16093136  0.55314859  0.08516459  1
  Li  Li28  1  0.18756831  0.34471684  0.20363872  1
  Li  Li29  1  0.44948857  0.41159035  0.31512210  1
  Li  Li30  1  0.05156576  0.48841361  0.21554194  1
  Li  Li31  1  0.59471618  0.26232952  0.30361661  1
  Li  Li32  1  0.01011965  0.86054587  0.33776180  1
  Li  Li33  1  0.12037287  0.42096251  0.37966267  1
  Li  Li34  1  0.04741341  0.82673196  0.28260577  1
  Li  Li35  1  0.60312122  0.93598290  0.23691222  1
  Li  Li36  1  0.61874282  0.73034976  0.21711214  1
  Li  Li37  1  0.01793619  0.04107800  0.29702172  1
  Li  Li38  1  0.91369758  0.43763472  0.40321403  1
  Li  Li39  1  0.23190897  0.83777933  0.32360424  1
  Li  Li40  1  0.63738674  0.41559503  0.34674145  1
  Li  Li41  1  0.47334863  0.86934092  0.36451801  1
  Li  Li42  1  0.60439240  0.45461120  0.27269131  1
  Li  Li43  1  0.05349853  0.29167208  0.25163320  1
  Li  Li44  1  0.55187026  0.48532588  0.21465260  1
  Li  Li45  1  0.09894887  0.27659631  0.30588121  1
  Li  Li46  1  0.18349651  0.83705887  0.20593763  1
  Li  Li47  1  0.46678997  0.92040733  0.31239679  1
  Li  Li48  1  0.78528442  0.58182708  0.38202955  1
  Li  Li49  1  0.34293042  0.68259608  0.33602931  1
  Li  Li50  1  0.76980695  0.60014240  0.23662189  1
  Li  Li51  1  0.86865719  0.15834117  0.28221380  1
  Li  Li52  1  0.87355579  0.82927485  0.38542883  1
  Li  Li53  1  0.25393447  0.44867401  0.33444265  1
  Li  Li54  1  0.01286010  0.68881910  0.23484887  1
  Li  Li55  1  0.63498113  0.06903060  0.28385401  1
  Li  Li56  1  0.67055148  0.87011661  0.40417367  1
  Li  Li57  1  0.91651975  0.97927897  0.51685140  1
  Li  Li58  1  0.52054618  0.99592823  0.41463506  1
  Li  Li59  1  0.07913405  0.80393773  0.49841404  1
  Li  Li60  1  0.51591076  0.33624662  0.47251657  1
  Li  Li61  1  0.08733689  0.45716881  0.43636306  1
  Li  Li62  1  0.10184484  0.25547613  0.41896201  1
  Li  Li63  1  0.54192087  0.53816269  0.49523287  1
  Li  Li64  1  0.06843955  0.98885833  0.47157037  1
  Li  Li65  1  0.50985163  0.81493402  0.44934182  1
  Li  Li66  1  0.01786612  0.00804021  0.41740977  1
  Li  Li67  1  0.59368902  0.82880482  0.50159676  1
  Li  Li68  1  0.66777001  0.36424106  0.40486787  1
  Li  Li69  1  0.80003169  0.64837523  0.48894138  1
  Li  Li70  1  0.24031268  0.12288915  0.43672644  1
  Li  Li71  1  0.33134113  0.68430353  0.48057410  1
  Li  Li72  1  0.48733341  0.20446688  0.43355850  1
  Li  Li73  1  0.08548850  0.57135275  0.48556659  1
  La  La74  1  0.83869942  0.60717224  0.10817035  1
  La  La75  1  0.33058668  0.11187264  0.11254188  1
  La  La76  1  0.38169036  0.59272901  0.01086462  1
  La  La77  1  0.89496755  0.80862509  0.18428262  1
  La  La78  1  0.27445640  0.42643081  0.13443813  1
  La  La79  1  0.02345541  0.66542540  0.03785459  1
  La  La80  1  0.65339160  0.04459536  0.08318901  1
  La  La81  1  0.65691872  0.51753376  0.03477903  1
  La  La82  1  0.02972192  0.16745080  0.08482385  1
  La  La83  1  0.77140024  0.43245154  0.18324323  1
  La  La84  1  0.40291221  0.80687079  0.13270263  1
  La  La85  1  0.33369459  0.62714511  0.20880248  1
  La  La86  1  0.31136757  0.12892525  0.31013268  1
  La  La87  1  0.81863289  0.63243834  0.30924610  1
  La  La88  1  0.83269004  0.12911537  0.20985063  1
  La  La89  1  0.37250355  0.33073521  0.38462729  1
  La  La90  1  0.75342990  0.94931857  0.33462871  1
  La  La91  1  0.51307930  0.18871705  0.23435800  1
  La  La92  1  0.13527166  0.56994462  0.28451169  1
  La  La93  1  0.13724789  0.06370097  0.23526018  1
  La  La94  1  0.51240711  0.69210043  0.28295571  1
  La  La95  1  0.24558044  0.95176282  0.38638722  1
  La  La96  1  0.87464922  0.32598440  0.33596066  1
  La  La97  1  0.80844626  0.14992811  0.41065429  1
  La  La98  1  0.26654841  0.16522567  0.50836723  1
  La  La99  1  0.31854868  0.64650315  0.40647949  1
  La  La100  1  0.99526537  0.71377713  0.43561547  1
  La  La101  1  0.62528238  0.09209275  0.48094170  1
  La  La102  1  0.61885681  0.58942078  0.43383671  1
  La  La103  1  0.99179082  0.24012209  0.48410085  1
  Zr  Zr104  1  0.58715422  0.61957472  0.15834812  1
  Zr  Zr105  1  0.85103253  0.35134665  0.05635045  1
  Zr  Zr106  1  0.07973767  0.11639251  0.16015978  1
  Zr  Zr107  1  0.34574278  0.84680341  0.05319229  1
  Zr  Zr108  1  0.85242047  0.86751087  0.05520582  1
  Zr  Zr109  1  0.08758669  0.62114185  0.15901675  1
  Zr  Zr110  1  0.58634523  0.11852242  0.15903620  1
  Zr  Zr111  1  0.34286725  0.34680665  0.05932126  1
  Zr  Zr112  1  0.06064240  0.13787694  0.36049741  1
  Zr  Zr113  1  0.32489803  0.87883316  0.25927373  1
  Zr  Zr114  1  0.56793420  0.64069704  0.35857790  1
  Zr  Zr115  1  0.82471422  0.37974082  0.25938320  1
  Zr  Zr116  1  0.32428875  0.37894900  0.25924114  1
  Zr  Zr117  1  0.56026771  0.13676205  0.35974828  1
  Zr  Zr118  1  0.06335441  0.64102080  0.35984892  1
  Zr  Zr119  1  0.82379907  0.87872955  0.25937324  1
  Zr  Zr120  1  0.79716615  0.40567878  0.46211336  1
  Zr  Zr121  1  0.30297166  0.91132310  0.46587840  1
  Zr  Zr122  1  0.79608252  0.88986731  0.46339558  1
  Zr  Zr123  1  0.30533771  0.41082178  0.45971882  1
  O  O124  1  0.23424823  0.65020222  0.04974410  1
  O  O125  1  0.46677329  0.02881417  0.04751537  1
  O  O126  1  0.88970342  0.01415588  0.16308172  1
  O  O127  1  0.27372074  0.21616212  0.15631573  1
  O  O128  1  0.98607540  0.51427545  0.07771942  1
  O  O129  1  0.72172942  0.18728892  0.04205639  1
  O  O130  1  0.74716479  0.75161727  0.13932858  1
  O  O131  1  0.42920572  0.48418820  0.17631558  1
  O  O132  1  0.58834329  0.63164304  0.00142069  1
  O  O133  1  0.10737127  0.03688947  0.11942559  1
  O  O134  1  0.44495571  0.79988846  0.01968501  1
  O  O135  1  0.27878365  0.89173339  0.09560789  1
  O  O136  1  0.66359616  0.48691037  0.13965961  1
  O  O137  1  0.51278480  0.75024986  0.17822936  1
  O  O138  1  0.71936102  0.42411634  0.08059485  1
  O  O139  1  0.98721447  0.28032879  0.04145011  1
  O  O140  1  0.25117150  0.37615764  0.02230364  1
  O  O141  1  0.42092893  0.34471599  0.10334065  1
  O  O142  1  0.57064965  0.18990074  0.11597422  1
  O  O143  1  0.02313974  0.75809949  0.13907357  1
  O  O144  1  0.15298952  0.48238421  0.17887145  1
  O  O145  1  0.98870192  0.79177249  0.07776573  1
  O  O146  1  0.71476203  0.91754593  0.03401708  1
  O  O147  1  0.69705327  0.62093784  0.19656001  1
  O  O148  1  0.47960428  0.62010722  0.12065891  1
  O  O149  1  0.85361779  0.48482085  0.02514623  1
  O  O150  1  0.84874326  0.24415792  0.09668497  1
  O  O151  1  0.11858714  0.97027372  0.18405281  1
  O  O152  1  0.04681433  0.26342218  0.13644501  1
  O  O153  1  0.20016760  0.89485485  0.03346553  1
  O  O154  1  0.49598397  0.81936665  0.08189610  1
  O  O155  1  0.99158594  0.03237430  0.04063752  1
  O  O156  1  0.71827573  0.69481015  0.07042514  1
  O  O157  1  0.24780515  0.76122824  0.17551681  1
  O  O158  1  0.92819287  0.47961313  0.14337164  1
  O  O159  1  0.39303726  0.00593473  0.15469369  1
  O  O160  1  0.77403037  0.22829257  0.16487767  1
  O  O161  1  0.24271975  0.15674601  0.06538131  1
  O  O162  1  0.45681631  0.53935017  0.05538581  1
  O  O163  1  0.89928499  0.78280644  0.01788111  1
  O  O164  1  0.83699932  0.97123471  0.09286486  1
  O  O165  1  0.97353342  0.62814441  0.19525758  1
  O  O166  1  0.20723778  0.62216017  0.12267362  1
  O  O167  1  0.54512467  0.26594282  0.18075997  1
  O  O168  1  0.62492322  0.97091498  0.13664217  1
  O  O169  1  0.49845969  0.31338418  0.04207843  1
  O  O170  1  0.19779270  0.39154064  0.08458743  1
  O  O171  1  0.72322272  0.18728769  0.25522706  1
  O  O172  1  0.92778269  0.57064533  0.26393483  1
  O  O173  1  0.37400094  0.54087501  0.36254662  1
  O  O174  1  0.75810292  0.74344029  0.35526697  1
  O  O175  1  0.46105412  0.03751647  0.27675004  1
  O  O176  1  0.18876302  0.72046953  0.24157161  1
  O  O177  1  0.21764290  0.27413464  0.34205787  1
  O  O178  1  0.90113311  0.00558868  0.37930559  1
  O  O179  1  0.05695456  0.19448591  0.20096419  1
  O  O180  1  0.59043435  0.55622565  0.31843261  1
  O  O181  1  0.90165490  0.35609569  0.21833218  1
  O  O182  1  0.74059837  0.40266102  0.29987016  1
  O  O183  1  0.14077145  0.00949363  0.34185896  1
  O  O184  1  0.98617489  0.27194595  0.37945112  1
  O  O185  1  0.19501681  0.95819453  0.27839911  1
  O  O186  1  0.45554837  0.80138350  0.23976255  1
  O  O187  1  0.74520475  0.89126877  0.21759630  1
  O  O188  1  0.90518491  0.87040217  0.30123096  1
  O  O189  1  0.59334133  0.03916303  0.20054866  1
  O  O190  1  0.05734531  0.72149424  0.31826070  1
  O  O191  1  0.49178625  0.27295828  0.33985634  1
  O  O192  1  0.62427668  0.99794393  0.37924388  1
  O  O193  1  0.45934323  0.30988265  0.27921930  1
  O  O194  1  0.18542831  0.44530607  0.23988915  1
  O  O195  1  0.16831537  0.14016885  0.39842920  1
  O  O196  1  0.94926327  0.13847875  0.32272051  1
  O  O197  1  0.32343541  0.98946894  0.22171064  1
  O  O198  1  0.32580358  0.76773414  0.29671097  1
  O  O199  1  0.60099299  0.49274163  0.38193812  1
  O  O200  1  0.52953652  0.78543022  0.33428488  1
  O  O201  1  0.67666264  0.41634006  0.23574744  1
  O  O202  1  0.96933005  0.34210928  0.28390618  1
  O  O203  1  0.45982335  0.54058801  0.24253225  1
  O  O204  1  0.18216968  0.21946529  0.27577821  1
  O  O205  1  0.72130958  0.27422557  0.37570033  1
  O  O206  1  0.40120055  0.99547934  0.34289217  1
  O  O207  1  0.87628102  0.53071220  0.35357805  1
  O  O208  1  0.25711393  0.75253138  0.36396601  1
  O  O209  1  0.71612976  0.68913198  0.26526111  1
  O  O210  1  0.93472958  0.06926895  0.25543285  1
  O  O211  1  0.33009217  0.26355430  0.22317120  1
  O  O212  1  0.31952199  0.49300285  0.29582929  1
  O  O213  1  0.44097663  0.13513889  0.39609860  1
  O  O214  1  0.67390304  0.13133204  0.32318067  1
  O  O215  1  0.02524603  0.78770574  0.38232531  1
  O  O216  1  0.10470268  0.49358194  0.33791742  1
  O  O217  1  0.97114809  0.84075599  0.23670203  1
  O  O218  1  0.67661494  0.91763985  0.28184244  1
  O  O219  1  0.18163590  0.72919626  0.47152182  1
  O  O220  1  0.41509148  0.10797270  0.46940204  1
  O  O221  1  0.92641169  0.57019534  0.47640244  1
  O  O222  1  0.66258879  0.24232763  0.44091472  1
  O  O223  1  0.54144166  0.71926730  0.39933268  1
  O  O224  1  0.05965047  0.12594079  0.51760108  1
  O  O225  1  0.36991054  0.86588580  0.42352111  1
  O  O226  1  0.20353905  0.95792789  0.49937116  1
  O  O227  1  0.66092559  0.47626510  0.47703199  1
  O  O228  1  0.93029561  0.33326133  0.43816541  1
  O  O229  1  0.22748307  0.41443558  0.41565008  1
  O  O230  1  0.39747210  0.38211027  0.49672667  1
  O  O231  1  0.07858300  0.56878010  0.40277983  1
  O  O232  1  0.93378598  0.83968648  0.48467892  1
  O  O233  1  0.65967647  0.96521063  0.44084518  1
  O  O234  1  0.79963775  0.51225144  0.42175172  1
  O  O235  1  0.79493484  0.27295113  0.49350001  1
  O  O236  1  0.15314720  0.93953269  0.43706013  1
  O  O237  1  0.44858259  0.86288201  0.48550869  1
  O  O238  1  0.92988365  0.06258624  0.44845883  1
  O  O239  1  0.65716613  0.72461243  0.47803134  1
  O  O240  1  0.19200024  0.21860071  0.46412984  1
  O  O241  1  0.40624894  0.60077424  0.45353010  1
  O  O242  1  0.81145382  0.78584517  0.42575296  1
  O  O243  1  0.74925269  0.97414817  0.50079405  1
  O  O244  1  0.44942431  0.36500335  0.43423581  1
  O  O245  1  0.15010195  0.44501293  0.47693031  1
