# generated using pymatgen
data_Li40La18Zr10O67
_symmetry_space_group_name_H-M   'P 1'
_cell_length_a   11.29297700
_cell_length_b   11.29297737
_cell_length_c   40.01105500
_cell_angle_alpha   90.00000000
_cell_angle_beta   90.00000000
_cell_angle_gamma   111.54263211
_symmetry_Int_Tables_number   1
_chemical_formula_structural   Li40La18Zr10O67
_chemical_formula_sum   'Li80 La36 Zr20 O134'
_cell_volume   4746.21466431
_cell_formula_units_Z   2
loop_
 _symmetry_equiv_pos_site_id
 _symmetry_equiv_pos_as_xyz
  1  'x, y, z'
loop_
 _atom_site_type_symbol
 _atom_site_label
 _atom_site_symmetry_multiplicity
 _atom_site_fract_x
 _atom_site_fract_y
 _atom_site_fract_z
 _atom_site_occupancy
  Li  Li0  1  0.26552608  0.51422340  0.11171872  1
  Li  Li1  1  0.71331434  0.99536768  0.10908597  1
  Li  Li2  1  0.85371279  0.46917602  0.10165224  1
  Li  Li3  1  0.92487781  0.94564172  0.12733626  1
  Li  Li4  1  0.05666345  0.56314929  0.12625874  1
  Li  Li5  1  0.99968064  0.76019794  0.14493635  1
  Li  Li6  1  0.36807958  0.52342397  0.16684800  1
  Li  Li7  1  0.14857868  0.97642442  0.17176271  1
  Li  Li8  1  0.62348425  0.96520565  0.16935217  1
  Li  Li9  1  0.86307440  0.52561474  0.16504585  1
  Li  Li10  1  0.48206169  0.73231148  0.19621694  1
  Li  Li11  1  0.56280912  0.55292020  0.20759755  1
  Li  Li12  1  0.44327330  0.95406452  0.20416980  1
  Li  Li13  1  0.31006318  0.41777291  0.22469633  1
  Li  Li14  1  0.25331557  0.00211945  0.22693032  1
  Li  Li15  1  0.75486677  0.50144853  0.22189163  1
  Li  Li16  1  0.69685728  0.09157231  0.22220399  1
  Li  Li17  1  0.20067776  0.19316504  0.24418006  1
  Li  Li18  1  0.80937022  0.31337496  0.24220454  1
  Li  Li19  1  0.00035560  0.24747328  0.26000588  1
  Li  Li20  1  0.77346720  0.60684593  0.27854890  1
  Li  Li21  1  0.22338373  0.39283353  0.28477973  1
  Li  Li22  1  0.21879191  0.88546233  0.28534959  1
  Li  Li23  1  0.77906428  0.11532986  0.28422906  1
  Li  Li24  1  0.97781410  0.73208137  0.30902968  1
  Li  Li25  1  0.80575756  0.81403786  0.32243578  1
  Li  Li26  1  0.19652923  0.69675286  0.32302710  1
  Li  Li27  1  0.69288104  0.58348026  0.34014096  1
  Li  Li28  1  0.75416631  0.00295390  0.34085618  1
  Li  Li29  1  0.25282061  0.50264149  0.34227601  1
  Li  Li30  1  0.34184135  0.94745501  0.34239564  1
  Li  Li31  1  0.45041829  0.44596982  0.36011581  1
  Li  Li32  1  0.56988427  0.05529775  0.36052852  1
  Li  Li33  1  0.48851008  0.23024890  0.37510049  1
  Li  Li34  1  0.86118489  0.02463520  0.39662752  1
  Li  Li35  1  0.63966808  0.46960729  0.39882947  1
  Li  Li36  1  0.14051294  0.47005771  0.40144827  1
  Li  Li37  1  0.36090277  0.02380847  0.40323861  1
  Li  Li38  1  0.98870843  0.23217780  0.42487125  1
  Li  Li39  1  0.06905387  0.05594041  0.43901557  1
  Li  Li40  1  0.95045382  0.44688683  0.43991875  1
  Li  Li41  1  0.84282475  0.94781508  0.45754950  1
  Li  Li42  1  0.75207576  0.50168250  0.45781599  1
  Li  Li43  1  0.25326353  0.00249370  0.45910122  1
  Li  Li44  1  0.19467236  0.58514549  0.46069119  1
  Li  Li45  1  0.69589749  0.69579708  0.47649970  1
  Li  Li46  1  0.30721396  0.81629969  0.47752136  1
  Li  Li47  1  0.47653120  0.73178023  0.49104080  1
  Li  Li48  1  0.27823087  0.11504089  0.51586283  1
  Li  Li49  1  0.71777461  0.88403087  0.51436232  1
  Li  Li50  1  0.72361254  0.39330663  0.51541179  1
  Li  Li51  1  0.27216395  0.60628932  0.52174898  1
  Li  Li52  1  0.49940853  0.24730558  0.54000976  1
  Li  Li53  1  0.30885694  0.31252135  0.55762751  1
  Li  Li54  1  0.69965328  0.19275186  0.55582475  1
  Li  Li55  1  0.19648741  0.09046795  0.57789795  1
  Li  Li56  1  0.25411840  0.50038486  0.57800301  1
  Li  Li57  1  0.75290127  0.00258064  0.57291390  1
  Li  Li58  1  0.81101502  0.41839753  0.57526287  1
  Li  Li59  1  0.94225786  0.95361222  0.59567060  1
  Li  Li60  1  0.06198355  0.55276881  0.59249552  1
  Li  Li61  1  0.98133480  0.73202045  0.60346526  1
  Li  Li62  1  0.36125950  0.52449397  0.63480114  1
  Li  Li63  1  0.12171518  0.96426684  0.63044252  1
  Li  Li64  1  0.64840509  0.97662572  0.62826105  1
  Li  Li65  1  0.86783766  0.52362344  0.63263389  1
  Li  Li66  1  0.49936628  0.75973644  0.65502917  1
  Li  Li67  1  0.55532499  0.56296426  0.67337763  1
  Li  Li68  1  0.42498646  0.94521283  0.67251722  1
  Li  Li69  1  0.35374559  0.46846512  0.69836052  1
  Li  Li70  1  0.21362254  0.99497826  0.69071845  1
  Li  Li71  1  0.76573339  0.51450844  0.68786970  1
  Li  Li72  1  0.64795189  0.01686389  0.68824325  1
  Li  Li73  1  0.82623298  0.34965531  0.70677087  1
  Li  Li74  1  0.72482351  0.13828562  0.73939836  1
  Li  Li75  1  0.14600122  0.30904508  0.72252037  1
  Li  Li76  1  0.64651882  0.31022875  0.07752702  1
  Li  Li77  1  0.22639724  0.13922145  0.06161319  1
  Li  Li78  1  0.32670266  0.35043168  0.09312912  1
  Li  Li79  1  0.14859563  0.01622037  0.11232919  1
  La  La80  1  0.82195412  0.69727912  0.08457153  1
  La  La81  1  0.17283519  0.80478846  0.08342500  1
  La  La82  1  0.49683091  0.74618079  0.11644537  1
  La  La83  1  0.02501491  0.25120552  0.11245658  1
  La  La84  1  0.57473539  0.44350297  0.13357153  1
  La  La85  1  0.43440325  0.06318312  0.12552774  1
  La  La86  1  0.94510253  0.06953224  0.19756800  1
  La  La87  1  0.06397154  0.43682963  0.19659120  1
  La  La88  1  0.99984380  0.75304656  0.22665618  1
  La  La89  1  0.50748134  0.25183282  0.22247650  1
  La  La90  1  0.68651033  0.82275577  0.25422064  1
  La  La91  1  0.31349411  0.68661449  0.25481108  1
  La  La92  1  0.31850827  0.19133424  0.31249276  1
  La  La93  1  0.68858613  0.31616307  0.31344654  1
  La  La94  1  0.00482777  0.25194919  0.34221216  1
  La  La95  1  0.50241993  0.75131952  0.34154881  1
  La  La96  1  0.07010317  0.93638760  0.36974419  1
  La  La97  1  0.94041200  0.56386712  0.37096493  1
  La  La98  1  0.44012196  0.56390627  0.42899754  1
  La  La99  1  0.57025278  0.93650847  0.43020684  1
  La  La100  1  0.50421017  0.25151462  0.45780910  1
  La  La101  1  0.00237558  0.75113562  0.45846141  1
  La  La102  1  0.18806835  0.31581831  0.48651529  1
  La  La103  1  0.81817015  0.19116533  0.48750362  1
  La  La104  1  0.81282529  0.68632595  0.54502034  1
  La  La105  1  0.18615920  0.82256382  0.54573145  1
  La  La106  1  0.49942588  0.75291054  0.57334654  1
  La  La107  1  0.00726342  0.25136126  0.57754786  1
  La  La108  1  0.56338631  0.43655370  0.60329718  1
  La  La109  1  0.44472656  0.06938550  0.60246286  1
  La  La110  1  0.93363130  0.06292956  0.67448171  1
  La  La111  1  0.07429097  0.44307717  0.66647680  1
  La  La112  1  0.99646019  0.74598369  0.68343911  1
  La  La113  1  0.52498187  0.25112801  0.68756117  1
  La  La114  1  0.67239267  0.80440891  0.71646272  1
  La  La115  1  0.32136627  0.69656080  0.71532554  1
  Zr  Zr116  1  0.75292417  0.75803038  0.16991640  1
  Zr  Zr117  1  0.26384586  0.25084464  0.16641995  1
  Zr  Zr118  1  0.75035786  0.24691052  0.16005656  1
  Zr  Zr119  1  0.24560276  0.75040959  0.16859962  1
  Zr  Zr120  1  0.00421529  0.00391945  0.28422706  1
  Zr  Zr121  1  0.50119279  0.50331328  0.28207426  1
  Zr  Zr122  1  0.50171107  0.00381343  0.28217751  1
  Zr  Zr123  1  0.00030874  0.50032585  0.28354133  1
  Zr  Zr124  1  0.25483369  0.25143736  0.39987541  1
  Zr  Zr125  1  0.75403055  0.75061201  0.39948027  1
  Zr  Zr126  1  0.25396102  0.75043534  0.40056373  1
  Zr  Zr127  1  0.75464365  0.25161584  0.40010689  1
  Zr  Zr128  1  0.49963242  0.50027264  0.51639112  1
  Zr  Zr129  1  0.00138896  0.00353468  0.51779544  1
  Zr  Zr130  1  0.00065186  0.50281316  0.51794348  1
  Zr  Zr131  1  0.50408910  0.00410780  0.51583349  1
  Zr  Zr132  1  0.74514752  0.75029544  0.63127214  1
  Zr  Zr133  1  0.24996444  0.24633830  0.63993010  1
  Zr  Zr134  1  0.76347068  0.25071802  0.63350900  1
  Zr  Zr135  1  0.25242854  0.75772478  0.63002037  1
  O  O136  1  0.73476048  0.83357926  0.12027971  1
  O  O137  1  0.25285430  0.67165226  0.11909833  1
  O  O138  1  0.38019025  0.25801390  0.12598172  1
  O  O139  1  0.63452570  0.24537086  0.11974348  1
  O  O140  1  0.20216289  0.88459346  0.13972063  1
  O  O141  1  0.80304849  0.63119633  0.14017465  1
  O  O142  1  0.09433037  0.10941587  0.14581348  1
  O  O143  1  0.18929746  0.38936082  0.14529662  1
  O  O144  1  0.82504264  0.11371564  0.13940079  1
  O  O145  1  0.91665839  0.39521576  0.13881080  1
  O  O146  1  0.55909781  0.64728830  0.16623091  1
  O  O147  1  0.44262082  0.85050890  0.16507945  1
  O  O148  1  0.95115850  0.86767611  0.17437229  1
  O  O149  1  0.04883905  0.63770351  0.17217099  1
  O  O150  1  0.41940763  0.39333568  0.18903954  1
  O  O151  1  0.31544384  0.11469926  0.18931625  1
  O  O152  1  0.69598058  0.38882263  0.18337626  1
  O  O153  1  0.59259494  0.11190876  0.18522428  1
  O  O154  1  0.28566558  0.60699353  0.19553908  1
  O  O155  1  0.72444727  0.90655248  0.19685809  1
  O  O156  1  0.14295441  0.26468844  0.20794054  1
  O  O157  1  0.86566499  0.24371747  0.20417863  1
  O  O158  1  0.76482443  0.67503417  0.21565786  1
  O  O159  1  0.23175890  0.83073351  0.21444129  1
  O  O160  1  0.08567116  0.99366797  0.23746816  1
  O  O161  1  0.91925484  0.51173235  0.23674398  1
  O  O162  1  0.49450273  0.62419452  0.24192747  1
  O  O163  1  0.50243016  0.88574659  0.24183798  1
  O  O164  1  0.14245458  0.46710164  0.25473251  1
  O  O165  1  0.86765982  0.04742729  0.25553540  1
  O  O166  1  0.35593277  0.34072970  0.26286192  1
  O  O167  1  0.63362108  0.43993071  0.25799843  1
  O  O168  1  0.37149226  0.07549199  0.26157286  1
  O  O169  1  0.64699379  0.16697339  0.26116096  1
  O  O170  1  0.89359472  0.80734032  0.27873474  1
  O  O171  1  0.10660269  0.69978558  0.28000993  1
  O  O172  1  0.11134913  0.20268400  0.28918905  1
  O  O173  1  0.89207547  0.30389058  0.28795051  1
  O  O174  1  0.64489535  0.66764715  0.30337378  1
  O  O175  1  0.36629451  0.56990219  0.30475482  1
  O  O176  1  0.63871240  0.93854155  0.30405773  1
  O  O177  1  0.35905834  0.84135765  0.30472565  1
  O  O178  1  0.85728824  0.53934610  0.31111567  1
  O  O179  1  0.14943039  0.97466452  0.31276157  1
  O  O180  1  0.51353276  0.38827082  0.32288404  1
  O  O181  1  0.49567007  0.11560382  0.32523586  1
  O  O182  1  0.92297924  0.01273134  0.33129556  1
  O  O183  1  0.08099691  0.48778046  0.33060498  1
  O  O184  1  0.24315282  0.33282851  0.35315072  1
  O  O185  1  0.76555445  0.17096217  0.35281227  1
  O  O186  1  0.86678104  0.74064139  0.35750505  1
  O  O187  1  0.13552945  0.75588976  0.36014931  1
  O  O188  1  0.72477661  0.39498925  0.37095336  1
  O  O189  1  0.29494390  0.11000140  0.37200873  1
  O  O190  1  0.59124071  0.60689434  0.37809055  1
  O  O191  1  0.68854881  0.88625171  0.37739772  1
  O  O192  1  0.32206732  0.61783292  0.37865662  1
  O  O193  1  0.41791969  0.89387285  0.37985107  1
  O  O194  1  0.05802188  0.14166372  0.39488525  1
  O  O195  1  0.95409675  0.35782271  0.39609481  1
  O  O196  1  0.45405162  0.35705632  0.40388272  1
  O  O197  1  0.55820790  0.14121657  0.40504414  1
  O  O198  1  0.91804169  0.89417620  0.42006435  1
  O  O199  1  0.82190996  0.61810300  0.42155791  1
  O  O200  1  0.18866630  0.88622601  0.42251592  1
  O  O201  1  0.09157135  0.60718667  0.42211711  1
  O  O202  1  0.79510410  0.11035250  0.42792319  1
  O  O203  1  0.22479823  0.39444968  0.42909749  1
  O  O204  1  0.63531603  0.75602589  0.43974924  1
  O  O205  1  0.36690744  0.74093327  0.44260299  1
  O  O206  1  0.26507868  0.17038389  0.44706275  1
  O  O207  1  0.74248622  0.33252002  0.44682833  1
  O  O208  1  0.58027190  0.48779146  0.46923178  1
  O  O209  1  0.42241631  0.01241377  0.46876715  1
  O  O210  1  0.99544747  0.11519987  0.47474330  1
  O  O211  1  0.01297995  0.38786074  0.47706224  1
  O  O212  1  0.64921036  0.97486175  0.48725292  1
  O  O213  1  0.35631509  0.53945872  0.48895669  1
  O  O214  1  0.85874920  0.84095432  0.49518586  1
  O  O215  1  0.13856282  0.93817326  0.49600173  1
  O  O216  1  0.86570369  0.56915496  0.49526421  1
  O  O217  1  0.14449373  0.66766914  0.49686962  1
  O  O218  1  0.39159145  0.30369922  0.51192208  1
  O  O219  1  0.61093720  0.20269632  0.51083684  1
  O  O220  1  0.60617013  0.69955149  0.51982807  1
  O  O221  1  0.39347769  0.80756568  0.52132203  1
  O  O222  1  0.14686944  0.16626737  0.53884420  1
  O  O223  1  0.87162098  0.07554405  0.53843366  1
  O  O224  1  0.13325315  0.43921561  0.54188184  1
  O  O225  1  0.85547268  0.34040878  0.53711366  1
  O  O226  1  0.36730130  0.04744723  0.54450487  1
  O  O227  1  0.64160698  0.46690456  0.54518354  1
  O  O228  1  0.00183675  0.88505995  0.55810119  1
  O  O229  1  0.99347320  0.62321709  0.55810824  1
  O  O230  1  0.41866296  0.51123899  0.56318298  1
  O  O231  1  0.58541569  0.99394840  0.56258563  1
  O  O232  1  0.73136335  0.83072383  0.58542037  1
  O  O233  1  0.26448383  0.67453479  0.58427719  1
  O  O234  1  0.36532787  0.24339147  0.59576418  1
  O  O235  1  0.64248792  0.26449148  0.59205021  1
  O  O236  1  0.22396696  0.90636573  0.60310592  1
  O  O237  1  0.78507634  0.60687691  0.60427895  1
  O  O238  1  0.09215378  0.11140414  0.61476042  1
  O  O239  1  0.19544661  0.38815771  0.61655084  1
  O  O240  1  0.81546073  0.11464684  0.61066780  1
  O  O241  1  0.91911886  0.39317546  0.61086149  1
  O  O242  1  0.54830038  0.63753548  0.62770496  1
  O  O243  1  0.45067427  0.86729193  0.62559588  1
  O  O244  1  0.94197530  0.85018039  0.63475423  1
  O  O245  1  0.05847060  0.64721592  0.63365037  1
  O  O246  1  0.41614795  0.39495945  0.66106561  1
  O  O247  1  0.32543215  0.11376642  0.66058542  1
  O  O248  1  0.68914341  0.38912651  0.65465158  1
  O  O249  1  0.59423796  0.10930557  0.65422190  1
  O  O250  1  0.30209456  0.63051929  0.65974741  1
  O  O251  1  0.70196005  0.88449390  0.66024037  1
  O  O252  1  0.13399928  0.24482370  0.68019770  1
  O  O253  1  0.88003268  0.25782363  0.67390934  1
  O  O254  1  0.75275110  0.67160255  0.68072951  1
  O  O255  1  0.23443288  0.83312815  0.67960795  1
  O  O256  1  0.03974357  0.94997553  0.70092325  1
  O  O257  1  0.93291522  0.52621705  0.69481384  1
  O  O258  1  0.48809388  0.62207496  0.71149126  1
  O  O259  1  0.50348982  0.87611783  0.70590909  1
  O  O260  1  0.20035427  0.47854537  0.71772822  1
  O  O261  1  0.78313864  0.02109251  0.72053184  1
  O  O262  1  0.66395062  0.25921673  0.72597238  1
  O  O263  1  0.16470607  0.26063874  0.07416146  1
  O  O264  1  0.28424736  0.02130661  0.07973939  1
  O  O265  1  0.70062673  0.47949107  0.08228903  1
  O  O266  1  0.00404577  0.87673953  0.09400439  1
  O  O267  1  0.98851568  0.62242855  0.08829825  1
  O  O268  1  0.43293323  0.52635203  0.10528826  1
  O  O269  1  0.53972066  0.94990805  0.09888935  1
