# generated using pymatgen
data_Li39La17Zr10O65
_symmetry_space_group_name_H-M   'P 1'
_cell_length_a   11.27162600
_cell_length_b   12.64834664
_cell_length_c   46.65146700
_cell_angle_alpha   90.00000000
_cell_angle_beta   90.00000000
_cell_angle_gamma   124.12984495
_symmetry_Int_Tables_number   1
_chemical_formula_structural   Li39La17Zr10O65
_chemical_formula_sum   'Li78 La34 Zr20 O130'
_cell_volume   5505.46958166
_cell_formula_units_Z   2
loop_
 _symmetry_equiv_pos_site_id
 _symmetry_equiv_pos_as_xyz
  1  'x, y, z'
loop_
 _atom_site_type_symbol
 _atom_site_label
 _atom_site_symmetry_multiplicity
 _atom_site_fract_x
 _atom_site_fract_y
 _atom_site_fract_z
 _atom_site_occupancy
  Li  Li0  1  0.82887392  0.42509191  0.08177274  1
  Li  Li1  1  0.15914222  0.96746197  0.07900375  1
  Li  Li2  1  0.01264306  0.39614652  0.04396174  1
  Li  Li3  1  0.99200282  0.99266104  0.11044309  1
  Li  Li4  1  0.66691559  0.33209273  0.17641430  1
  Li  Li5  1  0.33362903  0.55502404  0.17724119  1
  Li  Li6  1  0.50043572  0.58367779  0.01027172  1
  Li  Li7  1  0.50356178  0.75235485  0.14257721  1
  Li  Li8  1  0.25029787  0.69619517  0.15614169  1
  Li  Li9  1  0.74929977  0.18663854  0.19847196  1
  Li  Li10  1  0.39809881  0.52753255  0.12545552  1
  Li  Li11  1  0.55847274  0.84903086  0.02288591  1
  Li  Li12  1  0.24801964  0.19851129  0.10135730  1
  Li  Li13  1  0.76583865  0.22862929  0.05914679  1
  Li  Li14  1  0.10081341  0.85227531  0.12552230  1
  Li  Li15  1  0.86259594  0.45483478  0.02839723  1
  Li  Li16  1  0.99142700  0.63015005  0.14211403  1
  Li  Li17  1  0.84453468  0.62518821  0.00325672  1
  Li  Li18  1  0.33787139  0.41768384  0.07761424  1
  Li  Li19  1  0.67953277  0.96382314  0.08458454  1
  Li  Li20  1  0.50656343  0.39122778  0.11045011  1
  Li  Li21  1  0.60236580  0.01431602  0.04755038  1
  Li  Li22  1  0.16585842  0.83100981  0.17755743  1
  Li  Li23  1  0.83414704  0.05308859  0.17585559  1
  Li  Li24  1  0.74616797  0.44393796  0.12732610  1
  Li  Li25  1  0.32160667  0.94973627  0.03327937  1
  Li  Li26  1  0.25596140  0.43614718  0.03135241  1
  Li  Li27  1  0.74938428  0.93787944  0.12795411  1
  Li  Li28  1  0.83367254  0.91322801  0.27768733  1
  Li  Li29  1  0.16715758  0.47095880  0.27620269  1
  Li  Li30  1  0.00510168  0.88851245  0.24332558  1
  Li  Li31  1  0.99368054  0.49637839  0.31064032  1
  Li  Li32  1  0.66775511  0.83014907  0.37671137  1
  Li  Li33  1  0.33398849  0.05153365  0.37772222  1
  Li  Li34  1  0.49614997  0.13446752  0.21063563  1
  Li  Li35  1  0.50367322  0.24982264  0.34337141  1
  Li  Li36  1  0.25167665  0.19898962  0.35553864  1
  Li  Li37  1  0.74956369  0.68759555  0.39808270  1
  Li  Li38  1  0.39371406  0.00944572  0.32722128  1
  Li  Li39  1  0.60734260  0.37686493  0.22681690  1
  Li  Li40  1  0.24923915  0.69596163  0.29824573  1
  Li  Li41  1  0.74962454  0.68789599  0.25565604  1
  Li  Li42  1  0.10598386  0.37567891  0.32723534  1
  Li  Li43  1  0.89393808  0.01326669  0.22679880  1
  Li  Li44  1  0.99525415  0.13329291  0.34310126  1
  Li  Li45  1  0.00599411  0.25379972  0.21089102  1
  Li  Li46  1  0.33194395  0.91497970  0.27578989  1
  Li  Li47  1  0.66686350  0.46840028  0.27808476  1
  Li  Li48  1  0.50649162  0.88830651  0.31066200  1
  Li  Li49  1  0.49338715  0.49634447  0.24338332  1
  Li  Li50  1  0.16524138  0.33148771  0.37773308  1
  Li  Li51  1  0.83335180  0.55271608  0.37641329  1
  Li  Li52  1  0.75079538  0.94155802  0.32725422  1
  Li  Li53  1  0.24922146  0.44276448  0.22678320  1
  Li  Li54  1  0.24991515  0.94241873  0.22659245  1
  Li  Li55  1  0.74943976  0.44213814  0.32750016  1
  Li  Li56  1  0.84016594  0.41739680  0.47539437  1
  Li  Li57  1  0.17067370  0.95956221  0.47216650  1
  Li  Li58  1  0.00717018  0.39239561  0.44364037  1
  Li  Li59  1  0.98691017  0.98843931  0.50986588  1
  Li  Li60  1  0.49459582  0.63124583  0.41112301  1
  Li  Li61  1  0.50181726  0.80147393  0.54309661  1
  Li  Li62  1  0.44093095  0.53667529  0.53099983  1
  Li  Li63  1  0.60247309  0.85573260  0.42848674  1
  Li  Li64  1  0.23398891  0.15615031  0.49479342  1
  Li  Li65  1  0.75209860  0.18392354  0.45287528  1
  Li  Li66  1  0.13759057  0.92988209  0.52528670  1
  Li  Li67  1  0.89955177  0.53287698  0.42875550  1
  Li  Li68  1  0.15534479  0.75902271  0.55051210  1
  Li  Li69  1  0.00822032  0.75477083  0.41165710  1
  Li  Li70  1  0.32000879  0.42126392  0.46971413  1
  Li  Li71  1  0.65959822  0.96696794  0.47608014  1
  Li  Li72  1  0.39724479  0.37016673  0.50658509  1
  Li  Li73  1  0.49234786  0.99369182  0.44324135  1
  Li  Li74  1  0.67749250  0.43658958  0.52089458  1
  Li  Li75  1  0.25319611  0.94085217  0.42680659  1
  Li  Li76  1  0.25093799  0.44573627  0.42578845  1
  Li  Li77  1  0.74437799  0.94961596  0.52215622  1
  La  La78  1  0.13066103  0.51391412  0.10140431  1
  La  La79  1  0.86346335  0.87730784  0.05025111  1
  La  La80  1  0.36709776  0.12463522  0.15213086  1
  La  La81  1  0.62391930  0.23572175  0.00592903  1
  La  La82  1  0.23561643  0.19096299  0.03120237  1
  La  La83  1  0.74900837  0.19365349  0.12814013  1
  La  La84  1  0.74915094  0.69145622  0.12401160  1
  La  La85  1  0.62633539  0.49025733  0.04971749  1
  La  La86  1  0.36931200  0.87599603  0.10039150  1
  La  La87  1  0.87685635  0.13269819  0.00832688  1
  La  La88  1  0.13238686  0.26158992  0.15274921  1
  La  La89  1  0.12907158  0.00627220  0.30285675  1
  La  La90  1  0.87145807  0.37857935  0.25106970  1
  La  La91  1  0.37168644  0.62847213  0.35166386  1
  La  La92  1  0.62928356  0.75685634  0.20217007  1
  La  La93  1  0.25020849  0.69277669  0.22702162  1
  La  La94  1  0.75011844  0.69192139  0.32691906  1
  La  La95  1  0.75026439  0.19231473  0.32683507  1
  La  La96  1  0.25017639  0.19256693  0.22707950  1
  La  La97  1  0.62802146  0.00589944  0.25125495  1
  La  La98  1  0.37179134  0.37863963  0.30269780  1
  La  La99  1  0.87192929  0.62964594  0.20203973  1
  La  La100  1  0.12820377  0.75521025  0.35182944  1
  La  La101  1  0.13636884  0.50754483  0.50365230  1
  La  La102  1  0.86943497  0.87100359  0.45245522  1
  La  La103  1  0.37613865  0.14890239  0.54789579  1
  La  La104  1  0.63360566  0.26035317  0.40186058  1
  La  La105  1  0.25135042  0.19128929  0.42575413  1
  La  La106  1  0.76456274  0.19417279  0.52277376  1
  La  La107  1  0.25095205  0.69343106  0.42983996  1
  La  La108  1  0.63016239  0.50856482  0.45352369  1
  La  La109  1  0.37335418  0.89442499  0.50413272  1
  La  La110  1  0.86812886  0.12357613  0.40120954  1
  La  La111  1  0.12317743  0.25200074  0.54566294  1
  Zr  Zr112  1  0.99950945  0.44458172  0.17675072  1
  Zr  Zr113  1  0.49141217  0.69151144  0.07346920  1
  Zr  Zr114  1  0.49525835  0.18813270  0.07890088  1
  Zr  Zr115  1  0.99962529  0.94218461  0.17614658  1
  Zr  Zr116  1  0.00133340  0.69494055  0.07237697  1
  Zr  Zr117  1  0.99824884  0.19585287  0.07966393  1
  Zr  Zr118  1  0.50053572  0.44358379  0.17627646  1
  Zr  Zr119  1  0.49910623  0.94104276  0.17647628  1
  Zr  Zr120  1  0.00082285  0.94042586  0.37712688  1
  Zr  Zr121  1  0.50025188  0.19228205  0.27694931  1
  Zr  Zr122  1  0.50000733  0.69239554  0.27694964  1
  Zr  Zr123  1  0.00093559  0.44305422  0.37785338  1
  Zr  Zr124  1  0.00017763  0.19228572  0.27701947  1
  Zr  Zr125  1  0.99984278  0.69229474  0.27692969  1
  Zr  Zr126  1  0.50027825  0.94131576  0.37769002  1
  Zr  Zr127  1  0.50124891  0.44370652  0.37743014  1
  Zr  Zr128  1  0.50820114  0.69315965  0.48023778  1
  Zr  Zr129  1  0.50503329  0.19705537  0.47502834  1
  Zr  Zr130  1  0.99840784  0.68991914  0.48154799  1
  Zr  Zr131  1  0.00186950  0.18900604  0.47429451  1
  O  O132  1  0.79871542  0.87579191  0.15838788  1
  O  O133  1  0.20230569  0.00856375  0.19479165  1
  O  O134  1  0.40551618  0.12449580  0.03302611  1
  O  O135  1  0.59092178  0.27409161  0.11716539  1
  O  O136  1  0.70233834  0.82572999  0.09352017  1
  O  O137  1  0.29333014  0.54286233  0.06111220  1
  O  O138  1  0.90299866  0.43339307  0.13723138  1
  O  O139  1  0.67593459  0.32536289  0.05454428  1
  O  O140  1  0.32156523  0.04829777  0.10235988  1
  O  O141  1  0.85419832  0.30368416  0.01726495  1
  O  O142  1  0.12208158  0.06210663  0.14128481  1
  O  O143  1  0.00021629  0.02981246  0.01250351  1
  O  O144  1  0.17681662  0.48197491  0.15189970  1
  O  O145  1  0.60667732  0.72375587  0.03320116  1
  O  O146  1  0.37994200  0.68635164  0.11104235  1
  O  O147  1  0.41046756  0.74374914  0.18087583  1
  O  O148  1  0.58978671  0.14061749  0.17266288  1
  O  O149  1  0.51805875  0.60587117  0.15830497  1
  O  O150  1  0.47936677  0.27923965  0.19496507  1
  O  O151  1  0.08932628  0.08579975  0.07362399  1
  O  O152  1  0.91724262  0.30812086  0.08422310  1
  O  O153  1  0.96974085  0.83332037  0.09414575  1
  O  O154  1  0.99915026  0.54055039  0.05844083  1
  O  O155  1  0.08992932  0.64234996  0.18095391  1
  O  O156  1  0.90990507  0.24520693  0.17274379  1
  O  O157  1  0.52628845  0.55380684  0.09260546  1
  O  O158  1  0.49068099  0.84742451  0.06073412  1
  O  O159  1  0.40803256  0.29724026  0.07459962  1
  O  O160  1  0.59647573  0.09148632  0.08173769  1
  O  O161  1  0.98108506  0.77916929  0.15847583  1
  O  O162  1  0.02125606  0.10689585  0.19490597  1
  O  O163  1  0.11766222  0.70139776  0.11012625  1
  O  O164  1  0.86865607  0.69387162  0.03899012  1
  O  O165  1  0.17817704  0.32987340  0.10257717  1
  O  O166  1  0.81274102  0.05640201  0.05416879  1
  O  O167  1  0.37795660  0.32575886  0.14139578  1
  O  O168  1  0.62573103  0.03643074  0.00736912  1
  O  O169  1  0.32118166  0.90210732  0.15203278  1
  O  O170  1  0.71815169  0.45432180  0.00417455  1
  O  O171  1  0.79298646  0.55565561  0.09380414  1
  O  O172  1  0.19303247  0.84908953  0.05963770  1
  O  O173  1  0.08649177  0.27945773  0.03786474  1
  O  O174  1  0.89898308  0.10590046  0.11722955  1
  O  O175  1  0.70006108  0.50949964  0.15811566  1
  O  O176  1  0.29748526  0.37691638  0.19498842  1
  O  O177  1  0.40277762  0.41566415  0.02113788  1
  O  O178  1  0.59335820  0.95283284  0.13616459  1
  O  O179  1  0.79829627  0.37673386  0.35919961  1
  O  O180  1  0.20210162  0.50913607  0.39544815  1
  O  O181  1  0.40678613  0.61136956  0.23673940  1
  O  O182  1  0.59298222  0.77333038  0.31717798  1
  O  O183  1  0.70105339  0.32774965  0.29571558  1
  O  O184  1  0.29945109  0.05722100  0.25820696  1
  O  O185  1  0.09115505  0.45400174  0.21711791  1
  O  O186  1  0.90861437  0.93004049  0.33684490  1
  O  O187  1  0.67726693  0.83458791  0.25224781  1
  O  O188  1  0.32273215  0.55002095  0.30171034  1
  O  O189  1  0.87855342  0.82911485  0.21206052  1
  O  O190  1  0.12158863  0.55518477  0.34170633  1
  O  O191  1  0.82262273  0.40986187  0.20160737  1
  O  O192  1  0.17774403  0.97470699  0.35238506  1
  O  O193  1  0.62338014  0.19973866  0.24158709  1
  O  O194  1  0.37730143  0.18477352  0.31233393  1
  O  O195  1  0.41075361  0.24423479  0.38125528  1
  O  O196  1  0.58972245  0.64107882  0.37305082  1
  O  O197  1  0.52160113  0.10592452  0.35894749  1
  O  O198  1  0.48242968  0.77901785  0.39557283  1
  O  O199  1  0.08977744  0.58383950  0.27281397  1
  O  O200  1  0.90994717  0.80074307  0.28106706  1
  O  O201  1  0.97953866  0.33589135  0.29494688  1
  O  O202  1  0.02071271  0.04890783  0.25891878  1
  O  O203  1  0.09031988  0.13983296  0.38110215  1
  O  O204  1  0.91019019  0.74246110  0.37304908  1
  O  O205  1  0.52097946  0.04890631  0.29495420  1
  O  O206  1  0.47950071  0.33573016  0.25895906  1
  O  O207  1  0.40995703  0.80104313  0.27282700  1
  O  O208  1  0.58957585  0.58337319  0.28111052  1
  O  O209  1  0.97917313  0.27838120  0.35890724  1
  O  O210  1  0.01938285  0.60579366  0.39552888  1
  O  O211  1  0.12332735  0.19939997  0.31232935  1
  O  O212  1  0.87709560  0.18429709  0.24151654  1
  O  O213  1  0.17829217  0.83293272  0.30155681  1
  O  O214  1  0.82137324  0.55150848  0.25237977  1
  O  O215  1  0.37835709  0.82810093  0.34173712  1
  O  O216  1  0.62171913  0.55676339  0.21227192  1
  O  O217  1  0.32194801  0.40520560  0.35273223  1
  O  O218  1  0.67844289  0.97934800  0.20114876  1
  O  O219  1  0.79957063  0.05773457  0.29586923  1
  O  O220  1  0.20103422  0.32725973  0.25820153  1
  O  O221  1  0.09298994  0.77373374  0.23672552  1
  O  O222  1  0.90726897  0.61112736  0.31726037  1
  O  O223  1  0.70325778  0.00803093  0.35901000  1
  O  O224  1  0.30103248  0.87621373  0.39595976  1
  O  O225  1  0.40795324  0.93045088  0.21694165  1
  O  O226  1  0.59245860  0.45440358  0.33702544  1
  O  O227  1  0.40925833  0.11102969  0.43673364  1
  O  O228  1  0.59504743  0.26118249  0.52076810  1
  O  O229  1  0.70600878  0.84224514  0.49259185  1
  O  O230  1  0.29754307  0.55883967  0.46026516  1
  O  O231  1  0.09684067  0.95135685  0.41674239  1
  O  O232  1  0.67860516  0.33724076  0.45160734  1
  O  O233  1  0.32412795  0.05939085  0.49928213  1
  O  O234  1  0.87887246  0.32309648  0.41260088  1
  O  O235  1  0.14628819  0.08133783  0.53653316  1
  O  O236  1  0.82388374  0.90384934  0.40212506  1
  O  O237  1  0.00002508  0.35526145  0.54138627  1
  O  O238  1  0.61960994  0.69830280  0.44266506  1
  O  O239  1  0.39311804  0.66139576  0.52050183  1
  O  O240  1  0.08236471  0.07648154  0.46972899  1
  O  O241  1  0.91052646  0.29898677  0.48039704  1
  O  O242  1  0.00050021  0.84434465  0.49544492  1
  O  O243  1  0.03002201  0.55144275  0.45985300  1
  O  O244  1  0.50910598  0.53754007  0.49323903  1
  O  O245  1  0.47306941  0.83073696  0.46111331  1
  O  O246  1  0.40331245  0.29341578  0.47225180  1
  O  O247  1  0.59138168  0.08722243  0.47927313  1
  O  O248  1  0.13094698  0.69077157  0.51485285  1
  O  O249  1  0.88210797  0.68331816  0.44377591  1
  O  O250  1  0.18741976  0.32861825  0.49989238  1
  O  O251  1  0.82146435  0.05577321  0.45147055  1
  O  O252  1  0.37441751  0.34826746  0.54669661  1
  O  O253  1  0.62255678  0.05970617  0.41249468  1
  O  O254  1  0.28162735  0.93016335  0.54952795  1
  O  O255  1  0.67897471  0.48295885  0.40194175  1
  O  O256  1  0.80671360  0.53626132  0.49443858  1
  O  O257  1  0.20685903  0.82926217  0.46014196  1
  O  O258  1  0.10113413  0.27842808  0.43670467  1
  O  O259  1  0.91411054  0.10561734  0.51611177  1
  O  O260  1  0.40684809  0.43156995  0.41772204  1
  O  O261  1  0.59782317  0.96974259  0.53266163  1
