# generated using pymatgen
data_Li40La18Zr10O67
_symmetry_space_group_name_H-M   'P 1'
_cell_length_a   11.29297700
_cell_length_b   11.29297737
_cell_length_c   40.01105500
_cell_angle_alpha   90.00000000
_cell_angle_beta   90.00000000
_cell_angle_gamma   111.54263211
_symmetry_Int_Tables_number   1
_chemical_formula_structural   Li40La18Zr10O67
_chemical_formula_sum   'Li80 La36 Zr20 O134'
_cell_volume   4746.21466431
_cell_formula_units_Z   2
loop_
 _symmetry_equiv_pos_site_id
 _symmetry_equiv_pos_as_xyz
  1  'x, y, z'
loop_
 _atom_site_type_symbol
 _atom_site_label
 _atom_site_symmetry_multiplicity
 _atom_site_fract_x
 _atom_site_fract_y
 _atom_site_fract_z
 _atom_site_occupancy
  Li  Li0  1  0.26039460  0.14180749  0.05482895  1
  Li  Li1  1  0.32285703  0.34204248  0.09411796  1
  Li  Li2  1  0.65414323  0.13772731  0.08387820  1
  Li  Li3  1  0.15755404  0.06516410  0.10240737  1
  Li  Li4  1  0.27765536  0.52074627  0.11210182  1
  Li  Li5  1  0.74601664  0.01495822  0.10765996  1
  Li  Li6  1  0.80328138  0.33811610  0.09906025  1
  Li  Li7  1  0.94364735  0.95133239  0.13050646  1
  Li  Li8  1  0.01840699  0.55212828  0.12274775  1
  Li  Li9  1  0.02088762  0.77453799  0.14585104  1
  Li  Li10  1  0.37184513  0.53213033  0.17023490  1
  Li  Li11  1  0.14895252  0.98372146  0.16905060  1
  Li  Li12  1  0.64045854  0.97726237  0.16436720  1
  Li  Li13  1  0.85246803  0.52197549  0.16258068  1
  Li  Li14  1  0.51747929  0.76976571  0.19607932  1
  Li  Li15  1  0.56225146  0.55739283  0.20793336  1
  Li  Li16  1  0.43510808  0.94913307  0.20381551  1
  Li  Li17  1  0.30249959  0.41323740  0.22562999  1
  Li  Li18  1  0.25155470  0.99842589  0.22576178  1
  Li  Li19  1  0.75472341  0.49846142  0.22292985  1
  Li  Li20  1  0.66038338  0.05821223  0.22334701  1
  Li  Li21  1  0.19778062  0.18455086  0.24316220  1
  Li  Li22  1  0.80500514  0.30564822  0.24328180  1
  Li  Li23  1  0.01999164  0.26742979  0.25837400  1
  Li  Li24  1  0.77535882  0.60496694  0.27986128  1
  Li  Li25  1  0.22850289  0.39476498  0.28585734  1
  Li  Li26  1  0.21994267  0.88556064  0.28443417  1
  Li  Li27  1  0.78247329  0.11741116  0.28208544  1
  Li  Li28  1  0.98361071  0.73414207  0.30866501  1
  Li  Li29  1  0.80719237  0.81325953  0.32318310  1
  Li  Li30  1  0.19783441  0.69627261  0.32270003  1
  Li  Li31  1  0.69317842  0.58196059  0.34076160  1
  Li  Li32  1  0.75276883  0.00178706  0.34041095  1
  Li  Li33  1  0.25151570  0.50085687  0.34233973  1
  Li  Li34  1  0.33779207  0.94258120  0.34237601  1
  Li  Li35  1  0.44833032  0.44445301  0.36031146  1
  Li  Li36  1  0.56700838  0.05266639  0.36078920  1
  Li  Li37  1  0.48821893  0.23021452  0.37511014  1
  Li  Li38  1  0.85971714  0.02300067  0.39667477  1
  Li  Li39  1  0.63926976  0.46769347  0.39911047  1
  Li  Li40  1  0.13825699  0.46693332  0.40097783  1
  Li  Li41  1  0.36020740  0.02286881  0.40317077  1
  Li  Li42  1  0.98736162  0.23113712  0.42485682  1
  Li  Li43  1  0.06564232  0.05289521  0.43892898  1
  Li  Li44  1  0.94966865  0.44586680  0.43966829  1
  Li  Li45  1  0.83627095  0.94024536  0.45776832  1
  Li  Li46  1  0.75228181  0.49997358  0.45754484  1
  Li  Li47  1  0.25219508  0.00134539  0.45948534  1
  Li  Li48  1  0.19450488  0.58182225  0.45920266  1
  Li  Li49  1  0.69867029  0.69309503  0.47746837  1
  Li  Li50  1  0.30798931  0.81419286  0.47687909  1
  Li  Li51  1  0.48486762  0.73526766  0.49116847  1
  Li  Li52  1  0.28464585  0.11944762  0.51795861  1
  Li  Li53  1  0.71935688  0.88545413  0.51536184  1
  Li  Li54  1  0.72836635  0.39466395  0.51395929  1
  Li  Li55  1  0.27559329  0.60562578  0.52004578  1
  Li  Li56  1  0.52151827  0.26923352  0.54167776  1
  Li  Li57  1  0.30481124  0.30494929  0.55669513  1
  Li  Li58  1  0.69806652  0.18517686  0.55676326  1
  Li  Li59  1  0.16027622  0.05846375  0.57627318  1
  Li  Li60  1  0.25499530  0.49902813  0.57691128  1
  Li  Li61  1  0.75181434  0.99859186  0.57378620  1
  Li  Li62  1  0.80301400  0.41370434  0.57446226  1
  Li  Li63  1  0.93584334  0.94975697  0.59639188  1
  Li  Li64  1  0.06244568  0.55751950  0.59179317  1
  Li  Li65  1  0.01839728  0.77099791  0.60403340  1
  Li  Li66  1  0.35246275  0.52241223  0.63709761  1
  Li  Li67  1  0.14057950  0.97832745  0.63551032  1
  Li  Li68  1  0.64966040  0.98347156  0.63041119  1
  Li  Li69  1  0.87232351  0.53205838  0.62977432  1
  Li  Li70  1  0.52110590  0.77568220  0.65450140  1
  Li  Li71  1  0.51761407  0.55233214  0.67716454  1
  Li  Li72  1  0.44295840  0.95013375  0.66944346  1
  Li  Li73  1  0.30229213  0.33858900  0.70088789  1
  Li  Li74  1  0.24574492  0.01497171  0.69223496  1
  Li  Li75  1  0.77728878  0.52067416  0.68737604  1
  Li  Li76  1  0.65811884  0.06562319  0.69733431  1
  Li  Li77  1  0.15469229  0.13815754  0.71656678  1
  Li  Li78  1  0.82278926  0.34232969  0.70558184  1
  Li  Li79  1  0.76093124  0.14268173  0.74488834  1
  La  La80  1  0.83850618  0.71635099  0.08518195  1
  La  La81  1  0.18193938  0.81326948  0.08420889  1
  La  La82  1  0.50757192  0.75629539  0.11583719  1
  La  La83  1  0.01075864  0.24119262  0.10671791  1
  La  La84  1  0.56208389  0.43601339  0.13791440  1
  La  La85  1  0.42974872  0.06651481  0.13016872  1
  La  La86  1  0.93533729  0.07093989  0.19740467  1
  La  La87  1  0.05992827  0.43774069  0.19422084  1
  La  La88  1  0.00076921  0.75203944  0.22634920  1
  La  La89  1  0.50144822  0.25063150  0.22357892  1
  La  La90  1  0.68876386  0.81843289  0.25554564  1
  La  La91  1  0.31449045  0.68457087  0.25361611  1
  La  La92  1  0.31652103  0.18802957  0.31266925  1
  La  La93  1  0.68820761  0.31453476  0.31349897  1
  La  La94  1  0.00325570  0.24988366  0.34177136  1
  La  La95  1  0.50210328  0.74898731  0.34178052  1
  La  La96  1  0.06907290  0.93481671  0.36984488  1
  La  La97  1  0.94033842  0.56233583  0.37062164  1
  La  La98  1  0.44083629  0.56231491  0.42940630  1
  La  La99  1  0.56919238  0.93496142  0.43014908  1
  La  La100  1  0.50318881  0.24987754  0.45822698  1
  La  La101  1  0.00261211  0.74906127  0.45830997  1
  La  La102  1  0.18817310  0.31450115  0.48648537  1
  La  La103  1  0.81677113  0.18780433  0.48735247  1
  La  La104  1  0.81463614  0.68492005  0.54653462  1
  La  La105  1  0.18890549  0.81851651  0.54444494  1
  La  La106  1  0.50092604  0.75221879  0.57369196  1
  La  La107  1  0.00139766  0.25083146  0.57638526  1
  La  La108  1  0.56019692  0.43786890  0.60585965  1
  La  La109  1  0.43524625  0.07110397  0.60263023  1
  La  La110  1  0.93022368  0.06663972  0.67002408  1
  La  La111  1  0.06207212  0.43606357  0.66194667  1
  La  La112  1  0.00767168  0.75643755  0.68417264  1
  La  La113  1  0.51045878  0.24132917  0.69325427  1
  La  La114  1  0.68213654  0.81343364  0.71583239  1
  La  La115  1  0.33854598  0.71623946  0.71484621  1
  Zr  Zr116  1  0.75363564  0.75478287  0.16924073  1
  Zr  Zr117  1  0.25217366  0.25271833  0.16618080  1
  Zr  Zr118  1  0.74898072  0.24590051  0.16366490  1
  Zr  Zr119  1  0.24875300  0.74534696  0.16759326  1
  Zr  Zr120  1  0.00345274  0.00209996  0.28378678  1
  Zr  Zr121  1  0.50191818  0.50097794  0.28276448  1
  Zr  Zr122  1  0.50053689  0.00142581  0.28282948  1
  Zr  Zr123  1  0.00155362  0.49979525  0.28316154  1
  Zr  Zr124  1  0.25340303  0.25005922  0.39998468  1
  Zr  Zr125  1  0.75376586  0.74891230  0.39988494  1
  Zr  Zr126  1  0.25380072  0.74876177  0.40021388  1
  Zr  Zr127  1  0.75324954  0.25001749  0.40008471  1
  Zr  Zr128  1  0.50155190  0.50011391  0.51687132  1
  Zr  Zr129  1  0.00084205  0.00135657  0.51709095  1
  Zr  Zr130  1  0.00201367  0.50100384  0.51717109  1
  Zr  Zr131  1  0.50349353  0.00243601  0.51627790  1
  Zr  Zr132  1  0.74880510  0.74565590  0.63247653  1
  Zr  Zr133  1  0.24898587  0.24626121  0.63625735  1
  Zr  Zr134  1  0.75192773  0.25239786  0.63370922  1
  Zr  Zr135  1  0.25369139  0.75480743  0.63075238  1
  O  O136  1  0.44852272  0.52814727  0.10232975  1
  O  O137  1  0.56169586  0.97338649  0.10276368  1
  O  O138  1  0.74678198  0.83946260  0.12014378  1
  O  O139  1  0.27284325  0.68278406  0.11705407  1
  O  O140  1  0.37635874  0.25436893  0.12755588  1
  O  O141  1  0.63889486  0.25992173  0.12050574  1
  O  O142  1  0.20623536  0.88333613  0.14036934  1
  O  O143  1  0.78166324  0.61548072  0.13593270  1
  O  O144  1  0.08985083  0.10778216  0.14597673  1
  O  O145  1  0.19388644  0.39256320  0.14377420  1
  O  O146  1  0.81625463  0.10307329  0.14898079  1
  O  O147  1  0.90839066  0.38911550  0.14012646  1
  O  O148  1  0.55696317  0.65003781  0.16567909  1
  O  O149  1  0.44428898  0.85139116  0.16433730  1
  O  O150  1  0.94965650  0.86340910  0.17386855  1
  O  O151  1  0.04775539  0.63728781  0.16877702  1
  O  O152  1  0.41791013  0.39557363  0.18880857  1
  O  O153  1  0.31180667  0.11612828  0.18923733  1
  O  O154  1  0.68873113  0.38648584  0.18571350  1
  O  O155  1  0.58365599  0.10946109  0.18540932  1
  O  O156  1  0.27662982  0.60142314  0.19601672  1
  O  O157  1  0.71063957  0.89250288  0.19638004  1
  O  O158  1  0.13844968  0.26381656  0.20830604  1
  O  O159  1  0.86824586  0.25161963  0.20571002  1
  O  O160  1  0.76536368  0.67005913  0.21418833  1
  O  O161  1  0.23562449  0.82735945  0.21363201  1
  O  O162  1  0.08573066  0.98993304  0.23774066  1
  O  O163  1  0.92318077  0.51658888  0.23645234  1
  O  O164  1  0.49657832  0.62428310  0.24289173  1
  O  O165  1  0.50849742  0.89085698  0.24082155  1
  O  O166  1  0.14256720  0.46232591  0.25503346  1
  O  O167  1  0.86079159  0.03501261  0.25492259  1
  O  O168  1  0.35747837  0.33816252  0.26261576  1
  O  O169  1  0.63594893  0.43778668  0.25969065  1
  O  O170  1  0.36789634  0.07016614  0.26174474  1
  O  O171  1  0.64456020  0.16361635  0.26147407  1
  O  O172  1  0.89347459  0.80317423  0.27867234  1
  O  O173  1  0.10897016  0.69882313  0.27948681  1
  O  O174  1  0.11107096  0.19984858  0.28864002  1
  O  O175  1  0.89340278  0.30260373  0.28725832  1
  O  O176  1  0.64546780  0.66471494  0.30414923  1
  O  O177  1  0.36585559  0.56575784  0.30493239  1
  O  O178  1  0.63565882  0.93314092  0.30440404  1
  O  O179  1  0.35853994  0.83829137  0.30434362  1
  O  O180  1  0.85895897  0.53751853  0.31142724  1
  O  O181  1  0.14725815  0.97079052  0.31275034  1
  O  O182  1  0.51143613  0.38464069  0.32347025  1
  O  O183  1  0.49427165  0.11329353  0.32529592  1
  O  O184  1  0.92159675  0.01089908  0.33094126  1
  O  O185  1  0.08062015  0.48604414  0.33053789  1
  O  O186  1  0.24115443  0.33052964  0.35304081  1
  O  O187  1  0.76441148  0.16955192  0.35279996  1
  O  O188  1  0.86706050  0.73950429  0.35794767  1
  O  O189  1  0.13628535  0.75534240  0.35973020  1
  O  O190  1  0.72342698  0.39335575  0.37096309  1
  O  O191  1  0.29345489  0.10855799  0.37201420  1
  O  O192  1  0.59093640  0.60552938  0.37852903  1
  O  O193  1  0.68857247  0.88472341  0.37764039  1
  O  O194  1  0.32182945  0.61619843  0.37843421  1
  O  O195  1  0.41760702  0.89239390  0.37956154  1
  O  O196  1  0.05666047  0.14014930  0.39491341  1
  O  O197  1  0.95245470  0.35600873  0.39600875  1
  O  O198  1  0.45275305  0.35565302  0.40409412  1
  O  O199  1  0.55665918  0.13939826  0.40507764  1
  O  O200  1  0.91763165  0.89259237  0.42041405  1
  O  O201  1  0.82162450  0.61572069  0.42143457  1
  O  O202  1  0.18880097  0.88462640  0.42238700  1
  O  O203  1  0.09144422  0.60530032  0.42159370  1
  O  O204  1  0.79352231  0.10863346  0.42798663  1
  O  O205  1  0.22388753  0.39378620  0.42906007  1
  O  O206  1  0.63731738  0.75556132  0.44058367  1
  O  O207  1  0.36759565  0.73971104  0.44210754  1
  O  O208  1  0.26424485  0.16946642  0.44719592  1
  O  O209  1  0.74054564  0.32997811  0.44700036  1
  O  O210  1  0.58132405  0.48656921  0.46949076  1
  O  O211  1  0.42148872  0.01109616  0.46913484  1
  O  O212  1  0.99445229  0.11325335  0.47476001  1
  O  O213  1  0.01133522  0.38434423  0.47650593  1
  O  O214  1  0.64710411  0.97088618  0.48722051  1
  O  O215  1  0.35894621  0.53732680  0.48854375  1
  O  O216  1  0.85879232  0.83796469  0.49576670  1
  O  O217  1  0.13530099  0.93211456  0.49554370  1
  O  O218  1  0.86611545  0.56582106  0.49487809  1
  O  O219  1  0.14585954  0.66462371  0.49584013  1
  O  O220  1  0.39396427  0.30279459  0.51271771  1
  O  O221  1  0.61116045  0.20002962  0.51143025  1
  O  O222  1  0.60927775  0.69888124  0.52054899  1
  O  O223  1  0.39394773  0.80338626  0.52131847  1
  O  O224  1  0.14507161  0.16378734  0.53844523  1
  O  O225  1  0.86819061  0.07039956  0.53808622  1
  O  O226  1  0.13601726  0.43816864  0.54029228  1
  O  O227  1  0.85774173  0.33827020  0.53739250  1
  O  O228  1  0.36053458  0.03480191  0.54508848  1
  O  O229  1  0.64270974  0.46243168  0.54492309  1
  O  O230  1  0.00895223  0.89133227  0.55927677  1
  O  O231  1  0.99650130  0.62429959  0.55702351  1
  O  O232  1  0.42323662  0.51666881  0.56355690  1
  O  O233  1  0.58583360  0.99004883  0.56229224  1
  O  O234  1  0.73595116  0.82761882  0.58641025  1
  O  O235  1  0.26575976  0.67028111  0.58579385  1
  O  O236  1  0.36845330  0.25184555  0.59428617  1
  O  O237  1  0.63846513  0.26418683  0.59163010  1
  O  O238  1  0.21085142  0.89269606  0.60367912  1
  O  O239  1  0.77675018  0.60156266  0.60406623  1
  O  O240  1  0.08381485  0.10977238  0.61446066  1
  O  O241  1  0.18869708  0.38679782  0.61419664  1
  O  O242  1  0.81170772  0.11644294  0.61047269  1
  O  O243  1  0.91786123  0.39565823  0.61114708  1
  O  O244  1  0.54796500  0.63793778  0.63130128  1
  O  O245  1  0.44966671  0.86341287  0.62612798  1
  O  O246  1  0.94471910  0.85185076  0.63579465  1
  O  O247  1  0.05714531  0.65024525  0.63422495  1
  O  O248  1  0.40814354  0.38946714  0.65976439  1
  O  O249  1  0.31595893  0.10342635  0.65104969  1
  O  O250  1  0.69325316  0.39229522  0.65605732  1
  O  O251  1  0.58964556  0.10770782  0.65385764  1
  O  O252  1  0.28170173  0.61545263  0.66410133  1
  O  O253  1  0.70679918  0.88402238  0.65965316  1
  O  O254  1  0.13868182  0.25992984  0.67947406  1
  O  O255  1  0.87622958  0.25411976  0.67232667  1
  O  O256  1  0.77291470  0.68315604  0.68297234  1
  O  O257  1  0.24700680  0.83961973  0.67986034  1
  O  O258  1  0.06185760  0.97343897  0.69755890  1
  O  O259  1  0.94793160  0.52795187  0.69734502  1
  O  O260  1  0.48831251  0.63409938  0.71587505  1
  O  O261  1  0.51002359  0.88485089  0.70535862  1
  O  O262  1  0.79956697  0.02297774  0.72115705  1
  O  O263  1  0.32889123  0.19599294  0.71999340  1
  O  O264  1  0.67134048  0.22496765  0.72428899  1
  O  O265  1  0.17129313  0.22463027  0.07552798  1
  O  O266  1  0.82863250  0.19470609  0.08015728  1
  O  O267  1  0.29935056  0.02273232  0.07888275  1
  O  O268  1  0.00993906  0.88512672  0.09449700  1
  O  O269  1  0.98815261  0.63386645  0.08410507  1
