# generated using pymatgen
data_Li62La28Zr17O107
_symmetry_space_group_name_H-M   'P 1'
_cell_length_a   11.27162600
_cell_length_b   18.66058700
_cell_length_c   41.87959700
_cell_angle_alpha   90.00000000
_cell_angle_beta   90.00000000
_cell_angle_gamma   89.99896220
_symmetry_Int_Tables_number   1
_chemical_formula_structural   Li62La28Zr17O107
_chemical_formula_sum   'Li124 La56 Zr34 O214'
_cell_volume   8808.75163541
_cell_formula_units_Z   2
loop_
 _symmetry_equiv_pos_site_id
 _symmetry_equiv_pos_as_xyz
  1  'x, y, z'
loop_
 _atom_site_type_symbol
 _atom_site_label
 _atom_site_symmetry_multiplicity
 _atom_site_fract_x
 _atom_site_fract_y
 _atom_site_fract_z
 _atom_site_occupancy
  Li  Li0  1  0.89579671  0.65602927  0.10628774  1
  Li  Li1  1  0.59079334  0.15476601  0.09443142  1
  Li  Li2  1  0.71753005  0.74660290  0.11453385  1
  Li  Li3  1  0.78111527  0.07773564  0.08706139  1
  Li  Li4  1  0.35843434  0.92129306  0.01112313  1
  Li  Li5  1  0.51604821  0.38762238  0.08128553  1
  Li  Li6  1  0.38312694  0.81990678  0.05314833  1
  Li  Li7  1  0.48811556  0.46268255  0.04261267  1
  Li  Li8  1  0.70861455  0.48773207  0.03684812  1
  Li  Li9  1  0.11638491  0.85223537  0.04174731  1
  Li  Li10  1  0.37623862  0.54186103  0.08918451  1
  Li  Li11  1  0.08890313  0.28111280  0.12445458  1
  Li  Li12  1  0.66183120  0.10953819  0.03618654  1
  Li  Li13  1  0.16570529  0.19154803  0.02976929  1
  Li  Li14  1  0.58594478  0.03679683  0.12500171  1
  Li  Li15  1  0.90866477  0.78681832  0.07865193  1
  Li  Li16  1  0.88588128  0.52182482  0.06012044  1
  Li  Li17  1  0.92260679  0.81528723  0.02264936  1
  Li  Li18  1  0.40303311  0.67152664  0.09494658  1
  Li  Li19  1  0.09019128  0.15693508  0.09261770  1
  Li  Li20  1  0.19865262  0.57724043  0.11749482  1
  Li  Li21  1  0.27252412  0.23563845  0.08435935  1
  Li  Li22  1  0.81608929  0.36598394  0.01096758  1
  Li  Li23  1  0.98446189  0.91682681  0.07900785  1
  Li  Li24  1  0.00034772  0.53250838  0.10455571  1
  Li  Li25  1  0.48762117  0.27849651  0.10171143  1
  Li  Li26  1  0.49853348  0.78307668  0.10246217  1
  Li  Li27  1  0.99412504  0.03560472  0.10270754  1
  Li  Li28  1  0.57795227  0.16201338  0.23431817  1
  Li  Li29  1  0.27707263  0.65833328  0.21945683  1
  Li  Li30  1  0.39521989  0.24228966  0.23973930  1
  Li  Li31  1  0.45696024  0.57610063  0.21273467  1
  Li  Li32  1  0.00417442  0.40677468  0.13169795  1
  Li  Li33  1  0.16779931  0.90327776  0.20015624  1
  Li  Li34  1  0.05045233  0.32416384  0.18096916  1
  Li  Li35  1  0.12006863  0.98717253  0.14834701  1
  Li  Li36  1  0.33974495  0.95758170  0.16079140  1
  Li  Li37  1  0.81742462  0.35627945  0.16611801  1
  Li  Li38  1  0.09077944  0.03238489  0.20574672  1
  Li  Li39  1  0.78105965  0.78511079  0.24390979  1
  Li  Li40  1  0.35006532  0.60919179  0.15635331  1
  Li  Li41  1  0.84144799  0.70950148  0.16248790  1
  Li  Li42  1  0.26537873  0.53490415  0.24786966  1
  Li  Li43  1  0.59697380  0.28941383  0.20284458  1
  Li  Li44  1  0.55449288  0.99301079  0.18068803  1
  Li  Li45  1  0.61667237  0.32958033  0.14429760  1
  Li  Li46  1  0.07642313  0.15760133  0.23496459  1
  Li  Li47  1  0.77581241  0.65796433  0.22004908  1
  Li  Li48  1  0.89324922  0.07508827  0.24062197  1
  Li  Li49  1  0.96619948  0.74159720  0.21454305  1
  Li  Li50  1  0.51282944  0.90509039  0.13106485  1
  Li  Li51  1  0.66137154  0.41841692  0.20259185  1
  Li  Li52  1  0.67811450  0.03646738  0.22754206  1
  Li  Li53  1  0.17882519  0.78329681  0.22801374  1
  Li  Li54  1  0.17800378  0.28143360  0.22669862  1
  Li  Li55  1  0.67281952  0.53649909  0.22700175  1
  Li  Li56  1  0.26355647  0.65802770  0.35969296  1
  Li  Li57  1  0.96073613  0.16152996  0.34662898  1
  Li  Li58  1  0.07342314  0.74233654  0.36528797  1
  Li  Li59  1  0.15187941  0.07513405  0.33936962  1
  Li  Li60  1  0.69169510  0.91206808  0.25460368  1
  Li  Li61  1  0.84793928  0.40324887  0.32484434  1
  Li  Li62  1  0.73831400  0.82580251  0.30376319  1
  Li  Li63  1  0.79952495  0.49132782  0.27386103  1
  Li  Li64  1  0.01618896  0.45882008  0.29096925  1
  Li  Li65  1  0.52104652  0.85543205  0.28915972  1
  Li  Li66  1  0.77528205  0.53390010  0.33079745  1
  Li  Li67  1  0.44675114  0.28792630  0.37538588  1
  Li  Li68  1  0.01227250  0.10400641  0.29332070  1
  Li  Li69  1  0.51232208  0.21201826  0.29281725  1
  Li  Li70  1  0.95544929  0.03327485  0.37187136  1
  Li  Li71  1  0.25876725  0.78559847  0.33606025  1
  Li  Li72  1  0.23876575  0.49199241  0.30536088  1
  Li  Li73  1  0.30204169  0.82626746  0.27605507  1
  Li  Li74  1  0.76221461  0.65763840  0.36018172  1
  Li  Li75  1  0.46070516  0.15860928  0.34638182  1
  Li  Li76  1  0.58463675  0.57608415  0.36676148  1
  Li  Li77  1  0.64743212  0.24278357  0.34009081  1
  Li  Li78  1  0.18944358  0.40476137  0.25489908  1
  Li  Li79  1  0.34871524  0.91194235  0.32451170  1
  Li  Li80  1  0.36583032  0.53624601  0.35289982  1
  Li  Li81  1  0.86102206  0.28245645  0.35296018  1
  Li  Li82  1  0.86140866  0.78338682  0.35166396  1
  Li  Li83  1  0.36191909  0.03591262  0.35217063  1
  Li  Li84  1  0.95038720  0.15766597  0.48707771  1
  Li  Li85  1  0.63724485  0.67140833  0.48495348  1
  Li  Li86  1  0.76803016  0.23594365  0.49552285  1
  Li  Li87  1  0.84199092  0.57709045  0.46217090  1
  Li  Li88  1  0.37636547  0.41598662  0.37751390  1
  Li  Li89  1  0.52728239  0.90499076  0.44851553  1
  Li  Li90  1  0.42337665  0.32926702  0.43452135  1
  Li  Li91  1  0.48700826  0.99368768  0.39878560  1
  Li  Li92  1  0.69941077  0.95767372  0.41884207  1
  Li  Li93  1  0.21437941  0.35626961  0.41619359  1
  Li  Li94  1  0.45411488  0.03691153  0.45430831  1
  Li  Li95  1  0.13161781  0.78671469  0.50102166  1
  Li  Li96  1  0.68960882  0.61009992  0.42342484  1
  Li  Li97  1  0.19911677  0.70972135  0.41714325  1
  Li  Li98  1  0.66456797  0.54229161  0.49039823  1
  Li  Li99  1  0.95311067  0.28197129  0.45455773  1
  Li  Li100  1  0.92015757  0.98739011  0.43064511  1
  Li  Li101  1  0.98857855  0.32454439  0.39874322  1
  Li  Li102  1  0.45181750  0.15522769  0.48546397  1
  Li  Li103  1  0.14451353  0.65577501  0.47327780  1
  Li  Li104  1  0.26118306  0.07751774  0.49273433  1
  Li  Li105  1  0.32130783  0.74653031  0.46523227  1
  Li  Li106  1  0.87207891  0.90480071  0.37986545  1
  Li  Li107  1  0.03313721  0.40984815  0.44824596  1
  Li  Li108  1  0.04650370  0.03627254  0.47704613  1
  Li  Li109  1  0.54148080  0.78309666  0.47721055  1
  Li  Li110  1  0.55250782  0.27899899  0.47801729  1
  Li  Li111  1  0.04077773  0.53307684  0.47529890  1
  Li  Li112  1  0.05553787  0.91699326  0.50091143  1
  Li  Li113  1  0.22275792  0.36600425  0.56833759  1
  Li  Li114  1  0.11650981  0.81516196  0.55741680  1
  Li  Li115  1  0.15438881  0.52187092  0.51934498  1
  Li  Li116  1  0.33184614  0.48766469  0.54283623  1
  Li  Li117  1  0.92306911  0.85194228  0.53752167  1
  Li  Li118  1  0.37868676  0.10962244  0.54371131  1
  Li  Li119  1  0.87499117  0.19098805  0.55024709  1
  Li  Li120  1  0.55412142  0.46326655  0.53740761  1
  Li  Li121  1  0.65702023  0.81941406  0.52619630  1
  Li  Li122  1  0.52360413  0.38787913  0.49882775  1
  Li  Li123  1  0.67991087  0.92113447  0.56861902  1
  La  La124  1  0.66029575  0.60961953  0.08404031  1
  La  La125  1  0.83329151  0.21984324  0.11701314  1
  La  La126  1  0.49371533  0.96698096  0.06079562  1
  La  La127  1  0.34646610  0.32679665  0.02620381  1
  La  La128  1  0.64254102  0.26757619  0.03932090  1
  La  La129  1  0.14907435  0.03025358  0.03973185  1
  La  La130  1  0.15278996  0.55062114  0.04327029  1
  La  La131  1  0.65489803  0.78689389  0.04129712  1
  La  La132  1  0.14277565  0.71768983  0.08823671  1
  La  La133  1  0.32777398  0.09300257  0.11611327  1
  La  La134  1  0.99244818  0.33984787  0.05947336  1
  La  La135  1  0.83854365  0.98293158  0.02741824  1
  La  La136  1  0.34352233  0.09361334  0.21047161  1
  La  La137  1  0.51550622  0.72272621  0.24306709  1
  La  La138  1  0.17323416  0.47329418  0.18055766  1
  La  La139  1  0.99752666  0.84229863  0.15016287  1
  La  La140  1  0.33406799  0.78024562  0.16445638  1
  La  La141  1  0.83282781  0.53464195  0.16405948  1
  La  La142  1  0.83699678  0.03397757  0.16486342  1
  La  La143  1  0.33723131  0.28337952  0.16387168  1
  La  La144  1  0.84246038  0.22214480  0.21100707  1
  La  La145  1  0.01090655  0.59284820  0.24383039  1
  La  La146  1  0.67356115  0.84482465  0.18127884  1
  La  La147  1  0.49688630  0.47544099  0.14959884  1
  La  La148  1  0.02863437  0.59358184  0.33576447  1
  La  La149  1  0.19882980  0.22271325  0.36874053  1
  La  La150  1  0.85679919  0.97275061  0.30611066  1
  La  La151  1  0.68010274  0.34328680  0.27355829  1
  La  La152  1  0.01958710  0.28222422  0.28979977  1
  La  La153  1  0.51988263  0.03404366  0.28974987  1
  La  La154  1  0.51937327  0.53424975  0.28981753  1
  La  La155  1  0.02013351  0.78439334  0.28979185  1
  La  La156  1  0.52411871  0.72292736  0.33649574  1
  La  La157  1  0.69843935  0.09358609  0.36924467  1
  La  La158  1  0.35753969  0.34425035  0.30584913  1
  La  La159  1  0.18189666  0.97395871  0.27339974  1
  La  La160  1  0.71336897  0.09305287  0.46362523  1
  La  La161  1  0.89752752  0.71787796  0.49134952  1
  La  La162  1  0.54267993  0.47561335  0.42998628  1
  La  La163  1  0.36672404  0.84513992  0.39842650  1
  La  La164  1  0.70609547  0.78041367  0.41510428  1
  La  La165  1  0.20702923  0.53482053  0.41544477  1
  La  La166  1  0.20366494  0.03390796  0.41489609  1
  La  La167  1  0.70328844  0.28356197  0.41592167  1
  La  La168  1  0.20827477  0.21940951  0.46272797  1
  La  La169  1  0.38003032  0.60969261  0.49562100  1
  La  La170  1  0.04276179  0.84257677  0.42950322  1
  La  La171  1  0.86561793  0.47355516  0.39883996  1
  La  La172  1  0.20174098  0.98286350  0.55230897  1
  La  La173  1  0.04804682  0.33990443  0.51963208  1
  La  La174  1  0.39805263  0.26770948  0.54043365  1
  La  La175  1  0.89115347  0.03008113  0.54000994  1
  La  La176  1  0.88773057  0.55063756  0.53631979  1
  La  La177  1  0.38507534  0.78693257  0.53842725  1
  La  La178  1  0.69452993  0.32661173  0.55353987  1
  La  La179  1  0.54677139  0.96690506  0.51878500  1
  Zr  Zr180  1  0.75008001  0.41823006  0.09732609  1
  Zr  Zr181  1  0.40006594  0.14401835  0.03485559  1
  Zr  Zr182  1  0.74821440  0.91034000  0.10325145  1
  Zr  Zr183  1  0.90374555  0.66451949  0.03335152  1
  Zr  Zr184  1  0.90381542  0.16078096  0.03438209  1
  Zr  Zr185  1  0.25015090  0.41087903  0.09945106  1
  Zr  Zr186  1  0.24103248  0.89922482  0.10041383  1
  Zr  Zr187  1  0.42692096  0.90870035  0.22690829  1
  Zr  Zr188  1  0.08866301  0.15759990  0.16412422  1
  Zr  Zr189  1  0.08423206  0.65685209  0.16689608  1
  Zr  Zr190  1  0.42577031  0.40826256  0.22719694  1
  Zr  Zr191  1  0.58755263  0.16094909  0.16443277  1
  Zr  Zr192  1  0.58365939  0.66084268  0.16349931  1
  Zr  Zr193  1  0.92932053  0.90989940  0.22776901  1
  Zr  Zr194  1  0.92543905  0.40782475  0.22671427  1
  Zr  Zr195  1  0.11370719  0.40769479  0.35288042  1
  Zr  Zr196  1  0.76920409  0.65994750  0.29007913  1
  Zr  Zr197  1  0.76919354  0.15918930  0.29027796  1
  Zr  Zr198  1  0.11082208  0.91026158  0.35186578  1
  Zr  Zr199  1  0.27043294  0.66024912  0.28957842  1
  Zr  Zr200  1  0.26944067  0.15862197  0.28917108  1
  Zr  Zr201  1  0.61238502  0.40802902  0.35235826  1
  Zr  Zr202  1  0.61239534  0.90865283  0.35262598  1
  Zr  Zr203  1  0.79914496  0.89960423  0.47915366  1
  Zr  Zr204  1  0.45366934  0.16107839  0.41533612  1
  Zr  Zr205  1  0.45626864  0.66106649  0.41613269  1
  Zr  Zr206  1  0.78960295  0.41119262  0.48014732  1
  Zr  Zr207  1  0.95274196  0.15763999  0.41577808  1
  Zr  Zr208  1  0.95598131  0.65683545  0.41284049  1
  Zr  Zr209  1  0.29206825  0.91036003  0.47648232  1
  Zr  Zr210  1  0.29064713  0.41846936  0.48215385  1
  Zr  Zr211  1  0.13645316  0.66443756  0.54632663  1
  Zr  Zr212  1  0.13699316  0.16072362  0.54529800  1
  Zr  Zr213  1  0.64052275  0.14391120  0.54490667  1
  O  O214  1  0.90711031  0.95651600  0.11987338  1
  O  O215  1  0.58840927  0.86406568  0.09112869  1
  O  O216  1  0.43578418  0.24916755  0.06156329  1
  O  O217  1  0.35894965  0.03594208  0.02299649  1
  O  O218  1  0.53709105  0.70867180  0.07052166  1
  O  O219  1  0.64713196  0.32324470  0.09436927  1
  O  O220  1  0.83368780  0.51568541  0.10612413  1
  O  O221  1  0.30171987  0.21700075  0.00899976  1
  O  O222  1  0.48143618  0.09210610  0.07707935  1
  O  O223  1  0.69750786  0.99660527  0.07116033  1
  O  O224  1  0.89613388  0.34984351  0.10820845  1
  O  O225  1  0.60285461  0.47792304  0.07799172  1
  O  O226  1  0.53421187  0.37376216  0.02566429  1
  O  O227  1  0.27136213  0.89872470  0.05113778  1
  O  O228  1  0.33640545  0.45729010  0.05967699  1
  O  O229  1  0.73948274  0.17222869  0.06829979  1
  O  O230  1  0.05450695  0.13178750  0.01469053  1
  O  O231  1  0.02090719  0.59924235  0.01060766  1
  O  O232  1  0.79918734  0.70780101  0.07580686  1
  O  O233  1  0.82478616  0.42031128  0.04860188  1
  O  O234  1  0.02059576  0.93059908  0.02842016  1
  O  O235  1  0.27321378  0.61762461  0.07469475  1
  O  O236  1  0.50034421  0.86934431  0.02513030  1
  O  O237  1  0.55620371  0.16907957  0.01645781  1
  O  O238  1  0.23757379  0.13963933  0.06620501  1
  O  O239  1  0.82559519  0.86763010  0.06134869  1
  O  O240  1  0.77387657  0.58123381  0.03916521  1
  O  O241  1  0.02726238  0.75280473  0.04434193  1
  O  O242  1  0.79520621  0.09449114  0.01055681  1
  O  O243  1  0.98500424  0.22245989  0.07571089  1
  O  O244  1  0.20257843  0.32337177  0.06890085  1
  O  O245  1  0.39238845  0.96283225  0.11226612  1
  O  O246  1  0.07955473  0.84430330  0.09566262  1
  O  O247  1  0.01055555  0.61154573  0.07506613  1
  O  O248  1  0.81153313  0.74263729  0.01022822  1
  O  O249  1  0.85883001  0.27313065  0.02156832  1
  O  O250  1  0.93587748  0.06244185  0.06217218  1
  O  O251  1  0.08842206  0.45783367  0.08206908  1
  O  O252  1  0.40966201  0.36560913  0.11770148  1
  O  O253  1  0.32636010  0.79631823  0.10103988  1
  O  O254  1  0.15487643  0.99989615  0.09756857  1
  O  O255  1  0.58576617  0.45578091  0.24359665  1
  O  O256  1  0.26785149  0.36141986  0.21010933  1
  O  O257  1  0.12363100  0.75689522  0.18680034  1
  O  O258  1  0.04929288  0.55446818  0.14608893  1
  O  O259  1  0.96997663  0.11330052  0.13090439  1
  O  O260  1  0.20753397  0.20446135  0.19720996  1
  O  O261  1  0.34279668  0.80789215  0.22340872  1
  O  O262  1  0.51289258  0.00999566  0.22962157  1
  O  O263  1  0.99233334  0.71609500  0.13178337  1
  O  O264  1  0.16545472  0.59442305  0.20319473  1
  O  O265  1  0.79470351  0.82338669  0.13323088  1
  O  O266  1  0.37765837  0.49576602  0.19674553  1
  O  O267  1  0.58237629  0.84768076  0.23668310  1
  O  O268  1  0.27215336  0.97019989  0.21834741  1
  O  O269  1  0.97462571  0.24776470  0.16109771  1
  O  O270  1  0.20183322  0.06689319  0.16605929  1
  O  O271  1  0.21110381  0.89087275  0.15125322  1
  O  O272  1  0.95881961  0.41654103  0.17701459  1
  O  O273  1  0.01381733  0.95147341  0.18643403  1
  O  O274  1  0.16262763  0.36570214  0.14054987  1
  O  O275  1  0.42379925  0.66727784  0.19047203  1
  O  O276  1  0.74119790  0.65049244  0.13689560  1
  O  O277  1  0.69829136  0.11437108  0.12910631  1
  O  O278  1  0.47970382  0.20695182  0.20019724  1
  O  O279  1  0.46633837  0.89943484  0.17780640  1
  O  O280  1  0.70357729  0.42431830  0.14653586  1
  O  O281  1  0.97857792  0.11393514  0.20050636  1
  O  O282  1  0.19798100  0.20293866  0.12767274  1
  O  O283  1  0.23557185  0.66880742  0.13919172  1
  O  O284  1  0.92146574  0.64596578  0.19235083  1
  O  O285  1  0.66444302  0.95734521  0.14401844  1
  O  O286  1  0.51260047  0.36824462  0.18554546  1
  O  O287  1  0.47324877  0.07069342  0.16160704  1
  O  O288  1  0.70355789  0.25265891  0.16472283  1
  O  O289  1  0.49152719  0.60104058  0.12667753  1
  O  O290  1  0.66860778  0.71955362  0.20016266  1
  O  O291  1  0.29602740  0.49994704  0.12852098  1
  O  O292  1  0.87511102  0.81954099  0.20069744  1
  O  O293  1  0.07983705  0.46751975  0.23589066  1
  O  O294  1  0.76817458  0.34750282  0.21641258  1
  O  O295  1  0.70545898  0.11630693  0.19868742  1
  O  O296  1  0.47167651  0.20683984  0.13146224  1
  O  O297  1  0.54054850  0.76158593  0.14543890  1
  O  O298  1  0.62365428  0.55749443  0.18359591  1
  O  O299  1  0.77032538  0.95725921  0.21133712  1
  O  O300  1  0.08912691  0.86335304  0.24409229  1
  O  O301  1  0.01043301  0.30617823  0.22920553  1
  O  O302  1  0.83703603  0.50695104  0.22415719  1
  O  O303  1  0.26928528  0.95781449  0.36851880  1
  O  O304  1  0.95104368  0.86352898  0.33551138  1
  O  O305  1  0.81294825  0.25964206  0.31047862  1
  O  O306  1  0.72595571  0.05890175  0.27022380  1
  O  O307  1  0.65233618  0.61304520  0.25626121  1
  O  O308  1  0.88782070  0.70556289  0.32289515  1
  O  O309  1  0.02867918  0.30614299  0.35048206  1
  O  O310  1  0.20175573  0.50691621  0.35559097  1
  O  O311  1  0.68802565  0.22140557  0.25416638  1
  O  O312  1  0.85837614  0.09818884  0.32569617  1
  O  O313  1  0.47470206  0.32168257  0.25675561  1
  O  O314  1  0.06160645  0.99899935  0.32342299  1
  O  O315  1  0.27077376  0.34661607  0.36225450  1
  O  O316  1  0.95919326  0.46709210  0.34296297  1
  O  O317  1  0.65109951  0.74741229  0.28840982  1
  O  O318  1  0.88436879  0.56826264  0.29238742  1
  O  O319  1  0.89011783  0.39657959  0.27633006  1
  O  O320  1  0.64736602  0.91924732  0.30288071  1
  O  O321  1  0.69541417  0.45320620  0.31171054  1
  O  O322  1  0.84533774  0.86397133  0.26852455  1
  O  O323  1  0.11221277  0.16868556  0.31735233  1
  O  O324  1  0.42998711  0.14988409  0.26246188  1
  O  O325  1  0.37927386  0.61387555  0.25350981  1
  O  O326  1  0.16027067  0.70347567  0.32583308  1
  O  O327  1  0.14776946  0.39697792  0.30314415  1
  O  O328  1  0.39269457  0.91951239  0.27674942  1
  O  O329  1  0.66053388  0.61346565  0.32617703  1
  O  O330  1  0.87914874  0.70297813  0.25386480  1
  O  O331  1  0.92952680  0.16802332  0.26315506  1
  O  O332  1  0.61147670  0.14938589  0.31780954  1
  O  O333  1  0.34281631  0.45392618  0.26783810  1
  O  O334  1  0.19465307  0.86458836  0.31123588  1
  O  O335  1  0.15443201  0.56912881  0.28729995  1
  O  O336  1  0.38892602  0.74765053  0.29132778  1
  O  O337  1  0.18785423  0.09706803  0.25309603  1
  O  O338  1  0.35830784  0.22049197  0.32449498  1
  O  O339  1  0.97717532  0.99750675  0.25702478  1
  O  O340  1  0.56348491  0.32079950  0.32318705  1
  O  O341  1  0.76755146  0.97071663  0.36111856  1
  O  O342  1  0.45685121  0.84790673  0.34327787  1
  O  O343  1  0.38658677  0.61297000  0.32345454  1
  O  O344  1  0.15205991  0.70591069  0.25677533  1
  O  O345  1  0.22453095  0.25913420  0.26940705  1
  O  O346  1  0.31230459  0.05876516  0.30974740  1
  O  O347  1  0.45278106  0.45529467  0.33616395  1
  O  O348  1  0.77128981  0.36151873  0.36953106  1
  O  O349  1  0.69698786  0.80793881  0.35613611  1
  O  O350  1  0.52725016  0.01022169  0.35001173  1
  O  O351  1  0.95248872  0.45783275  0.49708898  1
  O  O352  1  0.63042637  0.36577786  0.46206272  1
  O  O353  1  0.49998306  0.76186503  0.43409005  1
  O  O354  1  0.41564345  0.55785986  0.39621060  1
  O  O355  1  0.33678490  0.11661786  0.38070362  1
  O  O356  1  0.56879309  0.20697683  0.44842904  1
  O  O357  1  0.71417524  0.79649470  0.47856831  1
  O  O358  1  0.88530773  0.00024860  0.48220258  1
  O  O359  1  0.37120334  0.71965960  0.37953265  1
  O  O360  1  0.54851942  0.60125802  0.45303710  1
  O  O361  1  0.16497739  0.81997794  0.37907719  1
  O  O362  1  0.74382276  0.50012348  0.45105271  1
  O  O363  1  0.96045512  0.84464844  0.48402436  1
  O  O364  1  0.64766269  0.96298731  0.46729795  1
  O  O365  1  0.33704097  0.25196274  0.41483089  1
  O  O366  1  0.56821621  0.07080195  0.41799567  1
  O  O367  1  0.57393833  0.89964544  0.40180347  1
  O  O368  1  0.33584045  0.42401037  0.43286270  1
  O  O369  1  0.37595142  0.95738647  0.43566928  1
  O  O370  1  0.52669621  0.36742880  0.39412885  1
  O  O371  1  0.80479599  0.66897383  0.44051192  1
  O  O372  1  0.11853978  0.64602332  0.38730464  1
  O  O373  1  0.06337724  0.11440692  0.37956225  1
  O  O374  1  0.84304687  0.20357278  0.45198920  1
  O  O375  1  0.82896516  0.89128614  0.42831083  1
  O  O376  1  0.07948152  0.41704106  0.40253105  1
  O  O377  1  0.34285970  0.11413745  0.45057620  1
  O  O378  1  0.56248511  0.20641945  0.37965114  1
  O  O379  1  0.61630399  0.66728738  0.38918794  1
  O  O380  1  0.29894090  0.65078740  0.44281147  1
  O  O381  1  0.02628129  0.95195220  0.39328004  1
  O  O382  1  0.87670524  0.36597556  0.43893669  1
  O  O383  1  0.83850463  0.06784082  0.41385543  1
  O  O384  1  0.06677800  0.24845874  0.41850193  1
  O  O385  1  0.87464476  0.59424616  0.37655372  1
  O  O386  1  0.04795926  0.71617696  0.44793788  1
  O  O387  1  0.66117082  0.49531086  0.38298626  1
  O  O388  1  0.24542046  0.82351592  0.44648588  1
  O  O389  1  0.43769987  0.47799928  0.50162444  1
  O  O390  1  0.14395635  0.35056156  0.47053176  1
  O  O391  1  0.07133900  0.11387243  0.44897327  1
  O  O392  1  0.83522466  0.20442275  0.38215071  1
  O  O393  1  0.91665965  0.75688786  0.39291660  1
  O  O394  1  0.99057925  0.55443921  0.43370287  1
  O  O395  1  0.13357862  0.95684244  0.45982329  1
  O  O396  1  0.45189559  0.86401573  0.48850467  1
  O  O397  1  0.39276398  0.32327150  0.48539718  1
  O  O398  1  0.20706870  0.51598541  0.47343029  1
  O  O399  1  0.18160067  0.27319605  0.55791716  1
  O  O400  1  0.10522852  0.06233765  0.51757097  1
  O  O401  1  0.03046486  0.61141749  0.50467728  1
  O  O402  1  0.22819223  0.74265961  0.56950406  1
  O  O403  1  0.05651244  0.22259334  0.50379619  1
  O  O404  1  0.24531098  0.09447022  0.56919527  1
  O  O405  1  0.83788530  0.32384597  0.51083268  1
  O  O406  1  0.01271323  0.75279440  0.53529295  1
  O  O407  1  0.26630133  0.58113169  0.54054057  1
  O  O408  1  0.21535652  0.42028626  0.53075877  1
  O  O409  1  0.01928968  0.93041848  0.55113238  1
  O  O410  1  0.21469391  0.86768586  0.51833126  1
  O  O411  1  0.48440386  0.16918857  0.56325356  1
  O  O412  1  0.80342461  0.13989266  0.51361324  1
  O  O413  1  0.76755019  0.61788394  0.50491849  1
  O  O414  1  0.53927954  0.86914234  0.55450302  1
  O  O415  1  0.50708278  0.37402249  0.55375853  1
  O  O416  1  0.76799546  0.89893645  0.52842405  1
  O  O417  1  0.01893522  0.59932781  0.56909017  1
  O  O418  1  0.24098738  0.70768914  0.50389903  1
  O  O419  1  0.30188015  0.17213532  0.51144617  1
  O  O420  1  0.98659548  0.13165090  0.56506789  1
  O  O421  1  0.70513371  0.45825237  0.51999453  1
  O  O422  1  0.55990444  0.09212801  0.50274115  1
  O  O423  1  0.73886644  0.21695142  0.57080052  1
  O  O424  1  0.34321438  0.99644131  0.50869386  1
  O  O425  1  0.50333525  0.70871522  0.50925837  1
  O  O426  1  0.60487897  0.24919839  0.51819525  1
  O  O427  1  0.68152918  0.03597418  0.55681261  1
