# generated using pymatgen
data_Li52La22Zr14O87
_symmetry_space_group_name_H-M   'P 1'
_cell_length_a   18.66058700
_cell_length_b   13.19488265
_cell_length_c   44.26921400
_cell_angle_alpha   90.00000000
_cell_angle_beta   90.00000000
_cell_angle_gamma   45.00062637
_symmetry_Int_Tables_number   1
_chemical_formula_structural   Li52La22Zr14O87
_chemical_formula_sum   'Li104 La44 Zr28 O174'
_cell_volume   7707.65725901
_cell_formula_units_Z   2
loop_
 _symmetry_equiv_pos_site_id
 _symmetry_equiv_pos_as_xyz
  1  'x, y, z'
loop_
 _atom_site_type_symbol
 _atom_site_label
 _atom_site_symmetry_multiplicity
 _atom_site_fract_x
 _atom_site_fract_y
 _atom_site_fract_z
 _atom_site_occupancy
  Li  Li0  1  0.09663718  0.15537581  0.10314349  1
  Li  Li1  1  0.75378950  0.83404024  0.13696892  1
  Li  Li2  1  0.08915878  0.99802646  0.13509627  1
  Li  Li3  1  0.75001906  0.00748779  0.10291427  1
  Li  Li4  1  0.25587815  0.33983504  0.10329385  1
  Li  Li5  1  0.59798142  0.67457748  0.14081758  1
  Li  Li6  1  0.26227746  0.49642404  0.13610152  1
  Li  Li7  1  0.60578355  0.48633821  0.10358151  1
  Li  Li8  1  0.50661353  0.74025114  0.09290320  1
  Li  Li9  1  0.88395386  0.21570482  0.02725381  1
  Li  Li10  1  0.99865783  0.58087024  0.01333892  1
  Li  Li11  1  0.34831446  0.40075211  0.08045526  1
  Li  Li12  1  0.84499590  0.75625617  0.08490510  1
  Li  Li13  1  0.49148867  0.26919593  0.01884273  1
  Li  Li14  1  0.34275888  0.93078335  0.00864045  1
  Li  Li15  1  0.99059060  0.10771853  0.08022182  1
  Li  Li16  1  0.32841663  0.00618132  0.06755677  1
  Li  Li17  1  0.04856290  0.94373549  0.03938175  1
  Li  Li18  1  0.85664057  0.64390464  0.03729928  1
  Li  Li19  1  0.51442080  0.32706406  0.06876982  1
  Li  Li20  1  0.01779012  0.49418970  0.06819685  1
  Li  Li21  1  0.35806677  0.49918236  0.03719412  1
  Li  Li22  1  0.48418873  0.84679374  0.03886160  1
  Li  Li23  1  0.81144956  0.19984671  0.07136703  1
  Li  Li24  1  0.17463029  0.25097669  0.08687196  1
  Li  Li25  1  0.18122028  0.72241519  0.01281322  1
  Li  Li26  1  0.67152273  0.74463866  0.01525100  1
  Li  Li27  1  0.67230750  0.24921109  0.08634517  1
  Li  Li28  1  0.59083007  0.16872261  0.24827346  1
  Li  Li29  1  0.25219682  0.83506590  0.28106653  1
  Li  Li30  1  0.59054995  0.00172273  0.27927310  1
  Li  Li31  1  0.25230309  0.01124485  0.24710908  1
  Li  Li32  1  0.76003345  0.33235524  0.24943115  1
  Li  Li33  1  0.09844386  0.66607880  0.28125412  1
  Li  Li34  1  0.75905053  0.50037327  0.28027035  1
  Li  Li35  1  0.09813837  0.48961952  0.24741460  1
  Li  Li36  1  0.99850673  0.74894086  0.23318818  1
  Li  Li37  1  0.35511908  0.24805060  0.16073995  1
  Li  Li38  1  0.49885176  0.61129763  0.15110649  1
  Li  Li39  1  0.85372494  0.39420398  0.22557272  1
  Li  Li40  1  0.35299184  0.75114630  0.23268535  1
  Li  Li41  1  0.99900660  0.25206893  0.15450759  1
  Li  Li42  1  0.85328036  0.88995443  0.15141845  1
  Li  Li43  1  0.49486044  0.10778985  0.22399511  1
  Li  Li44  1  0.84100894  0.00104313  0.20796915  1
  Li  Li45  1  0.51216325  0.98977547  0.17610601  1
  Li  Li46  1  0.34363329  0.66778643  0.17710778  1
  Li  Li47  1  0.01197210  0.33342655  0.20859477  1
  Li  Li48  1  0.50993353  0.50016237  0.20824930  1
  Li  Li49  1  0.83968720  0.50720186  0.17705551  1
  Li  Li50  1  0.00598561  0.83628409  0.17759021  1
  Li  Li51  1  0.33556994  0.16851146  0.20975373  1
  Li  Li52  1  0.67493116  0.25075480  0.22848647  1
  Li  Li53  1  0.67664344  0.75122005  0.15755880  1
  Li  Li54  1  0.17445933  0.75164382  0.15676691  1
  Li  Li55  1  0.17439894  0.25127664  0.22834583  1
  Li  Li56  1  0.08786975  0.17039446  0.39204632  1
  Li  Li57  1  0.74437988  0.84796814  0.42476061  1
  Li  Li58  1  0.09393639  0.00193375  0.42545371  1
  Li  Li59  1  0.75260225  0.01943146  0.38801195  1
  Li  Li60  1  0.26071975  0.32616255  0.39325699  1
  Li  Li61  1  0.60010819  0.65730323  0.42590664  1
  Li  Li62  1  0.25355859  0.49880911  0.42533552  1
  Li  Li63  1  0.59667151  0.49109851  0.39159355  1
  Li  Li64  1  0.49668745  0.74608048  0.37718346  1
  Li  Li65  1  0.85444440  0.24766423  0.30482182  1
  Li  Li66  1  0.99800016  0.60709912  0.29595609  1
  Li  Li67  1  0.35140850  0.39999731  0.37398817  1
  Li  Li68  1  0.85120236  0.75814119  0.37742911  1
  Li  Li69  1  0.49589543  0.25204802  0.30318060  1
  Li  Li70  1  0.35143167  0.89530713  0.29549924  1
  Li  Li71  1  0.99451227  0.10908656  0.36793260  1
  Li  Li72  1  0.34364797  0.99877076  0.35142197  1
  Li  Li73  1  0.01436022  0.98983206  0.31890587  1
  Li  Li74  1  0.84078721  0.67056945  0.32032155  1
  Li  Li75  1  0.50989741  0.33716456  0.35168103  1
  Li  Li76  1  0.00678545  0.50391807  0.35132749  1
  Li  Li77  1  0.33733857  0.50792611  0.31998746  1
  Li  Li78  1  0.50850850  0.83221034  0.32073847  1
  Li  Li79  1  0.83739722  0.16465029  0.35284015  1
  Li  Li80  1  0.17551322  0.25041837  0.37171577  1
  Li  Li81  1  0.17581031  0.75004825  0.30019160  1
  Li  Li82  1  0.67528343  0.75055281  0.30020842  1
  Li  Li83  1  0.67366613  0.25368178  0.37120691  1
  Li  Li84  1  0.00665046  0.76564235  0.51974857  1
  Li  Li85  1  0.35961376  0.23917570  0.44799326  1
  Li  Li86  1  0.50415303  0.59705045  0.44379106  1
  Li  Li87  1  0.85908896  0.40136784  0.50934766  1
  Li  Li88  1  0.35127336  0.72658919  0.51618846  1
  Li  Li89  1  0.00306698  0.24649163  0.44808245  1
  Li  Li90  1  0.84348027  0.90413132  0.43593758  1
  Li  Li91  1  0.46629983  0.13263970  0.50081253  1
  Li  Li92  1  0.86437557  0.96721302  0.48984641  1
  Li  Li93  1  0.53878807  0.97198546  0.45695700  1
  Li  Li94  1  0.33181679  0.68018112  0.46049542  1
  Li  Li95  1  0.99196209  0.36616856  0.49137938  1
  Li  Li96  1  0.49205698  0.50956495  0.49128734  1
  Li  Li97  1  0.83641553  0.50489693  0.45956751  1
  Li  Li98  1  0.02150603  0.81281371  0.46121674  1
  Li  Li99  1  0.30208936  0.19014193  0.48895751  1
  Li  Li100  1  0.67683053  0.24001993  0.51346731  1
  Li  Li101  1  0.67819005  0.74331161  0.44217638  1
  Li  Li102  1  0.17547912  0.75020566  0.44184725  1
  Li  Li103  1  0.16941076  0.23482271  0.51582959  1
  La  La104  1  0.29859250  0.87448622  0.11997138  1
  La  La105  1  0.54606260  0.12649531  0.11953662  1
  La  La106  1  0.05205452  0.62529839  0.12030382  1
  La  La107  1  0.80344316  0.37889579  0.12124091  1
  La  La108  1  0.67466017  0.74932033  0.08511802  1
  La  La109  1  0.65747592  0.26290939  0.01738252  1
  La  La110  1  0.17243935  0.25289825  0.01842155  1
  La  La111  1  0.18497997  0.74041059  0.08664453  1
  La  La112  1  0.93702936  0.36412604  0.05234987  1
  La  La113  1  0.44440309  0.61849589  0.05161851  1
  La  La114  1  0.41571961  0.13356419  0.04996898  1
  La  La115  1  0.92173463  0.86406045  0.05216672  1
  La  La116  1  0.80103441  0.87551515  0.26408484  1
  La  La117  1  0.04505964  0.13082903  0.26412232  1
  La  La118  1  0.54913730  0.62698276  0.26450101  1
  La  La119  1  0.30503832  0.37055742  0.26446048  1
  La  La120  1  0.17541711  0.75065220  0.22826796  1
  La  La121  1  0.17560763  0.25092833  0.15699495  1
  La  La122  1  0.67579133  0.24918638  0.15729238  1
  La  La123  1  0.67501166  0.75105208  0.22879549  1
  La  La124  1  0.42622207  0.37243035  0.19284807  1
  La  La125  1  0.92625317  0.63186860  0.19303350  1
  La  La126  1  0.92585095  0.12859875  0.19232885  1
  La  La127  1  0.42330306  0.87103126  0.19305187  1
  La  La128  1  0.29788297  0.87942925  0.40827565  1
  La  La129  1  0.54658348  0.13587392  0.40732027  1
  La  La130  1  0.05149750  0.62156032  0.40854354  1
  La  La131  1  0.80402480  0.36852428  0.40910187  1
  La  La132  1  0.67420139  0.75062502  0.37124822  1
  La  La133  1  0.67498239  0.25092344  0.29989567  1
  La  La134  1  0.17483319  0.25114322  0.30023065  1
  La  La135  1  0.17435043  0.75238625  0.37163301  1
  La  La136  1  0.92357515  0.37505011  0.33562467  1
  La  La137  1  0.42363523  0.63415471  0.33557729  1
  La  La138  1  0.42430682  0.12989172  0.33625254  1
  La  La139  1  0.92675389  0.86776821  0.33557973  1
  La  La140  1  0.17710012  0.74755785  0.51023902  1
  La  La141  1  0.16521041  0.26008001  0.44181605  1
  La  La142  1  0.67518041  0.24901338  0.44353949  1
  La  La143  1  0.69276456  0.72745031  0.51112037  1
  La  La144  1  0.41311254  0.38800565  0.47634087  1
  La  La145  1  0.90546810  0.65739388  0.47677253  1
  La  La146  1  0.93447192  0.11478594  0.47862357  1
  La  La147  1  0.42817606  0.85737304  0.47651152  1
  Zr  Zr148  1  0.42395387  0.99950243  0.12125107  1
  Zr  Zr149  1  0.42837794  0.49629597  0.12194951  1
  Zr  Zr150  1  0.92533317  0.50507613  0.12234516  1
  Zr  Zr151  1  0.92136363  0.00640478  0.12034892  1
  Zr  Zr152  1  0.17453852  0.99357919  0.04350984  1
  Zr  Zr153  1  0.67223314  0.99418602  0.04372319  1
  Zr  Zr154  1  0.17296752  0.50756397  0.04383134  1
  Zr  Zr155  1  0.68683221  0.49098716  0.04495488  1
  Zr  Zr156  1  0.92490491  0.00138450  0.26413544  1
  Zr  Zr157  1  0.92498910  0.50126292  0.26425973  1
  Zr  Zr158  1  0.42509666  0.50063365  0.26437662  1
  Zr  Zr159  1  0.42534229  0.00067517  0.26453187  1
  Zr  Zr160  1  0.67480022  0.99996056  0.19226862  1
  Zr  Zr161  1  0.17389169  0.00046742  0.19209178  1
  Zr  Zr162  1  0.67498897  0.50045951  0.19303086  1
  Zr  Zr163  1  0.17594556  0.50154756  0.19234479  1
  Zr  Zr164  1  0.42884920  0.99859167  0.40824197  1
  Zr  Zr165  1  0.42452818  0.50603616  0.40632825  1
  Zr  Zr166  1  0.92194182  0.50251967  0.40649121  1
  Zr  Zr167  1  0.92624843  0.99722860  0.40739165  1
  Zr  Zr168  1  0.17415722  0.00315440  0.33614520  1
  Zr  Zr169  1  0.67503506  0.00060288  0.33563353  1
  Zr  Zr170  1  0.17622956  0.49831613  0.33646190  1
  Zr  Zr171  1  0.67519212  0.49934251  0.33638417  1
  Zr  Zr172  1  0.66318615  0.01435239  0.48353325  1
  Zr  Zr173  1  0.17739974  0.00302869  0.48492440  1
  Zr  Zr174  1  0.67781222  0.48846206  0.48492921  1
  Zr  Zr175  1  0.17553576  0.49226012  0.48493857  1
  O  O176  1  0.77114689  0.20933870  0.11234899  1
  O  O177  1  0.07003512  0.80929317  0.12857676  1
  O  O178  1  0.77864177  0.59408068  0.13187800  1
  O  O179  1  0.07230349  0.41260246  0.11168387  1
  O  O180  1  0.57160491  0.29384398  0.11046948  1
  O  O181  1  0.28150293  0.69798034  0.13131212  1
  O  O182  1  0.57149646  0.90521272  0.13109699  1
  O  O183  1  0.27786246  0.08906549  0.11125202  1
  O  O184  1  0.95709594  0.32411945  0.10736588  1
  O  O185  1  0.89624545  0.68343407  0.13695981  1
  O  O186  1  0.94825643  0.12669956  0.13598838  1
  O  O187  1  0.89378439  0.88033874  0.10552030  1
  O  O188  1  0.39751430  0.17405248  0.10373914  1
  O  O189  1  0.45589985  0.81740029  0.13598766  1
  O  O190  1  0.40136525  0.37540348  0.13753270  1
  O  O191  1  0.45999057  0.61764149  0.10637458  1
  O  O192  1  0.64958662  0.58500905  0.09107112  1
  O  O193  1  0.75148215  0.32451593  0.01446638  1
  O  O194  1  0.13421965  0.46845615  0.00722589  1
  O  O195  1  0.20844919  0.52956443  0.09261652  1
  O  O196  1  0.70343075  0.91436236  0.09212527  1
  O  O197  1  0.62825604  0.11693764  0.00742175  1
  O  O198  1  0.20906662  0.03811401  0.00655640  1
  O  O199  1  0.13932810  0.96981442  0.09237650  1
  O  O200  1  0.47834860  0.90599034  0.07827515  1
  O  O201  1  0.98904237  0.45697991  0.02588266  1
  O  O202  1  0.37225605  0.52247337  0.07822581  1
  O  O203  1  0.87056945  0.58983974  0.07872583  1
  O  O204  1  0.48585790  0.42181198  0.02496085  1
  O  O205  1  0.36126644  0.04014318  0.02490778  1
  O  O206  1  0.95394908  0.00280365  0.07298561  1
  O  O207  1  0.32328464  0.86811692  0.06374220  1
  O  O208  1  0.02033201  0.11555515  0.03605569  1
  O  O209  1  0.82628579  0.81246255  0.03622097  1
  O  O210  1  0.52365490  0.17668413  0.06320327  1
  O  O211  1  0.02564089  0.62653198  0.06573272  1
  O  O212  1  0.32363710  0.39489276  0.03552951  1
  O  O213  1  0.53825437  0.66413048  0.03126822  1
  O  O214  1  0.83334307  0.31849687  0.06757649  1
  O  O215  1  0.12645019  0.18763399  0.06133791  1
  O  O216  1  0.21075482  0.80168359  0.03649249  1
  O  O217  1  0.61628163  0.90239733  0.03778766  1
  O  O218  1  0.73230342  0.09407723  0.05742426  1
  O  O219  1  0.22450839  0.31116566  0.06064791  1
  O  O220  1  0.09851478  0.72736573  0.03566517  1
  O  O221  1  0.74514293  0.57935591  0.03689775  1
  O  O222  1  0.62485433  0.40824257  0.06185855  1
  O  O223  1  0.27784267  0.20261030  0.25430399  1
  O  O224  1  0.57216373  0.79959500  0.27394272  1
  O  O225  1  0.27768736  0.59428661  0.27417860  1
  O  O226  1  0.57213432  0.40806330  0.25480528  1
  O  O227  1  0.07231926  0.29986276  0.25445410  1
  O  O228  1  0.77801438  0.70286836  0.27392404  1
  O  O229  1  0.07233331  0.90808831  0.27431336  1
  O  O230  1  0.77810255  0.09380081  0.25469630  1
  O  O231  1  0.45057635  0.32612768  0.24837453  1
  O  O232  1  0.39486650  0.68209955  0.27883101  1
  O  O233  1  0.45068547  0.12382567  0.28082655  1
  O  O234  1  0.39468607  0.88036922  0.24988368  1
  O  O235  1  0.89964206  0.17516487  0.24777848  1
  O  O236  1  0.95575961  0.81956047  0.27874637  1
  O  O237  1  0.89931478  0.37788341  0.28020185  1
  O  O238  1  0.95525640  0.62211989  0.24970774  1
  O  O239  1  0.14286668  0.58770143  0.23660380  1
  O  O240  1  0.21317783  0.40848296  0.14839284  1
  O  O241  1  0.64249399  0.48546640  0.14856663  1
  O  O242  1  0.71140339  0.51947277  0.23699357  1
  O  O243  1  0.20857410  0.91185085  0.23628957  1
  O  O244  1  0.14004465  0.08782588  0.14782675  1
  O  O245  1  0.70778945  0.02071125  0.14811396  1
  O  O246  1  0.63775309  0.98209942  0.23630088  1
  O  O247  1  0.97979403  0.90924640  0.22023684  1
  O  O248  1  0.36893403  0.08917048  0.16501377  1
  O  O249  1  0.48404141  0.48013139  0.16483303  1
  O  O250  1  0.87090147  0.52186672  0.22037596  1
  O  O251  1  0.37069563  0.59162734  0.22024915  1
  O  O252  1  0.98218443  0.41123052  0.16561371  1
  O  O253  1  0.86956572  0.01837627  0.16389003  1
  O  O254  1  0.47817242  0.98026096  0.22035317  1
  O  O255  1  0.82385745  0.87782798  0.20883389  1
  O  O256  1  0.52432364  0.12007720  0.17794312  1
  O  O257  1  0.32311665  0.82732288  0.17600979  1
  O  O258  1  0.02510437  0.17837883  0.20800412  1
  O  O259  1  0.52569255  0.62520687  0.20935525  1
  O  O260  1  0.82577048  0.37961797  0.17905823  1
  O  O261  1  0.02820892  0.67506690  0.17598648  1
  O  O262  1  0.32708806  0.31986650  0.20709673  1
  O  O263  1  0.62030029  0.20144250  0.20234013  1
  O  O264  1  0.73065132  0.79814530  0.18292949  1
  O  O265  1  0.11830718  0.90959438  0.18276085  1
  O  O266  1  0.22778507  0.09444070  0.20241328  1
  O  O267  1  0.72812662  0.29947050  0.20177405  1
  O  O268  1  0.62041465  0.70355730  0.18319078  1
  O  O269  1  0.22991263  0.59403280  0.18279478  1
  O  O270  1  0.12250333  0.40747539  0.20251478  1
  O  O271  1  0.77867282  0.19829252  0.39751335  1
  O  O272  1  0.07225237  0.79477087  0.41741241  1
  O  O273  1  0.77872900  0.58641388  0.41804429  1
  O  O274  1  0.06880208  0.41052063  0.39720018  1
  O  O275  1  0.57116817  0.30193776  0.39683457  1
  O  O276  1  0.27751835  0.70740457  0.41693381  1
  O  O277  1  0.57903855  0.90100570  0.41617237  1
  O  O278  1  0.28026941  0.09864076  0.39979426  1
  O  O279  1  0.94880976  0.32764427  0.39093447  1
  O  O280  1  0.89007394  0.68715570  0.42203440  1
  O  O281  1  0.95258494  0.11907659  0.42489515  1
  O  O282  1  0.89449155  0.87885619  0.39269817  1
  O  O283  1  0.40168298  0.17294149  0.39267763  1
  O  O284  1  0.45622533  0.81758244  0.42316593  1
  O  O285  1  0.39306463  0.38813717  0.42124171  1
  O  O286  1  0.45381238  0.62583257  0.39161693  1
  O  O287  1  0.64225815  0.58590940  0.38052824  1
  O  O288  1  0.71247434  0.40710026  0.29232626  1
  O  O289  1  0.14195298  0.47890359  0.29221387  1
  O  O290  1  0.21012335  0.51779137  0.38072054  1
  O  O291  1  0.70768780  0.91980833  0.38003678  1
  O  O292  1  0.63846803  0.09262583  0.29170105  1
  O  O293  1  0.20714008  0.02314016  0.29189054  1
  O  O294  1  0.13690211  0.98456154  0.38010686  1
  O  O295  1  0.48062154  0.90691624  0.36469513  1
  O  O296  1  0.87194438  0.08637891  0.30831448  1
  O  O297  1  0.97980046  0.48294057  0.30830205  1
  O  O298  1  0.36766999  0.52585114  0.36305750  1
  O  O299  1  0.86631600  0.59772086  0.36362527  1
  O  O300  1  0.47888923  0.41372939  0.30829793  1
  O  O301  1  0.37021421  0.01868171  0.30837821  1
  O  O302  1  0.98097410  0.97733539  0.36363772  1
  O  O303  1  0.32193655  0.88130558  0.35247723  1
  O  O304  1  0.02296757  0.12401186  0.32140025  1
  O  O305  1  0.82426685  0.82727260  0.31923995  1
  O  O306  1  0.52419800  0.18129311  0.34972876  1
  O  O307  1  0.02699302  0.62317164  0.35244026  1
  O  O308  1  0.32525036  0.37818439  0.32056175  1
  O  O309  1  0.52622336  0.67472009  0.31973838  1
  O  O310  1  0.82577636  0.31865633  0.35066703  1
  O  O311  1  0.12004949  0.20359039  0.34579115  1
  O  O312  1  0.22778205  0.80213738  0.32602700  1
  O  O313  1  0.62184149  0.90593914  0.32686261  1
  O  O314  1  0.72978134  0.09406664  0.34559062  1
  O  O315  1  0.23172264  0.29629740  0.34583627  1
  O  O316  1  0.12254739  0.69995346  0.32622061  1
  O  O317  1  0.72942348  0.59217012  0.32628910  1
  O  O318  1  0.61975914  0.40868345  0.34572339  1
  O  O319  1  0.14057914  0.60590421  0.52194673  1
  O  O320  1  0.21060185  0.39856419  0.43607810  1
  O  O321  1  0.64631126  0.47107750  0.43658323  1
  O  O322  1  0.72232831  0.52285692  0.52112835  1
  O  O323  1  0.21577876  0.88647792  0.52150673  1
  O  O324  1  0.14207375  0.09589560  0.43593637  1
  O  O325  1  0.70052760  0.03424477  0.43737928  1
  O  O326  1  0.59861278  0.97730195  0.51401436  1
  O  O327  1  0.98865483  0.91226328  0.50365211  1
  O  O328  1  0.39617458  0.06047583  0.45553584  1
  O  O329  1  0.47863726  0.48190398  0.45002268  1
  O  O330  1  0.86417345  0.54365045  0.50346478  1
  O  O331  1  0.36094718  0.58459965  0.50301632  1
  O  O332  1  0.97803000  0.41668134  0.45023033  1
  O  O333  1  0.87136006  0.01336182  0.45037184  1
  O  O334  1  0.81185912  0.89044205  0.49716163  1
  O  O335  1  0.51677099  0.13470099  0.46089000  1
  O  O336  1  0.32438933  0.82768693  0.46283365  1
  O  O337  1  0.02678776  0.19231806  0.49304297  1
  O  O338  1  0.52374203  0.61527679  0.49260876  1
  O  O339  1  0.82642609  0.37362576  0.46539449  1
  O  O340  1  0.02673386  0.66438633  0.46476229  1
  O  O341  1  0.32970929  0.30595245  0.49234186  1
  O  O342  1  0.60478899  0.21946940  0.49165998  1
  O  O343  1  0.72518529  0.80805662  0.46657330  1
  O  O344  1  0.12550091  0.91014345  0.46806527  1
  O  O345  1  0.25192015  0.07378063  0.49306613  1
  O  O346  1  0.73357552  0.28497819  0.49092015  1
  O  O347  1  0.61802674  0.70821947  0.47111376  1
  O  O348  1  0.22358047  0.59065895  0.46730762  1
  O  O349  1  0.13931487  0.37285787  0.49193260  1
