# generated using pymatgen
data_Li68La30Zr18O115
_symmetry_space_group_name_H-M   'P 1'
_cell_length_a   11.27162600
_cell_length_b   18.66058700
_cell_length_c   41.87959700
_cell_angle_alpha   90.00000000
_cell_angle_beta   90.00000000
_cell_angle_gamma   89.99896220
_symmetry_Int_Tables_number   1
_chemical_formula_structural   Li68La30Zr18O115
_chemical_formula_sum   'Li136 La60 Zr36 O230'
_cell_volume   8808.75163541
_cell_formula_units_Z   2
loop_
 _symmetry_equiv_pos_site_id
 _symmetry_equiv_pos_as_xyz
  1  'x, y, z'
loop_
 _atom_site_type_symbol
 _atom_site_label
 _atom_site_symmetry_multiplicity
 _atom_site_fract_x
 _atom_site_fract_y
 _atom_site_fract_z
 _atom_site_occupancy
  Li  Li0  1  0.15551844  0.24048798  0.01274642  1
  Li  Li1  1  0.53125483  0.24131418  0.11659798  1
  Li  Li2  1  0.92163063  0.32097920  0.00926140  1
  Li  Li3  1  0.73091671  0.16662164  0.11053941  1
  Li  Li4  1  0.28842272  0.97725800  0.02599530  1
  Li  Li5  1  0.44358340  0.47016031  0.10609720  1
  Li  Li6  1  0.30503776  0.90307340  0.07392369  1
  Li  Li7  1  0.43335195  0.55859624  0.06765492  1
  Li  Li8  1  0.61204400  0.53048871  0.04053656  1
  Li  Li9  1  0.09829167  0.95545761  0.04291182  1
  Li  Li10  1  0.33058674  0.61367729  0.11194760  1
  Li  Li11  1  0.36169487  0.86663019  0.01674306  1
  Li  Li12  1  0.56947886  0.18756915  0.06601273  1
  Li  Li13  1  0.09919719  0.30269308  0.06290431  1
  Li  Li14  1  0.87013883  0.61303141  0.01498092  1
  Li  Li15  1  0.83421773  0.87394756  0.10889908  1
  Li  Li16  1  0.80465455  0.58316295  0.07197213  1
  Li  Li17  1  0.89439881  0.92806091  0.05302660  1
  Li  Li18  1  0.61332736  0.19391039  0.01410785  1
  Li  Li19  1  0.03283681  0.24431195  0.11619752  1
  Li  Li20  1  0.41797527  0.14483975  0.01533458  1
  Li  Li21  1  0.21993532  0.32772586  0.11022548  1
  Li  Li22  1  0.79795204  0.49977079  0.02477009  1
  Li  Li23  1  0.93402250  0.00313053  0.09810957  1
  Li  Li24  1  0.93676014  0.62085306  0.12276975  1
  Li  Li25  1  0.43475115  0.36001901  0.12379542  1
  Li  Li26  1  0.43923784  0.86668823  0.12220005  1
  Li  Li27  1  0.93952514  0.12175649  0.12385619  1
  Li  Li28  1  0.84268260  0.74281109  0.12720097  1
  Li  Li29  1  0.22225911  0.74711551  0.24060081  1
  Li  Li30  1  0.65007962  0.82986074  0.13587604  1
  Li  Li31  1  0.41164833  0.66242720  0.23448403  1
  Li  Li32  1  0.95246745  0.49820726  0.15123545  1
  Li  Li33  1  0.11511147  0.99367735  0.22040350  1
  Li  Li34  1  0.99717871  0.41052806  0.20126464  1
  Li  Li35  1  0.06708469  0.07531461  0.17201177  1
  Li  Li36  1  0.29436456  0.04712242  0.18094212  1
  Li  Li37  1  0.78121637  0.44423787  0.18337710  1
  Li  Li38  1  0.02283889  0.11909313  0.23280960  1
  Li  Li39  1  0.02597624  0.36674538  0.14511735  1
  Li  Li40  1  0.28851865  0.69439172  0.18245902  1
  Li  Li41  1  0.79199666  0.79757682  0.18118373  1
  Li  Li42  1  0.54535353  0.11581382  0.14052342  1
  Li  Li43  1  0.53539938  0.36872603  0.22628769  1
  Li  Li44  1  0.50349821  0.07749076  0.20073966  1
  Li  Li45  1  0.56068798  0.41310240  0.16971314  1
  Li  Li46  1  0.33995343  0.74480501  0.12720290  1
  Li  Li47  1  0.72395677  0.74414705  0.24072283  1
  Li  Li48  1  0.14687510  0.65873417  0.13598665  1
  Li  Li49  1  0.90810089  0.82672433  0.23508134  1
  Li  Li50  1  0.45799025  0.98838370  0.15003589  1
  Li  Li51  1  0.61175930  0.49740090  0.22151526  1
  Li  Li52  1  0.62496449  0.11977412  0.24823229  1
  Li  Li53  1  0.12429305  0.86925548  0.24811540  1
  Li  Li54  1  0.12411150  0.36922994  0.24843625  1
  Li  Li55  1  0.62283800  0.62013234  0.24823502  1
  Li  Li56  1  0.52162239  0.24401762  0.25585777  1
  Li  Li57  1  0.91024777  0.24777925  0.36739104  1
  Li  Li58  1  0.33961501  0.32738144  0.26168236  1
  Li  Li59  1  0.10272767  0.16058343  0.35990744  1
  Li  Li60  1  0.63857419  0.99748243  0.27574119  1
  Li  Li61  1  0.79424587  0.48935450  0.34621521  1
  Li  Li62  1  0.68561138  0.91050887  0.32678547  1
  Li  Li63  1  0.74581619  0.57744875  0.29520834  1
  Li  Li64  1  0.95830068  0.54805188  0.31375648  1
  Li  Li65  1  0.47044659  0.94128587  0.31007139  1
  Li  Li66  1  0.71590314  0.61785048  0.35344104  1
  Li  Li67  1  0.71508506  0.86889987  0.26902326  1
  Li  Li68  1  0.96152059  0.19101061  0.31355512  1
  Li  Li69  1  0.45834730  0.29759231  0.31461212  1
  Li  Li70  1  0.22752985  0.61943766  0.26341960  1
  Li  Li71  1  0.21865189  0.86910366  0.35239807  1
  Li  Li72  1  0.18306907  0.57860653  0.32492774  1
  Li  Li73  1  0.24935356  0.91160223  0.29541755  1
  Li  Li74  1  0.02485665  0.24660108  0.25557456  1
  Li  Li75  1  0.40932310  0.23862800  0.36770603  1
  Li  Li76  1  0.83596587  0.16085066  0.26219556  1
  Li  Li77  1  0.60132709  0.32670032  0.36006928  1
  Li  Li78  1  0.13524834  0.49426005  0.27659365  1
  Li  Li79  1  0.29681849  0.99649012  0.34564566  1
  Li  Li80  1  0.30960363  0.61947503  0.37338572  1
  Li  Li81  1  0.80899425  0.36840996  0.37356234  1
  Li  Li82  1  0.80956619  0.86814859  0.37374060  1
  Li  Li83  1  0.30892676  0.11823245  0.37362955  1
  Li  Li84  1  0.20855084  0.74423100  0.38103373  1
  Li  Li85  1  0.59323123  0.74519127  0.49485896  1
  Li  Li86  1  0.02629560  0.82765926  0.38697224  1
  Li  Li87  1  0.78702546  0.65829589  0.48613909  1
  Li  Li88  1  0.32044003  0.49485668  0.40103357  1
  Li  Li89  1  0.47608046  0.98864316  0.47227702  1
  Li  Li90  1  0.37028505  0.41291260  0.44960707  1
  Li  Li91  1  0.43261136  0.07724367  0.42177621  1
  Li  Li92  1  0.64006348  0.04653216  0.44163200  1
  Li  Li93  1  0.14538689  0.44317338  0.43991682  1
  Li  Li94  1  0.38931537  0.11597990  0.48210823  1
  Li  Li95  1  0.41323585  0.36768776  0.38999580  1
  Li  Li96  1  0.64416943  0.69435921  0.43987988  1
  Li  Li97  1  0.14269123  0.79737922  0.44043782  1
  Li  Li98  1  0.91531953  0.11945683  0.38838072  1
  Li  Li99  1  0.90968927  0.36781581  0.47637806  1
  Li  Li100  1  0.86733267  0.07539706  0.44998955  1
  Li  Li101  1  0.93369489  0.41089538  0.42016578  1
  Li  Li102  1  0.71061812  0.74525583  0.38117788  1
  Li  Li103  1  0.09092718  0.74317139  0.49461420  1
  Li  Li104  1  0.52666191  0.66198685  0.38701514  1
  Li  Li105  1  0.28397371  0.82985943  0.48614979  1
  Li  Li106  1  0.81885498  0.99397810  0.40145460  1
  Li  Li107  1  0.97837091  0.49997533  0.47100808  1
  Li  Li108  1  0.99468090  0.12222966  0.49828277  1
  Li  Li109  1  0.49453726  0.86678105  0.49962312  1
  Li  Li110  1  0.49765314  0.36057076  0.49792772  1
  Li  Li111  1  0.99742070  0.62115181  0.49954688  1
  Li  Li112  1  0.90051897  0.24495759  0.50593320  1
  Li  Li113  1  0.32022944  0.19416163  0.60833460  1
  Li  Li114  1  0.71506902  0.32782071  0.51166367  1
  Li  Li115  1  0.51507092  0.14660254  0.60662958  1
  Li  Li116  1  0.99962178  0.00322402  0.52403146  1
  Li  Li117  1  0.13275737  0.49831907  0.59825656  1
  Li  Li118  1  0.03941655  0.92783790  0.56881809  1
  Li  Li119  1  0.13112234  0.58234037  0.55059826  1
  Li  Li120  1  0.32080681  0.52957352  0.58175428  1
  Li  Li121  1  0.83544055  0.95436925  0.57918243  1
  Li  Li122  1  0.06246486  0.61320990  0.60723126  1
  Li  Li123  1  0.09835891  0.87408806  0.51295316  1
  Li  Li124  1  0.36476567  0.18800805  0.55651324  1
  Li  Li125  1  0.83457646  0.30183867  0.55954129  1
  Li  Li126  1  0.60250486  0.61388227  0.50975277  1
  Li  Li127  1  0.57112223  0.86662113  0.60525537  1
  Li  Li128  1  0.49986437  0.55895826  0.55464928  1
  Li  Li129  1  0.62821772  0.90289881  0.54831250  1
  Li  Li130  1  0.40242693  0.24250687  0.50588643  1
  Li  Li131  1  0.77764989  0.24006458  0.60928750  1
  Li  Li132  1  0.20324208  0.16661021  0.51225392  1
  Li  Li133  1  0.01016386  0.32079507  0.61310040  1
  Li  Li134  1  0.49126650  0.47101895  0.51615740  1
  Li  Li135  1  0.64506879  0.97748290  0.59635993  1
  La  La136  1  0.60233675  0.68112018  0.10627360  1
  La  La137  1  0.10990430  0.79984955  0.01566919  1
  La  La138  1  0.44761740  0.04526529  0.07612382  1
  La  La139  1  0.28726884  0.42888828  0.04817602  1
  La  La140  1  0.59859672  0.36626371  0.06057212  1
  La  La141  1  0.09447073  0.11894595  0.06155475  1
  La  La142  1  0.08652620  0.62457412  0.06049876  1
  La  La143  1  0.58453491  0.86062976  0.05989878  1
  La  La144  1  0.10309495  0.80901088  0.10600779  1
  La  La145  1  0.61349591  0.68498877  0.01591279  1
  La  La146  1  0.93059864  0.43852232  0.07942090  1
  La  La147  1  0.76435967  0.07616101  0.04831003  1
  La  La148  1  0.28580061  0.17860359  0.23183105  1
  La  La149  1  0.77403476  0.30899432  0.13925378  1
  La  La150  1  0.11899685  0.55836810  0.20153993  1
  La  La151  1  0.94906043  0.92963771  0.17045056  1
  La  La152  1  0.28306272  0.86997654  0.18545833  1
  La  La153  1  0.78165930  0.62100624  0.18574870  1
  La  La154  1  0.78425701  0.11848628  0.18622609  1
  La  La155  1  0.27960754  0.36778240  0.18623326  1
  La  La156  1  0.78734509  0.30858110  0.23207186  1
  La  La157  1  0.27759763  0.17883175  0.13716417  1
  La  La158  1  0.62266437  0.92981538  0.20235461  1
  La  La159  1  0.44616024  0.56110573  0.17194380  1
  La  La160  1  0.97155867  0.68098392  0.35781741  1
  La  La161  1  0.45985404  0.80872654  0.26429540  1
  La  La162  1  0.80381531  0.05797773  0.32675353  1
  La  La163  1  0.62746941  0.42856649  0.29454233  1
  La  La164  1  0.96642834  0.36922243  0.31099462  1
  La  La165  1  0.46722002  0.11934451  0.31099144  1
  La  La166  1  0.46574908  0.61904744  0.31087225  1
  La  La167  1  0.96692189  0.86893940  0.31089162  1
  La  La168  1  0.47278330  0.80862038  0.35760399  1
  La  La169  1  0.96205252  0.67933956  0.26435751  1
  La  La170  1  0.30292534  0.43060443  0.32708457  1
  La  La171  1  0.12964927  0.05879233  0.29525834  1
  La  La172  1  0.65657915  0.17885107  0.48493791  1
  La  La173  1  0.14913459  0.30901120  0.39021416  1
  La  La174  1  0.48639033  0.56056293  0.45000019  1
  La  La175  1  0.31148546  0.92971602  0.41975149  1
  La  La176  1  0.65083100  0.86980481  0.43640449  1
  La  La177  1  0.15142086  0.62074672  0.43613560  1
  La  La178  1  0.15074167  0.11852335  0.43600345  1
  La  La179  1  0.65395480  0.36776936  0.43588329  1
  La  La180  1  0.15986773  0.30852169  0.48306322  1
  La  La181  1  0.64962454  0.17831949  0.39047434  1
  La  La182  1  0.98475892  0.92976884  0.45153251  1
  La  La183  1  0.81235656  0.55891468  0.41996342  1
  La  La184  1  0.31922955  0.68485417  0.60602474  1
  La  La185  1  0.83009116  0.80898729  0.51604518  1
  La  La186  1  0.16967513  0.07609541  0.57398899  1
  La  La187  1  0.00220161  0.43852978  0.54264237  1
  La  La188  1  0.33450508  0.36670229  0.56149004  1
  La  La189  1  0.83955685  0.11857769  0.56064268  1
  La  La190  1  0.84689818  0.62461054  0.56153602  1
  La  La191  1  0.34866800  0.86059297  0.56202010  1
  La  La192  1  0.82303865  0.79953463  0.60643649  1
  La  La193  1  0.33064269  0.68078186  0.51557825  1
  La  La194  1  0.64621745  0.42884323  0.57376064  1
  La  La195  1  0.48625033  0.04534544  0.54619805  1
  Zr  Zr196  1  0.68374286  0.50001041  0.12145525  1
  Zr  Zr197  1  0.34836226  0.73114414  0.05730900  1
  Zr  Zr198  1  0.33906889  0.24785512  0.05754095  1
  Zr  Zr199  1  0.69554890  0.99451147  0.12381741  1
  Zr  Zr200  1  0.84886770  0.75356603  0.05754464  1
  Zr  Zr201  1  0.84834647  0.25121261  0.05922836  1
  Zr  Zr202  1  0.18887582  0.49128049  0.12326393  1
  Zr  Zr203  1  0.18896901  0.99169927  0.12099777  1
  Zr  Zr204  1  0.37492561  0.99498518  0.24819375  1
  Zr  Zr205  1  0.03285208  0.24288430  0.18567974  1
  Zr  Zr206  1  0.03256126  0.74386538  0.18538098  1
  Zr  Zr207  1  0.37410921  0.49289072  0.24869072  1
  Zr  Zr208  1  0.53064146  0.24137652  0.18556986  1
  Zr  Zr209  1  0.53149992  0.74631632  0.18542909  1
  Zr  Zr210  1  0.87597790  0.99327699  0.24859215  1
  Zr  Zr211  1  0.87327234  0.49418041  0.24815154  1
  Zr  Zr212  1  0.05942353  0.49448716  0.37374956  1
  Zr  Zr213  1  0.71634390  0.74342279  0.31095744  1
  Zr  Zr214  1  0.71669580  0.24419586  0.31096517  1
  Zr  Zr215  1  0.05841181  0.99342213  0.37345863  1
  Zr  Zr216  1  0.21580013  0.74358167  0.31067859  1
  Zr  Zr217  1  0.21609909  0.24420532  0.31079920  1
  Zr  Zr218  1  0.55844670  0.49331946  0.37317025  1
  Zr  Zr219  1  0.55873896  0.99475028  0.37380183  1
  Zr  Zr220  1  0.74516700  0.99156759  0.50118878  1
  Zr  Zr221  1  0.40369187  0.24182940  0.43667307  1
  Zr  Zr222  1  0.40189950  0.74568577  0.43639290  1
  Zr  Zr223  1  0.74391793  0.49151323  0.49858271  1
  Zr  Zr224  1  0.90199489  0.24317626  0.43654251  1
  Zr  Zr225  1  0.90114321  0.74397812  0.43674032  1
  Zr  Zr226  1  0.23840235  0.99449678  0.49831502  1
  Zr  Zr227  1  0.24931746  0.49921877  0.50038340  1
  Zr  Zr228  1  0.08426647  0.75367327  0.56439196  1
  Zr  Zr229  1  0.08516811  0.25121723  0.56322036  1
  Zr  Zr230  1  0.58451187  0.73102883  0.56467463  1
  Zr  Zr231  1  0.59482056  0.24795741  0.56441346  1
  O  O232  1  0.53612190  0.94702706  0.10882224  1
  O  O233  1  0.38544417  0.34509477  0.08110532  1
  O  O234  1  0.26395887  0.16357645  0.02991940  1
  O  O235  1  0.22064312  0.69185152  0.02727202  1
  O  O236  1  0.46601092  0.78364509  0.09390984  1
  O  O237  1  0.58975105  0.40154125  0.11792323  1
  O  O238  1  0.23182606  0.31879098  0.03045188  1
  O  O239  1  0.42489866  0.18076279  0.09266291  1
  O  O240  1  0.64307286  0.08613914  0.09745030  1
  O  O241  1  0.19391804  0.90618355  0.00833168  1
  O  O242  1  0.52116514  0.55749414  0.11489139  1
  O  O243  1  0.23078671  0.81899277  0.06078307  1
  O  O244  1  0.47899085  0.64964617  0.05654054  1
  O  O245  1  0.48092402  0.46726436  0.04712277  1
  O  O246  1  0.22371768  0.00496354  0.07045291  1
  O  O247  1  0.28104750  0.53261393  0.08355999  1
  O  O248  1  0.43245208  0.93946576  0.04363094  1
  O  O249  1  0.68441336  0.25946602  0.08779436  1
  O  O250  1  0.00318374  0.25005679  0.03214446  1
  O  O251  1  0.95687240  0.69855156  0.02578297  1
  O  O252  1  0.74130257  0.79493340  0.09632189  1
  O  O253  1  0.72631132  0.48936549  0.07239910  1
  O  O254  1  0.96568813  0.02283742  0.04742565  1
  O  O255  1  0.24109886  0.69131923  0.09635995  1
  O  O256  1  0.45723088  0.78393694  0.02499347  1
  O  O257  1  0.49740004  0.25396204  0.03348698  1
  O  O258  1  0.18423118  0.23328569  0.08876538  1
  O  O259  1  0.94542859  0.53719181  0.04160610  1
  O  O260  1  0.77572241  0.95627014  0.08181860  1
  O  O261  1  0.73036752  0.66742861  0.06145414  1
  O  O262  1  0.97265150  0.83971502  0.05564840  1
  O  O263  1  0.76540485  0.18858775  0.02630323  1
  O  O264  1  0.92954999  0.31182629  0.09770403  1
  O  O265  1  0.55261738  0.10200381  0.03335046  1
  O  O266  1  0.13944083  0.40666372  0.09030425  1
  O  O267  1  0.70624601  0.57800625  0.00849680  1
  O  O268  1  0.03051776  0.93084131  0.11559672  1
  O  O269  1  0.96694818  0.70366869  0.09398479  1
  O  O270  1  0.72208339  0.79321930  0.02701226  1
  O  O271  1  0.81166224  0.35580198  0.03860428  1
  O  O272  1  0.88688992  0.15314930  0.08218952  1
  O  O273  1  0.03054567  0.54022834  0.10940206  1
  O  O274  1  0.10096899  0.09180213  0.11787994  1
  O  O275  1  0.85486890  0.04133696  0.14058655  1
  O  O276  1  0.21520377  0.44686053  0.23140178  1
  O  O277  1  0.07728778  0.84425538  0.20561061  1
  O  O278  1  0.98972876  0.64289805  0.16537335  1
  O  O279  1  0.91312558  0.19952582  0.15189795  1
  O  O280  1  0.14661482  0.28948840  0.21979201  1
  O  O281  1  0.28932093  0.89436346  0.24523839  1
  O  O282  1  0.77019023  0.59851429  0.12524538  1
  O  O283  1  0.93986682  0.80453355  0.15122744  1
  O  O284  1  0.11757830  0.68204785  0.22147171  1
  O  O285  1  0.74500729  0.90503297  0.15169028  1
  O  O286  1  0.32267836  0.58317911  0.22052514  1
  O  O287  1  0.83560574  0.43722804  0.13239614  1
  O  O288  1  0.21891524  0.05614985  0.24063326  1
  O  O289  1  0.91443486  0.33369080  0.18280632  1
  O  O290  1  0.14988430  0.15554114  0.18648650  1
  O  O291  1  0.15822245  0.98356198  0.17159982  1
  O  O292  1  0.90792023  0.50498838  0.19839237  1
  O  O293  1  0.96058464  0.03906835  0.20791777  1
  O  O294  1  0.10397884  0.44752314  0.16407775  1
  O  O295  1  0.37128204  0.75622238  0.21247232  1
  O  O296  1  0.68745956  0.73474220  0.15790304  1
  O  O297  1  0.64181888  0.19946508  0.14932703  1
  O  O298  1  0.42164635  0.28882684  0.22119918  1
  O  O299  1  0.41196275  0.98360523  0.19870633  1
  O  O300  1  0.65128667  0.50743621  0.17191436  1
  O  O301  1  0.92142173  0.19931180  0.22182523  1
  O  O302  1  0.14039307  0.29013113  0.15000527  1
  O  O303  1  0.18783511  0.75459241  0.15716433  1
  O  O304  1  0.87224479  0.73404044  0.21240074  1
  O  O305  1  0.61153247  0.03873698  0.16506164  1
  O  O306  1  0.45786855  0.45004763  0.20749543  1
  O  O307  1  0.41406879  0.15279974  0.18375259  1
  O  O308  1  0.64409034  0.33384006  0.18709055  1
  O  O309  1  0.43720130  0.68410854  0.15184963  1
  O  O310  1  0.61466600  0.80658672  0.22212581  1
  O  O311  1  0.24135918  0.58028379  0.15136126  1
  O  O312  1  0.82596148  0.90596748  0.21944971  1
  O  O313  1  0.34351590  0.05196278  0.13191739  1
  O  O314  1  0.71807456  0.43224042  0.23921557  1
  O  O315  1  0.64955911  0.19700456  0.21888443  1
  O  O316  1  0.41486353  0.28325235  0.15062858  1
  O  O317  1  0.49042320  0.84641011  0.16517236  1
  O  O318  1  0.57231975  0.64500790  0.20607866  1
  O  O319  1  0.71609885  0.04027509  0.23224500  1
  O  O320  1  0.34420722  0.43936382  0.14083602  1
  O  O321  1  0.27457350  0.89227869  0.12362852  1
  O  O322  1  0.78739807  0.59459177  0.24516202  1
  O  O323  1  0.53424018  0.53968191  0.26463296  1
  O  O324  1  0.89973742  0.94695609  0.35663955  1
  O  O325  1  0.75702354  0.34495053  0.33133788  1
  O  O326  1  0.67565783  0.14349979  0.29074981  1
  O  O327  1  0.59858016  0.69733616  0.27755206  1
  O  O328  1  0.83319034  0.78968180  0.34470874  1
  O  O329  1  0.97373690  0.39355689  0.37090807  1
  O  O330  1  0.46010910  0.09534068  0.25122044  1
  O  O331  1  0.63274180  0.30527812  0.27464070  1
  O  O332  1  0.80847992  0.18351209  0.34613618  1
  O  O333  1  0.42208255  0.40601589  0.27819356  1
  O  O334  1  0.00787196  0.08385974  0.34548481  1
  O  O335  1  0.52969501  0.93352820  0.25781567  1
  O  O336  1  0.90338191  0.55481803  0.36402988  1
  O  O337  1  0.60032475  0.83353993  0.30874994  1
  O  O338  1  0.83188683  0.65380994  0.31325505  1
  O  O339  1  0.83793979  0.48337351  0.29773114  1
  O  O340  1  0.59487841  0.00476850  0.32399469  1
  O  O341  1  0.64098813  0.53771410  0.33227296  1
  O  O342  1  0.79211176  0.94918562  0.28956670  1
  O  O343  1  0.05975635  0.25475027  0.33872766  1
  O  O344  1  0.37556670  0.23473410  0.28401427  1
  O  O345  1  0.32637263  0.70005086  0.27451039  1
  O  O346  1  0.10709478  0.78962933  0.34689664  1
  O  O347  1  0.09280357  0.48487339  0.32393903  1
  O  O348  1  0.34050475  0.00476896  0.29804208  1
  O  O349  1  0.60676430  0.69891209  0.34711024  1
  O  O350  1  0.82582416  0.78857483  0.27495465  1
  O  O351  1  0.87617379  0.25474741  0.28406800  1
  O  O352  1  0.55969738  0.23326546  0.33851672  1
  O  O353  1  0.29040911  0.53977412  0.28913590  1
  O  O354  1  0.14236224  0.94984736  0.33238252  1
  O  O355  1  0.09586168  0.65622247  0.30935919  1
  O  O356  1  0.33183486  0.83352926  0.31332728  1
  O  O357  1  0.13051241  0.18281330  0.27514658  1
  O  O358  1  0.30766295  0.30450794  0.34650854  1
  O  O359  1  0.92621165  0.08302663  0.27682816  1
  O  O360  1  0.50787520  0.40356951  0.34534347  1
  O  O361  1  0.02874372  0.55538062  0.25612386  1
  O  O362  1  0.40404897  0.93315636  0.36468331  1
  O  O363  1  0.33304932  0.69695754  0.34403162  1
  O  O364  1  0.09968024  0.79001300  0.27686716  1
  O  O365  1  0.17254918  0.34491120  0.29110727  1
  O  O366  1  0.25781112  0.14354502  0.33132978  1
  O  O367  1  0.39879661  0.53952794  0.35684258  1
  O  O368  1  0.03471885  0.94729575  0.26529642  1
  O  O369  1  0.95834365  0.39331022  0.25070878  1
  O  O370  1  0.47363048  0.09507216  0.37075391  1
  O  O371  1  0.21752727  0.04046429  0.39000319  1
  O  O372  1  0.58864931  0.43971162  0.48095567  1
  O  O373  1  0.44325519  0.84597671  0.45671752  1
  O  O374  1  0.35998022  0.64452654  0.41592878  1
  O  O375  1  0.28687939  0.19726996  0.40266842  1
  O  O376  1  0.51969863  0.28360545  0.47139998  1
  O  O377  1  0.65925795  0.89228022  0.49844690  1
  O  O378  1  0.14417311  0.59498570  0.37694838  1
  O  O379  1  0.31834848  0.80618956  0.39989260  1
  O  O380  1  0.49632477  0.68383888  0.47015073  1
  O  O381  1  0.10802650  0.90641277  0.40276492  1
  O  O382  1  0.69172275  0.58046200  0.47042944  1
  O  O383  1  0.21394219  0.43211427  0.38189331  1
  O  O384  1  0.59068978  0.05208048  0.49024992  1
  O  O385  1  0.28669798  0.33205920  0.43542700  1
  O  O386  1  0.52078851  0.15301959  0.43838789  1
  O  O387  1  0.52296012  0.98350345  0.42340296  1
  O  O388  1  0.28026918  0.50615399  0.44976292  1
  O  O389  1  0.32316215  0.03887741  0.45715658  1
  O  O390  1  0.47457346  0.44898541  0.41405445  1
  O  O391  1  0.74559336  0.75477818  0.46477941  1
  O  O392  1  0.06129594  0.73442484  0.40946530  1
  O  O393  1  0.01426426  0.19959428  0.40065112  1
  O  O394  1  0.79415762  0.29098064  0.47201461  1
  O  O395  1  0.77609158  0.98366471  0.45054300  1
  O  O396  1  0.02314194  0.50530943  0.42323000  1
  O  O397  1  0.29258137  0.19921778  0.47285378  1
  O  O398  1  0.51448161  0.28770047  0.40096358  1
  O  O399  1  0.56237425  0.75566378  0.40932610  1
  O  O400  1  0.24607696  0.73466937  0.46409459  1
  O  O401  1  0.97345000  0.03927495  0.41403978  1
  O  O402  1  0.82850405  0.44800327  0.45771421  1
  O  O403  1  0.78442232  0.15601491  0.43593994  1
  O  O404  1  0.01933642  0.33472077  0.43901765  1
  O  O405  1  0.81692049  0.68186189  0.40054770  1
  O  O406  1  0.99363676  0.80472124  0.47074236  1
  O  O407  1  0.60901395  0.58188682  0.40208232  1
  O  O408  1  0.18874704  0.90525139  0.47041073  1
  O  O409  1  0.71509516  0.05633041  0.38122768  1
  O  O410  1  0.09582600  0.43738603  0.48937029  1
  O  O411  1  0.02129467  0.20021627  0.47039330  1
  O  O412  1  0.78811297  0.28906934  0.40214330  1
  O  O413  1  0.85670727  0.84427703  0.41632796  1
  O  O414  1  0.94369646  0.64303770  0.45676866  1
  O  O415  1  0.07944796  0.04181223  0.48145328  1
  O  O416  1  0.71857652  0.44702550  0.39016049  1
  O  O417  1  0.64474630  0.89426027  0.37668828  1
  O  O418  1  0.16334901  0.59806214  0.49665752  1
  O  O419  1  0.90187572  0.54078298  0.51263288  1
  O  O420  1  0.12064333  0.35597826  0.58390124  1
  O  O421  1  0.04756624  0.15311271  0.54013625  1
  O  O422  1  0.96602994  0.70391829  0.52804019  1
  O  O423  1  0.21094711  0.79311192  0.59498010  1
  O  O424  1  0.83330853  0.09162866  0.50437609  1
  O  O425  1  0.00401024  0.31176042  0.52477031  1
  O  O426  1  0.16829681  0.18854401  0.59609355  1
  O  O427  1  0.79353914  0.40720140  0.53166415  1
  O  O428  1  0.38094776  0.10210877  0.58889139  1
  O  O429  1  0.90362760  0.93065778  0.50652924  1
  O  O430  1  0.22586387  0.57755490  0.61344929  1
  O  O431  1  0.96036566  0.83972787  0.56650236  1
  O  O432  1  0.20296782  0.66757468  0.56048655  1
  O  O433  1  0.20683084  0.48858484  0.54952008  1
  O  O434  1  0.96805478  0.02248824  0.57462675  1
  O  O435  1  0.98697588  0.53676155  0.58063932  1
  O  O436  1  0.15808738  0.95615107  0.54020722  1
  O  O437  1  0.43743590  0.25337317  0.58895163  1
  O  O438  1  0.74979223  0.23335376  0.53323727  1
  O  O439  1  0.69189278  0.69119253  0.52564386  1
  O  O440  1  0.47548436  0.78397267  0.59692945  1
  O  O441  1  0.45250804  0.46735265  0.57505194  1
  O  O442  1  0.70996231  0.00472915  0.55169338  1
  O  O443  1  0.97623064  0.69837584  0.59620013  1
  O  O444  1  0.19144194  0.79509198  0.52565150  1
  O  O445  1  0.24940046  0.25934215  0.53458729  1
  O  O446  1  0.93018224  0.24928885  0.59022529  1
  O  O447  1  0.65037580  0.53230554  0.53811266  1
  O  O448  1  0.50099161  0.93947481  0.57846554  1
  O  O449  1  0.45377440  0.64962544  0.56553219  1
  O  O450  1  0.70235515  0.81881907  0.56129231  1
  O  O451  1  0.50863763  0.18105877  0.52946017  1
  O  O452  1  0.70229949  0.31881720  0.59150612  1
  O  O453  1  0.29099328  0.08587424  0.52486950  1
  O  O454  1  0.41105695  0.55717721  0.50691039  1
  O  O455  1  0.73909397  0.90579948  0.61384330  1
  O  O456  1  0.71227719  0.69164420  0.59471296  1
  O  O457  1  0.46711297  0.78346469  0.52801220  1
  O  O458  1  0.54731034  0.34518345  0.54093624  1
  O  O459  1  0.66971185  0.16352876  0.59201585  1
  O  O460  1  0.39782288  0.94690353  0.51325005  1
  O  O461  1  0.34196262  0.40059744  0.50444745  1
