# generated using pymatgen
data_Li21La9Zr5O34
_symmetry_space_group_name_H-M   'P 1'
_cell_length_a   11.27162600
_cell_length_b   11.27162572
_cell_length_c   45.65416700
_cell_angle_alpha   90.00000000
_cell_angle_beta   90.00000000
_cell_angle_gamma   108.34782046
_symmetry_Int_Tables_number   1
_chemical_formula_structural   Li21La9Zr5O34
_chemical_formula_sum   'Li84 La36 Zr20 O136'
_cell_volume   5505.46986988
_cell_formula_units_Z   4
loop_
 _symmetry_equiv_pos_site_id
 _symmetry_equiv_pos_as_xyz
  1  'x, y, z'
loop_
 _atom_site_type_symbol
 _atom_site_label
 _atom_site_symmetry_multiplicity
 _atom_site_fract_x
 _atom_site_fract_y
 _atom_site_fract_z
 _atom_site_occupancy
  Li  Li0  1  0.59366931  0.72588789  0.04788139  1
  Li  Li1  1  0.86794863  0.79834773  0.15272551  1
  Li  Li2  1  0.46188400  0.87237299  0.03906274  1
  Li  Li3  1  0.01904523  0.64945213  0.14027827  1
  Li  Li4  1  0.43478211  0.25349311  0.17384344  1
  Li  Li5  1  0.04736356  0.30344978  0.02285149  1
  Li  Li6  1  0.46422011  0.21195251  0.11824812  1
  Li  Li7  1  0.02985577  0.32730690  0.07842497  1
  Li  Li8  1  0.03316588  0.11797064  0.04565302  1
  Li  Li9  1  0.44466771  0.43503132  0.13197602  1
  Li  Li10  1  0.87336683  0.29863404  0.04228685  1
  Li  Li11  1  0.64902563  0.22140234  0.16097682  1
  Li  Li12  1  0.05692453  0.80706474  0.18267222  1
  Li  Li13  1  0.51463884  0.68945041  0.00581738  1
  Li  Li14  1  0.03249385  0.84100925  0.11426627  1
  Li  Li15  1  0.47925513  0.67239223  0.09488546  1
  Li  Li16  1  0.99311448  0.88197200  0.05614115  1
  Li  Li17  1  0.52567838  0.66747758  0.14534798  1
  Li  Li18  1  0.58620431  0.21332442  0.04541567  1
  Li  Li19  1  0.88252268  0.30109174  0.15041361  1
  Li  Li20  1  0.68858056  0.38914346  0.01703972  1
  Li  Li21  1  0.76290350  0.06948310  0.17418313  1
  Li  Li22  1  0.20275264  0.00137044  0.07821752  1
  Li  Li23  1  0.28458281  0.54565352  0.12204456  1
  Li  Li24  1  0.81204230  0.73032576  0.02651156  1
  Li  Li25  1  0.67736546  0.83959775  0.17205483  1
  Li  Li26  1  0.43318930  0.05876493  0.07119657  1
  Li  Li27  1  0.05079600  0.45963225  0.12189309  1
  Li  Li28  1  0.09396540  0.25200942  0.24070983  1
  Li  Li29  1  0.35549228  0.32299682  0.35418334  1
  Li  Li30  1  0.95326148  0.39097446  0.25248908  1
  Li  Li31  1  0.49799868  0.18485254  0.34226196  1
  Li  Li32  1  0.90552064  0.76540366  0.37646092  1
  Li  Li33  1  0.54628748  0.81058327  0.21818986  1
  Li  Li34  1  0.94132820  0.72887600  0.31784866  1
  Li  Li35  1  0.51029672  0.84746179  0.27707526  1
  Li  Li36  1  0.51899462  0.63716029  0.25648447  1
  Li  Li37  1  0.93082048  0.93984717  0.33818174  1
  Li  Li38  1  0.33905389  0.82205469  0.23933909  1
  Li  Li39  1  0.11247144  0.75323510  0.35545671  1
  Li  Li40  1  0.55195002  0.32087390  0.39056623  1
  Li  Li41  1  0.89610373  0.25543752  0.20403653  1
  Li  Li42  1  0.50039430  0.37169369  0.30766475  1
  Li  Li43  1  0.95270299  0.20273682  0.28766326  1
  Li  Li44  1  0.44967911  0.39131910  0.25243564  1
  Li  Li45  1  0.00129727  0.18488288  0.34265144  1
  Li  Li46  1  0.08964635  0.75246817  0.24125677  1
  Li  Li47  1  0.36093220  0.82442277  0.35341174  1
  Li  Li48  1  0.20484416  0.96926183  0.22027314  1
  Li  Li49  1  0.24543097  0.60651145  0.37431882  1
  Li  Li50  1  0.67564459  0.51102243  0.27494587  1
  Li  Li51  1  0.77527670  0.06525251  0.31971680  1
  Li  Li52  1  0.29642726  0.21659651  0.22209761  1
  Li  Li53  1  0.15424777  0.35962039  0.37272959  1
  Li  Li54  1  0.91650522  0.59579743  0.27173461  1
  Li  Li55  1  0.53488702  0.98042602  0.32291748  1
  Li  Li56  1  0.58188718  0.77759807  0.44211869  1
  Li  Li57  1  0.85665912  0.85139647  0.54682983  1
  Li  Li58  1  0.43063446  0.92746286  0.45454639  1
  Li  Li59  1  0.98712948  0.70409674  0.55528029  1
  Li  Li60  1  0.40195735  0.27303164  0.57172274  1
  Li  Li61  1  0.01506349  0.32127303  0.42110876  1
  Li  Li62  1  0.42154142  0.24967972  0.51606848  1
  Li  Li63  1  0.98610099  0.36484546  0.47658229  1
  Li  Li64  1  0.00506490  0.14098912  0.46307720  1
  Li  Li65  1  0.41566811  0.45864275  0.54947346  1
  Li  Li66  1  0.80123873  0.35405007  0.43365523  1
  Li  Li67  1  0.57616291  0.27793909  0.55239243  1
  Li  Li68  1  0.93452623  0.88595010  0.58910519  1
  Li  Li69  1  0.39333290  0.76835418  0.41198565  1
  Li  Li70  1  0.97182575  0.90208707  0.50010882  1
  Li  Li71  1  0.41743143  0.73603300  0.48067969  1
  Li  Li72  1  0.92385069  0.90863040  0.44962490  1
  Li  Li73  1  0.45642255  0.69413269  0.53888696  1
  Li  Li74  1  0.56774604  0.27385735  0.44427720  1
  Li  Li75  1  0.86178922  0.36134197  0.54903850  1
  Li  Li76  1  0.68737897  0.50540316  0.42044784  1
  Li  Li77  1  0.76057777  0.18944358  0.57766625  1
  Li  Li78  1  0.16410040  0.02898468  0.47269177  1
  Li  Li79  1  0.24635307  0.57286417  0.51659634  1
  Li  Li80  1  0.77302523  0.73661930  0.42254140  1
  Li  Li81  1  0.63881014  0.84477568  0.56842764  1
  Li  Li82  1  0.39830292  0.11556453  0.47329036  1
  Li  Li83  1  0.01659911  0.51675777  0.52346090  1
  La  La84  1  0.74612608  0.01417941  0.04416635  1
  La  La85  1  0.73474777  0.51557866  0.14526579  1
  La  La86  1  0.24062964  0.02446835  0.14882314  1
  La  La87  1  0.25152617  0.52461169  0.05328436  1
  La  La88  1  0.32270576  0.18478889  0.02640302  1
  La  La89  1  0.17593343  0.33911880  0.17244792  1
  La  La90  1  0.93715650  0.58125779  0.06748571  1
  La  La91  1  0.55642606  0.95571887  0.12148989  1
  La  La92  1  0.55381949  0.45489994  0.06722417  1
  La  La93  1  0.92897642  0.07889586  0.11967835  1
  La  La94  1  0.18269647  0.84243212  0.02543119  1
  La  La95  1  0.29895376  0.71681880  0.17392001  1
  La  La96  1  0.23169847  0.53437838  0.24734539  1
  La  La97  1  0.21871549  0.04132291  0.34741464  1
  La  La98  1  0.71518650  0.53900082  0.34758236  1
  La  La99  1  0.73581916  0.03722891  0.24720943  1
  La  La100  1  0.79480695  0.71695084  0.22213665  1
  La  La101  1  0.65559694  0.85886576  0.37259820  1
  La  La102  1  0.41688104  0.09883291  0.27236808  1
  La  La103  1  0.03379554  0.47676049  0.32229640  1
  La  La104  1  0.03848667  0.97339143  0.27285455  1
  La  La105  1  0.41234673  0.60206182  0.32190554  1
  La  La106  1  0.67263301  0.34279305  0.22186481  1
  La  La107  1  0.77728038  0.23302229  0.37283031  1
  La  La108  1  0.71541829  0.06021058  0.44951406  1
  La  La109  1  0.70345884  0.56196618  0.55053439  1
  La  La110  1  0.19886105  0.05160909  0.54151340  1
  La  La111  1  0.20975875  0.55132904  0.44591892  1
  La  La112  1  0.27407014  0.23652726  0.42246044  1
  La  La113  1  0.12643554  0.39148252  0.56845795  1
  La  La114  1  0.89350074  0.62009562  0.47318782  1
  La  La115  1  0.51350878  0.99479887  0.52745884  1
  La  La116  1  0.52113153  0.49737280  0.47501311  1
  La  La117  1  0.89620961  0.12088070  0.52765300  1
  La  La118  1  0.15106681  0.85884899  0.42084219  1
  La  La119  1  0.26653842  0.73367049  0.56931221  1
  Zr  Zr120  1  0.48594113  0.52692788  0.19729607  1
  Zr  Zr121  1  0.74320981  0.26861990  0.09620556  1
  Zr  Zr122  1  0.98481803  0.02633605  0.19678514  1
  Zr  Zr123  1  0.24971641  0.77498960  0.09834326  1
  Zr  Zr124  1  0.74325541  0.76707450  0.09675432  1
  Zr  Zr125  1  0.98423568  0.52676915  0.19661540  1
  Zr  Zr126  1  0.48704588  0.02978208  0.19743446  1
  Zr  Zr127  1  0.24120330  0.26476884  0.09771525  1
  Zr  Zr128  1  0.96425481  0.04897224  0.39756508  1
  Zr  Zr129  1  0.22560239  0.78783707  0.29731741  1
  Zr  Zr130  1  0.46550374  0.54939885  0.39795067  1
  Zr  Zr131  1  0.72563215  0.28798764  0.29726390  1
  Zr  Zr132  1  0.22564143  0.28797943  0.29739025  1
  Zr  Zr133  1  0.46605626  0.04911211  0.39819767  1
  Zr  Zr134  1  0.96361803  0.54582825  0.39726637  1
  Zr  Zr135  1  0.72553854  0.78789646  0.29740399  1
  Zr  Zr136  1  0.70688724  0.30749826  0.49840787  1
  Zr  Zr137  1  0.20008381  0.80041442  0.49645121  1
  Zr  Zr138  1  0.70696867  0.80908445  0.49809378  1
  Zr  Zr139  1  0.20887641  0.31102944  0.49713814  1
  O  O140  1  0.14806063  0.58331705  0.09516149  1
  O  O141  1  0.35305627  0.96391605  0.10344261  1
  O  O142  1  0.17643625  0.13154948  0.19282974  1
  O  O143  1  0.87571162  0.42660149  0.11409647  1
  O  O144  1  0.61172083  0.10736000  0.07548601  1
  O  O145  1  0.64251656  0.66577385  0.17961753  1
  O  O146  1  0.45849054  0.57534427  0.03649785  1
  O  O147  1  0.01052637  0.94006835  0.15718286  1
  O  O148  1  0.30580944  0.74908771  0.05376415  1
  O  O149  1  0.16341911  0.79365180  0.13860372  1
  O  O150  1  0.56751836  0.39933890  0.17833125  1
  O  O151  1  0.90503737  0.16134875  0.02177756  1
  O  O152  1  0.61005151  0.34782151  0.11259088  1
  O  O153  1  0.87976736  0.19747096  0.08056878  1
  O  O154  1  0.17297227  0.28374643  0.05349593  1
  O  O155  1  0.32653997  0.26186091  0.13842105  1
  O  O156  1  0.02718169  0.44533260  0.04274027  1
  O  O157  1  0.47664813  0.11260112  0.15630000  1
  O  O158  1  0.91493211  0.66043614  0.17641914  1
  O  O159  1  0.61577041  0.84265930  0.01809110  1
  O  O160  1  0.88095606  0.70074608  0.11559292  1
  O  O161  1  0.59643409  0.82750115  0.08153931  1
  O  O162  1  0.13170253  0.01400174  0.03596403  1
  O  O163  1  0.37455280  0.52843368  0.16009972  1
  O  O164  1  0.74400852  0.36587998  0.05476677  1
  O  O165  1  0.74003577  0.15565010  0.13354316  1
  O  O166  1  0.52309898  0.32058199  0.02246774  1
  O  O167  1  0.94653716  0.17000816  0.17172293  1
  O  O168  1  0.10918392  0.82277753  0.07712636  1
  O  O169  1  0.38972156  0.73086125  0.12277536  1
  O  O170  1  0.86757269  0.92447977  0.07489571  1
  O  O171  1  0.60337774  0.60769502  0.11408486  1
  O  O172  1  0.82609915  0.38384118  0.18053799  1
  O  O173  1  0.29811878  0.91990960  0.19190336  1
  O  O174  1  0.13347956  0.07954147  0.10550487  1
  O  O175  1  0.35564486  0.45843326  0.09330294  1
  O  O176  1  0.72878885  0.64671584  0.05910795  1
  O  O177  1  0.74845243  0.88445770  0.13310198  1
  O  O178  1  0.38308349  0.00978676  0.03034472  1
  O  O179  1  0.09997532  0.52231810  0.16034503  1
  O  O180  1  0.97199660  0.72504744  0.02778178  1
  O  O181  1  0.52732446  0.88289919  0.17452155  1
  O  O182  1  0.38044901  0.20975916  0.07537337  1
  O  O183  1  0.09910186  0.31216575  0.11870479  1
  O  O184  1  0.62371305  0.09604348  0.29351798  1
  O  O185  1  0.82770748  0.47968713  0.30108797  1
  O  O186  1  0.79309108  0.92589121  0.20111912  1
  O  O187  1  0.65718306  0.64979463  0.39363485  1
  O  O188  1  0.35986991  0.94762016  0.31503377  1
  O  O189  1  0.09134773  0.62795861  0.27958360  1
  O  O190  1  0.12345303  0.18375972  0.37984308  1
  O  O191  1  0.32659229  0.39217852  0.21495263  1
  O  O192  1  0.96181183  0.10320590  0.23804510  1
  O  O193  1  0.48875736  0.47178934  0.35683124  1
  O  O194  1  0.80311567  0.26212628  0.25637704  1
  O  O195  1  0.64705702  0.31419755  0.33807999  1
  O  O196  1  0.03913020  0.91646285  0.37753157  1
  O  O197  1  0.41155145  0.65981938  0.21734610  1
  O  O198  1  0.09332380  0.86165375  0.31718646  1
  O  O199  1  0.35818858  0.71430216  0.27754185  1
  O  O200  1  0.64681449  0.79873749  0.25562886  1
  O  O201  1  0.80423780  0.77740632  0.33921343  1
  O  O202  1  0.49887568  0.94996840  0.23912145  1
  O  O203  1  0.95201717  0.62605998  0.35558964  1
  O  O204  1  0.39874450  0.18886665  0.37882856  1
  O  O205  1  0.05123185  0.38680958  0.21600024  1
  O  O206  1  0.36292594  0.22219320  0.31763900  1
  O  O207  1  0.08781028  0.35323430  0.27716842  1
  O  O208  1  0.59604243  0.52830147  0.23512685  1
  O  O209  1  0.85417234  0.04779811  0.35970916  1
  O  O210  1  0.22482132  0.89663158  0.25945419  1
  O  O211  1  0.22596911  0.67899711  0.33518964  1
  O  O212  1  0.02145439  0.87805167  0.22031250  1
  O  O213  1  0.42908089  0.69762960  0.37438791  1
  O  O214  1  0.57836417  0.32531752  0.27372319  1
  O  O215  1  0.87219338  0.25040761  0.32095122  1
  O  O216  1  0.36393810  0.44984291  0.28137304  1
  O  O217  1  0.08630844  0.12643590  0.31340465  1
  O  O218  1  0.14709082  0.66097043  0.21361606  1
  O  O219  1  0.30321609  0.91490374  0.38115482  1
  O  O220  1  0.77240811  0.43613538  0.39323168  1
  O  O221  1  0.67815695  0.13971172  0.20140255  1
  O  O222  1  0.61523864  0.59805367  0.30321226  1
  O  O223  1  0.83605870  0.97779743  0.29173614  1
  O  O224  1  0.23280546  0.17328566  0.26124086  1
  O  O225  1  0.21837012  0.40236180  0.33360777  1
  O  O226  1  0.87065039  0.53296975  0.23289061  1
  O  O227  1  0.57947500  0.04322652  0.36181781  1
  O  O228  1  0.45004240  0.17672030  0.22039492  1
  O  O229  1  0.00030843  0.39895108  0.37421873  1
  O  O230  1  0.87252914  0.74773483  0.27491919  1
  O  O231  1  0.57855571  0.82817188  0.31993873  1
  O  O232  1  0.09653690  0.61152064  0.49123338  1
  O  O233  1  0.30142610  0.99194965  0.49965633  1
  O  O234  1  0.27389064  0.44415195  0.40195824  1
  O  O235  1  0.83830551  0.46852755  0.51912658  1
  O  O236  1  0.57411255  0.14943912  0.48067544  1
  O  O237  1  0.80761510  0.91044896  0.41525697  1
  O  O238  1  0.43961620  0.63574964  0.43754764  1
  O  O239  1  0.99187082  0.00100781  0.55846452  1
  O  O240  1  0.28665649  0.78230529  0.45621226  1
  O  O241  1  0.14333800  0.82688992  0.54090808  1
  O  O242  1  0.54449436  0.41488424  0.57296785  1
  O  O243  1  0.88238742  0.17648923  0.41647438  1
  O  O244  1  0.57087592  0.37936426  0.51411987  1
  O  O245  1  0.84033371  0.22823817  0.48221617  1
  O  O246  1  0.12356245  0.31378262  0.45642788  1
  O  O247  1  0.27659428  0.29245250  0.54145053  1
  O  O248  1  0.97375345  0.46305163  0.43837564  1
  O  O249  1  0.42312096  0.13116639  0.55191874  1
  O  O250  1  0.83230363  0.73396798  0.57664965  1
  O  O251  1  0.53517463  0.91544921  0.41837579  1
  O  O252  1  0.85362878  0.74820118  0.51339420  1
  O  O253  1  0.56932537  0.87555697  0.47929320  1
  O  O254  1  0.07543378  0.04742464  0.43479444  1
  O  O255  1  0.31761295  0.56202088  0.55904798  1
  O  O256  1  0.71016908  0.42009994  0.46105204  1
  O  O257  1  0.70558813  0.21056001  0.53992636  1
  O  O258  1  0.50338002  0.40567194  0.42311358  1
  O  O259  1  0.92606792  0.25617725  0.57226776  1
  O  O260  1  0.05999675  0.84439622  0.47195643  1
  O  O261  1  0.34014036  0.75240331  0.51773815  1
  O  O262  1  0.84709320  0.96852565  0.48086064  1
  O  O263  1  0.58221245  0.65211283  0.51991213  1
  O  O264  1  0.62437987  0.19175137  0.41420356  1
  O  O265  1  0.15245134  0.65603238  0.40272115  1
  O  O266  1  0.09441346  0.11748310  0.50157474  1
  O  O267  1  0.31663998  0.49616740  0.48921304  1
  O  O268  1  0.70216176  0.69210128  0.46170144  1
  O  O269  1  0.72147260  0.92958351  0.53573906  1
  O  O270  1  0.35034408  0.05356009  0.43450744  1
  O  O271  1  0.06690069  0.56693818  0.56427772  1
  O  O272  1  0.92311843  0.69286920  0.42011729  1
  O  O273  1  0.47824087  0.85063584  0.56698136  1
  O  O274  1  0.35103996  0.26360110  0.47618723  1
  O  O275  1  0.07015307  0.36692137  0.51939998  1
