# generated using pymatgen
data_Li21La9Zr5O34
_symmetry_space_group_name_H-M   'P 1'
_cell_length_a   11.27162600
_cell_length_b   11.27162572
_cell_length_c   45.65416700
_cell_angle_alpha   90.00000000
_cell_angle_beta   90.00000000
_cell_angle_gamma   108.34782046
_symmetry_Int_Tables_number   1
_chemical_formula_structural   Li21La9Zr5O34
_chemical_formula_sum   'Li84 La36 Zr20 O136'
_cell_volume   5505.46986988
_cell_formula_units_Z   4
loop_
 _symmetry_equiv_pos_site_id
 _symmetry_equiv_pos_as_xyz
  1  'x, y, z'
loop_
 _atom_site_type_symbol
 _atom_site_label
 _atom_site_symmetry_multiplicity
 _atom_site_fract_x
 _atom_site_fract_y
 _atom_site_fract_z
 _atom_site_occupancy
  Li  Li0  1  0.60642773  0.73868136  0.04279383  1
  Li  Li1  1  0.88253522  0.81055590  0.14731418  1
  Li  Li2  1  0.47593409  0.88510965  0.03373943  1
  Li  Li3  1  0.03324068  0.66165836  0.13477212  1
  Li  Li4  1  0.44920549  0.26726324  0.16858024  1
  Li  Li5  1  0.06112440  0.31598921  0.01741961  1
  Li  Li6  1  0.47911387  0.22382502  0.11302652  1
  Li  Li7  1  0.04209964  0.33940312  0.07336572  1
  Li  Li8  1  0.04758282  0.13147669  0.03966424  1
  Li  Li9  1  0.45983582  0.44742329  0.12639972  1
  Li  Li10  1  0.88823648  0.31205001  0.03709119  1
  Li  Li11  1  0.66339501  0.23497627  0.15561973  1
  Li  Li12  1  0.07137842  0.81972026  0.17726671  1
  Li  Li13  1  0.53025365  0.70308431  0.00050529  1
  Li  Li14  1  0.04631828  0.85319482  0.10878739  1
  Li  Li15  1  0.49200700  0.68534682  0.08947681  1
  Li  Li16  1  0.00707542  0.89432329  0.05068545  1
  Li  Li17  1  0.54068636  0.68031299  0.13968877  1
  Li  Li18  1  0.60064759  0.22757834  0.04040102  1
  Li  Li19  1  0.89732016  0.31460807  0.14495180  1
  Li  Li20  1  0.70375241  0.39986705  0.01183485  1
  Li  Li21  1  0.77792091  0.08323887  0.16867809  1
  Li  Li22  1  0.21712133  0.01560438  0.07267681  1
  Li  Li23  1  0.30028851  0.55886703  0.11686266  1
  Li  Li24  1  0.82558829  0.74374861  0.02107646  1
  Li  Li25  1  0.69273130  0.85274884  0.16666488  1
  Li  Li26  1  0.44751938  0.07217910  0.06565572  1
  Li  Li27  1  0.06623726  0.47296498  0.11648075  1
  Li  Li28  1  0.10853792  0.26586004  0.23554389  1
  Li  Li29  1  0.37031364  0.33662471  0.34871314  1
  Li  Li30  1  0.96691536  0.40610284  0.24720453  1
  Li  Li31  1  0.51166604  0.19762501  0.33692253  1
  Li  Li32  1  0.91843617  0.77816536  0.37121569  1
  Li  Li33  1  0.56061875  0.82307566  0.21283500  1
  Li  Li34  1  0.95525888  0.74123895  0.31249398  1
  Li  Li35  1  0.52426175  0.86075667  0.27125629  1
  Li  Li36  1  0.53612959  0.64898270  0.25149315  1
  Li  Li37  1  0.94483451  0.95176748  0.33280371  1
  Li  Li38  1  0.35217936  0.83509541  0.23346571  1
  Li  Li39  1  0.12556539  0.76617111  0.35020588  1
  Li  Li40  1  0.56804028  0.33348746  0.38552311  1
  Li  Li41  1  0.91178494  0.26907173  0.19850250  1
  Li  Li42  1  0.51122665  0.38618619  0.30153320  1
  Li  Li43  1  0.96460027  0.21741179  0.28176034  1
  Li  Li44  1  0.46227229  0.40415346  0.24666253  1
  Li  Li45  1  0.01383701  0.19683095  0.33700097  1
  Li  Li46  1  0.10416030  0.76534944  0.23599956  1
  Li  Li47  1  0.37389478  0.83618234  0.34828139  1
  Li  Li48  1  0.21915360  0.98329938  0.21482445  1
  Li  Li49  1  0.25808284  0.61787737  0.36915557  1
  Li  Li50  1  0.68981854  0.52371248  0.26955776  1
  Li  Li51  1  0.78920277  0.07786366  0.31424863  1
  Li  Li52  1  0.31092589  0.22932420  0.21673570  1
  Li  Li53  1  0.16734414  0.37212278  0.36741769  1
  Li  Li54  1  0.92992964  0.60878108  0.26640038  1
  Li  Li55  1  0.54852828  0.99297620  0.31752105  1
  Li  Li56  1  0.59556019  0.79073816  0.43680383  1
  Li  Li57  1  0.86858883  0.86473110  0.54140072  1
  Li  Li58  1  0.44455207  0.93942048  0.44940012  1
  Li  Li59  1  0.00093615  0.71769300  0.54941664  1
  Li  Li60  1  0.41675508  0.28530971  0.56647587  1
  Li  Li61  1  0.02918989  0.33514937  0.41521488  1
  Li  Li62  1  0.43485590  0.26120499  0.51097081  1
  Li  Li63  1  0.00001735  0.37653409  0.47109143  1
  Li  Li64  1  0.01969866  0.15295972  0.45729395  1
  Li  Li65  1  0.43109059  0.47039382  0.54378172  1
  Li  Li66  1  0.81607419  0.36696412  0.42862640  1
  Li  Li67  1  0.59075758  0.28969036  0.54699214  1
  Li  Li68  1  0.94733048  0.89883735  0.58346264  1
  Li  Li69  1  0.40700552  0.78191272  0.40656603  1
  Li  Li70  1  0.98483783  0.91674342  0.49447743  1
  Li  Li71  1  0.43127732  0.74649102  0.47529704  1
  Li  Li72  1  0.93764950  0.92099853  0.44401612  1
  Li  Li73  1  0.47056064  0.70552262  0.53334829  1
  Li  Li74  1  0.58272821  0.28825533  0.43885603  1
  Li  Li75  1  0.87651665  0.37523015  0.54428473  1
  Li  Li76  1  0.70081646  0.51903512  0.41521124  1
  Li  Li77  1  0.77500314  0.20030934  0.57227474  1
  Li  Li78  1  0.17904095  0.04172517  0.46738376  1
  Li  Li79  1  0.26173294  0.58554573  0.51112207  1
  Li  Li80  1  0.78673220  0.74892698  0.41729608  1
  Li  Li81  1  0.65194769  0.85743539  0.56321732  1
  Li  Li82  1  0.41306906  0.12954956  0.46763083  1
  Li  Li83  1  0.03070254  0.52936920  0.51804334  1
  La  La84  1  0.76019924  0.02752141  0.03889918  1
  La  La85  1  0.74914094  0.52850916  0.13993299  1
  La  La86  1  0.25482784  0.03741265  0.14342570  1
  La  La87  1  0.26497351  0.53725066  0.04794066  1
  La  La88  1  0.33723701  0.19800388  0.02088244  1
  La  La89  1  0.19052806  0.35199439  0.16707155  1
  La  La90  1  0.95092124  0.59435385  0.06210151  1
  La  La91  1  0.57059511  0.96867237  0.11619300  1
  La  La92  1  0.56802260  0.46835173  0.06175559  1
  La  La93  1  0.94338437  0.09151640  0.11429192  1
  La  La94  1  0.19689170  0.85551292  0.02000485  1
  La  La95  1  0.31339991  0.72981613  0.16847494  1
  La  La96  1  0.24637456  0.54783885  0.24203216  1
  La  La97  1  0.23267576  0.05432553  0.34206200  1
  La  La98  1  0.72835950  0.55155820  0.34215256  1
  La  La99  1  0.75004951  0.05036205  0.24171426  1
  La  La100  1  0.80948730  0.73022780  0.21678729  1
  La  La101  1  0.66948627  0.87202859  0.36725396  1
  La  La102  1  0.43072109  0.11195658  0.26705181  1
  La  La103  1  0.04756942  0.48987806  0.31700699  1
  La  La104  1  0.05245462  0.98675251  0.26748733  1
  La  La105  1  0.42607268  0.61594319  0.31655735  1
  La  La106  1  0.68710983  0.35575512  0.21654028  1
  La  La107  1  0.79135121  0.24586666  0.36752257  1
  La  La108  1  0.72914992  0.07323914  0.44416180  1
  La  La109  1  0.71730458  0.57471084  0.54525924  1
  La  La110  1  0.21244603  0.06394980  0.53611888  1
  La  La111  1  0.22331872  0.56411155  0.44051331  1
  La  La112  1  0.28822655  0.24956963  0.41698378  1
  La  La113  1  0.14108237  0.40368525  0.56294343  1
  La  La114  1  0.90748933  0.63319281  0.46795072  1
  La  La115  1  0.52702469  0.00681931  0.52204318  1
  La  La116  1  0.53499747  0.50967453  0.46968944  1
  La  La117  1  0.91010449  0.13426899  0.52214548  1
  La  La118  1  0.16500265  0.87185070  0.41551687  1
  La  La119  1  0.28054817  0.74551300  0.56388964  1
  Zr  Zr120  1  0.50045785  0.54036000  0.19185207  1
  Zr  Zr121  1  0.75722427  0.28152263  0.09101250  1
  Zr  Zr122  1  0.99920637  0.03936199  0.19140800  1
  Zr  Zr123  1  0.26387961  0.78828438  0.09292438  1
  Zr  Zr124  1  0.75725670  0.77989238  0.09133009  1
  Zr  Zr125  1  0.99891492  0.53985914  0.19122531  1
  Zr  Zr126  1  0.50139249  0.04284351  0.19205158  1
  Zr  Zr127  1  0.25544435  0.27769921  0.09227507  1
  Zr  Zr128  1  0.97820314  0.06163663  0.39211433  1
  Zr  Zr129  1  0.23931036  0.80116102  0.29200083  1
  Zr  Zr130  1  0.47933010  0.56275496  0.39258065  1
  Zr  Zr131  1  0.73895641  0.30082921  0.29205628  1
  Zr  Zr132  1  0.23886170  0.30089921  0.29212970  1
  Zr  Zr133  1  0.47983427  0.06202544  0.39289693  1
  Zr  Zr134  1  0.97675778  0.55876594  0.39201173  1
  Zr  Zr135  1  0.73948980  0.80112745  0.29199302  1
  Zr  Zr136  1  0.72091058  0.32033054  0.49320147  1
  Zr  Zr137  1  0.21416137  0.81317750  0.49105297  1
  Zr  Zr138  1  0.72053688  0.82174437  0.49268658  1
  Zr  Zr139  1  0.22282943  0.32338556  0.49160892  1
  O  O140  1  0.16205914  0.59674196  0.08977841  1
  O  O141  1  0.36770203  0.97718210  0.09808988  1
  O  O142  1  0.80759200  0.93934502  0.19570697  1
  O  O143  1  0.19111427  0.14434602  0.18745535  1
  O  O144  1  0.89025575  0.43912824  0.10889623  1
  O  O145  1  0.62568464  0.12073166  0.07024866  1
  O  O146  1  0.65704671  0.67897295  0.17420077  1
  O  O147  1  0.47226038  0.58838165  0.03114498  1
  O  O148  1  0.02486430  0.95292158  0.15179358  1
  O  O149  1  0.31994956  0.76201298  0.04837684  1
  O  O150  1  0.17746561  0.80658308  0.13317587  1
  O  O151  1  0.58223855  0.41256596  0.17295223  1
  O  O152  1  0.91882022  0.17471296  0.01631020  1
  O  O153  1  0.62393622  0.36061886  0.10735076  1
  O  O154  1  0.89313919  0.20969379  0.07521554  1
  O  O155  1  0.18716286  0.29648255  0.04793994  1
  O  O156  1  0.34076469  0.27480919  0.13298276  1
  O  O157  1  0.04081803  0.45795135  0.03750489  1
  O  O158  1  0.49092101  0.12580807  0.15096867  1
  O  O159  1  0.92935542  0.67319469  0.17094803  1
  O  O160  1  0.63040679  0.85573772  0.01292301  1
  O  O161  1  0.89512888  0.71315195  0.11007594  1
  O  O162  1  0.61033247  0.84043181  0.07626767  1
  O  O163  1  0.14582751  0.02714000  0.03031119  1
  O  O164  1  0.38928123  0.54107435  0.15462484  1
  O  O165  1  0.75834432  0.37896396  0.04962643  1
  O  O166  1  0.75441060  0.16850920  0.12828647  1
  O  O167  1  0.53793240  0.33352899  0.01703035  1
  O  O168  1  0.96153027  0.18331977  0.16628678  1
  O  O169  1  0.12372014  0.83646560  0.07167834  1
  O  O170  1  0.40366227  0.74381567  0.11743165  1
  O  O171  1  0.88148210  0.93700410  0.06944374  1
  O  O172  1  0.61731689  0.62021666  0.10856450  1
  O  O173  1  0.84073919  0.39682830  0.17519169  1
  O  O174  1  0.31246538  0.93252434  0.18664003  1
  O  O175  1  0.69254397  0.15278753  0.19605763  1
  O  O176  1  0.14785168  0.09257381  0.10017999  1
  O  O177  1  0.36970417  0.47128173  0.08786650  1
  O  O178  1  0.74263418  0.65969615  0.05369510  1
  O  O179  1  0.76303848  0.89706735  0.12769535  1
  O  O180  1  0.39703152  0.02267244  0.02493031  1
  O  O181  1  0.11499275  0.53553048  0.15497487  1
  O  O182  1  0.98577441  0.73807334  0.02246102  1
  O  O183  1  0.54190258  0.89617039  0.16904353  1
  O  O184  1  0.39433060  0.22247459  0.06987353  1
  O  O185  1  0.11305173  0.32483596  0.11327444  1
  O  O186  1  0.63715556  0.10907040  0.28823272  1
  O  O187  1  0.84104787  0.49273614  0.29574260  1
  O  O188  1  0.28763541  0.45767834  0.39650398  1
  O  O189  1  0.67111976  0.66272243  0.38825296  1
  O  O190  1  0.37329601  0.96110409  0.30975573  1
  O  O191  1  0.10492962  0.64118827  0.27427942  1
  O  O192  1  0.13742806  0.19656392  0.37450887  1
  O  O193  1  0.34142993  0.40542539  0.20968310  1
  O  O194  1  0.97621417  0.11670113  0.23258186  1
  O  O195  1  0.50252808  0.48586564  0.35131603  1
  O  O196  1  0.81793847  0.27512528  0.25127495  1
  O  O197  1  0.66156059  0.32678890  0.33296283  1
  O  O198  1  0.05285422  0.92892265  0.37207403  1
  O  O199  1  0.42550940  0.67289487  0.21179823  1
  O  O200  1  0.10674605  0.87462662  0.31182841  1
  O  O201  1  0.37173331  0.72735651  0.27224902  1
  O  O202  1  0.66106608  0.81168725  0.25011038  1
  O  O203  1  0.81789602  0.78996828  0.33374463  1
  O  O204  1  0.51302252  0.96290156  0.23372188  1
  O  O205  1  0.96536259  0.63863935  0.35030909  1
  O  O206  1  0.41311394  0.20210160  0.37349735  1
  O  O207  1  0.06596414  0.40029454  0.21064712  1
  O  O208  1  0.37658606  0.23557648  0.31233046  1
  O  O209  1  0.10177700  0.36685542  0.27180857  1
  O  O210  1  0.61063922  0.54107337  0.22968082  1
  O  O211  1  0.86798304  0.06037547  0.35425794  1
  O  O212  1  0.23879483  0.90998551  0.25409558  1
  O  O213  1  0.23946274  0.69215994  0.32989652  1
  O  O214  1  0.03539226  0.89103434  0.21492152  1
  O  O215  1  0.44275842  0.71089855  0.36904844  1
  O  O216  1  0.59212136  0.33810126  0.26837075  1
  O  O217  1  0.88617300  0.26351843  0.31563951  1
  O  O218  1  0.37830694  0.46243388  0.27613941  1
  O  O219  1  0.10045090  0.13898207  0.30806233  1
  O  O220  1  0.16148269  0.67426063  0.20824785  1
  O  O221  1  0.31717635  0.92789175  0.37586085  1
  O  O222  1  0.78575274  0.44895020  0.38798649  1
  O  O223  1  0.16572966  0.66899691  0.39740071  1
  O  O224  1  0.62858903  0.61145119  0.29748243  1
  O  O225  1  0.84984362  0.99099009  0.28617077  1
  O  O226  1  0.24675300  0.18699193  0.25584038  1
  O  O227  1  0.23131887  0.41562508  0.32825591  1
  O  O228  1  0.88521183  0.54577905  0.22754041  1
  O  O229  1  0.59340985  0.05570632  0.35655529  1
  O  O230  1  0.46437114  0.18987170  0.21501643  1
  O  O231  1  0.01398714  0.41172887  0.36913156  1
  O  O232  1  0.88653662  0.76090943  0.26946266  1
  O  O233  1  0.59256042  0.84141150  0.31446408  1
  O  O234  1  0.11033975  0.62439118  0.48584936  1
  O  O235  1  0.31578173  0.00495902  0.49423105  1
  O  O236  1  0.85202500  0.48156418  0.51403399  1
  O  O237  1  0.58839108  0.16239570  0.47529827  1
  O  O238  1  0.82155750  0.92289734  0.40975756  1
  O  O239  1  0.45346911  0.64876007  0.43218264  1
  O  O240  1  0.00512760  0.01359349  0.55285214  1
  O  O241  1  0.30032897  0.79471457  0.45084646  1
  O  O242  1  0.15787162  0.83962730  0.53557037  1
  O  O243  1  0.55892666  0.42703717  0.56763359  1
  O  O244  1  0.89656498  0.18917667  0.41110409  1
  O  O245  1  0.58426956  0.39135669  0.50882818  1
  O  O246  1  0.85401277  0.24131672  0.47677833  1
  O  O247  1  0.13768361  0.32626896  0.45088727  1
  O  O248  1  0.29075388  0.30461793  0.53592857  1
  O  O249  1  0.98766023  0.47590082  0.43308067  1
  O  O250  1  0.43702624  0.14331352  0.54662087  1
  O  O251  1  0.84419825  0.74743692  0.57125109  1
  O  O252  1  0.54903204  0.92846743  0.41311974  1
  O  O253  1  0.86765220  0.76175829  0.50806101  1
  O  O254  1  0.58258509  0.88791712  0.47398568  1
  O  O255  1  0.08929694  0.05963537  0.42930720  1
  O  O256  1  0.33216505  0.57383522  0.55348244  1
  O  O257  1  0.72425689  0.43326901  0.45584639  1
  O  O258  1  0.72011445  0.22298994  0.53459983  1
  O  O259  1  0.51739428  0.41885781  0.41770697  1
  O  O260  1  0.94050241  0.26838856  0.56694016  1
  O  O261  1  0.07402684  0.85750979  0.46666541  1
  O  O262  1  0.35408187  0.76456786  0.51232925  1
  O  O263  1  0.86040484  0.98122884  0.47531120  1
  O  O264  1  0.59600114  0.66406463  0.51439667  1
  O  O265  1  0.63822970  0.20486324  0.40888848  1
  O  O266  1  0.10830737  0.12990739  0.49605123  1
  O  O267  1  0.33055944  0.50883788  0.48368907  1
  O  O268  1  0.71587435  0.70474238  0.45636115  1
  O  O269  1  0.73450682  0.94232452  0.53034106  1
  O  O270  1  0.36370400  0.06631770  0.42912875  1
  O  O271  1  0.08066198  0.57881325  0.55887611  1
  O  O272  1  0.93673294  0.70571437  0.41493936  1
  O  O273  1  0.49166453  0.86303976  0.56166733  1
  O  O274  1  0.36531630  0.27668076  0.47071920  1
  O  O275  1  0.08402194  0.37898903  0.51391489  1
