# generated using pymatgen
data_Li40La18Zr10O67
_symmetry_space_group_name_H-M   'P 1'
_cell_length_a   11.27162600
_cell_length_b   12.64834664
_cell_length_c   46.65146700
_cell_angle_alpha   90.00000000
_cell_angle_beta   90.00000000
_cell_angle_gamma   124.12984495
_symmetry_Int_Tables_number   1
_chemical_formula_structural   Li40La18Zr10O67
_chemical_formula_sum   'Li80 La36 Zr20 O134'
_cell_volume   5505.46958166
_cell_formula_units_Z   2
loop_
 _symmetry_equiv_pos_site_id
 _symmetry_equiv_pos_as_xyz
  1  'x, y, z'
loop_
 _atom_site_type_symbol
 _atom_site_label
 _atom_site_symmetry_multiplicity
 _atom_site_fract_x
 _atom_site_fract_y
 _atom_site_fract_z
 _atom_site_occupancy
  Li  Li0  1  0.82234407  0.44311311  0.09553056  1
  Li  Li1  1  0.15113232  0.00604951  0.09261985  1
  Li  Li2  1  0.91250252  0.42507732  0.05409543  1
  Li  Li3  1  0.99245960  0.02809362  0.12265306  1
  Li  Li4  1  0.66139680  0.35986588  0.18650417  1
  Li  Li5  1  0.32841466  0.58282514  0.18802142  1
  Li  Li6  1  0.46836727  0.60510363  0.02973114  1
  Li  Li7  1  0.48766725  0.76825591  0.15243415  1
  Li  Li8  1  0.23972051  0.73764473  0.16843797  1
  Li  Li9  1  0.88041959  0.65882591  0.01443011  1
  Li  Li10  1  0.38685057  0.52965295  0.13487964  1
  Li  Li11  1  0.62469960  0.93662637  0.02996863  1
  Li  Li12  1  0.26260635  0.25177844  0.11285767  1
  Li  Li13  1  0.75154971  0.21089539  0.07234193  1
  Li  Li14  1  0.10401138  0.88074853  0.13988074  1
  Li  Li15  1  0.93020793  0.52145564  0.00292371  1
  Li  Li16  1  0.98671840  0.65938623  0.15594842  1
  Li  Li17  1  0.06543821  0.83153742  0.03121556  1
  Li  Li18  1  0.35297710  0.45042526  0.08450761  1
  Li  Li19  1  0.66635031  0.99199508  0.08745501  1
  Li  Li20  1  0.51963247  0.42616687  0.12063591  1
  Li  Li21  1  0.51598734  0.03101689  0.05329599  1
  Li  Li22  1  0.16485126  0.86593121  0.19192806  1
  Li  Li23  1  0.82842424  0.08096443  0.18846018  1
  Li  Li24  1  0.75005387  0.47395683  0.13966590  1
  Li  Li25  1  0.26517323  0.99541754  0.04639865  1
  Li  Li26  1  0.24180639  0.44043715  0.03771831  1
  Li  Li27  1  0.74616488  0.97004116  0.13756916  1
  Li  Li28  1  0.83013858  0.94616289  0.29046832  1
  Li  Li29  1  0.16366605  0.50042409  0.28902078  1
  Li  Li30  1  0.00699261  0.91682577  0.25533046  1
  Li  Li31  1  0.99854323  0.52555284  0.32312575  1
  Li  Li32  1  0.66548926  0.86669734  0.38513786  1
  Li  Li33  1  0.32995964  0.08318540  0.38823367  1
  Li  Li34  1  0.48503433  0.15376275  0.22180835  1
  Li  Li35  1  0.49552468  0.27378801  0.35464675  1
  Li  Li36  1  0.24374690  0.23106475  0.36678720  1
  Li  Li37  1  0.74273746  0.23162772  0.21087208  1
  Li  Li38  1  0.38839241  0.02564198  0.33832286  1
  Li  Li39  1  0.60279873  0.38380994  0.23751844  1
  Li  Li40  1  0.24873854  0.73831479  0.31022096  1
  Li  Li41  1  0.74862217  0.73628834  0.26742302  1
  Li  Li42  1  0.10256324  0.38272204  0.33975590  1
  Li  Li43  1  0.88871326  0.02583266  0.23884103  1
  Li  Li44  1  0.98547354  0.15391274  0.35560398  1
  Li  Li45  1  0.99406039  0.27241950  0.22248847  1
  Li  Li46  1  0.33024130  0.94641946  0.28672529  1
  Li  Li47  1  0.66425540  0.49973676  0.28871598  1
  Li  Li48  1  0.50735317  0.91688881  0.32215770  1
  Li  Li49  1  0.49840503  0.52506324  0.25449005  1
  Li  Li50  1  0.16313123  0.36090112  0.39075522  1
  Li  Li51  1  0.83045240  0.58496830  0.39073745  1
  Li  Li52  1  0.74730817  0.97028893  0.33829839  1
  Li  Li53  1  0.24673630  0.46984080  0.23841963  1
  Li  Li54  1  0.24696350  0.97032105  0.23896198  1
  Li  Li55  1  0.74741886  0.47042749  0.33939999  1
  Li  Li56  1  0.85717778  0.44914674  0.49423782  1
  Li  Li57  1  0.16569076  0.99321193  0.48760392  1
  Li  Li58  1  0.02310221  0.42614058  0.45797743  1
  Li  Li59  1  0.00521922  0.03194027  0.52359354  1
  Li  Li60  1  0.48428638  0.65749917  0.42114919  1
  Li  Li61  1  0.51795042  0.80609221  0.55466280  1
  Li  Li62  1  0.19472653  0.79754125  0.56761388  1
  Li  Li63  1  0.73706242  0.73861341  0.40969568  1
  Li  Li64  1  0.41610224  0.55138655  0.57047463  1
  Li  Li65  1  0.60801440  0.88039584  0.43677338  1
  Li  Li66  1  0.24500149  0.20382157  0.50727673  1
  Li  Li67  1  0.76095380  0.25084148  0.46496594  1
  Li  Li68  1  0.14080908  0.95270567  0.54040823  1
  Li  Li69  1  0.88946324  0.52666104  0.44339654  1
  Li  Li70  1  0.94970711  0.59526074  0.54558104  1
  Li  Li71  1  0.98883959  0.76887465  0.42540241  1
  Li  Li72  1  0.32021091  0.44478931  0.48225186  1
  Li  Li73  1  0.66021018  0.00528784  0.48407891  1
  Li  Li74  1  0.41474690  0.42445040  0.52306418  1
  Li  Li75  1  0.49690989  0.02920404  0.45401237  1
  Li  Li76  1  0.72990286  0.43739767  0.53816606  1
  Li  Li77  1  0.24783208  0.97009397  0.43937914  1
  Li  Li78  1  0.25050880  0.47304471  0.43754923  1
  Li  Li79  1  0.74496023  0.97983496  0.53371391  1
  La  La80  1  0.11861849  0.53309271  0.11622885  1
  La  La81  1  0.86894842  0.91138419  0.05513399  1
  La  La82  1  0.36539951  0.15249795  0.16271501  1
  La  La83  1  0.64042927  0.28076780  0.01645565  1
  La  La84  1  0.25600895  0.21783892  0.04535352  1
  La  La85  1  0.75035809  0.21789491  0.14010090  1
  La  La86  1  0.74338284  0.72265585  0.13613304  1
  La  La87  1  0.22415432  0.70770383  0.04220199  1
  La  La88  1  0.64335884  0.53137651  0.05639065  1
  La  La89  1  0.37347952  0.90462201  0.11357195  1
  La  La90  1  0.88247919  0.17340956  0.01626099  1
  La  La91  1  0.12515695  0.28511229  0.16401581  1
  La  La92  1  0.12608196  0.03441738  0.31473060  1
  La  La93  1  0.86937611  0.40751558  0.26396586  1
  La  La94  1  0.36512652  0.65595224  0.36266724  1
  La  La95  1  0.62088210  0.78180450  0.21316309  1
  La  La96  1  0.24551492  0.71946551  0.23909607  1
  La  La97  1  0.74526211  0.71895461  0.33861199  1
  La  La98  1  0.74712566  0.22055979  0.33899333  1
  La  La99  1  0.24701825  0.22040627  0.23840824  1
  La  La100  1  0.62652346  0.03447813  0.26275763  1
  La  La101  1  0.36939723  0.40703234  0.31355557  1
  La  La102  1  0.86515436  0.65620093  0.21469358  1
  La  La103  1  0.12128914  0.78248955  0.36444252  1
  La  La104  1  0.15206212  0.53781288  0.52318939  1
  La  La105  1  0.87278405  0.90518549  0.46384303  1
  La  La106  1  0.38241462  0.17708454  0.56145091  1
  La  La107  1  0.62606204  0.28590211  0.41330705  1
  La  La108  1  0.24872624  0.21834202  0.43776774  1
  La  La109  1  0.75557643  0.21571433  0.53282959  1
  La  La110  1  0.72656094  0.71521858  0.53460925  1
  La  La111  1  0.24496758  0.72225872  0.44118646  1
  La  La112  1  0.61968183  0.53342410  0.46183641  1
  La  La113  1  0.38410769  0.92249446  0.51826909  1
  La  La114  1  0.86715751  0.15442789  0.41466198  1
  La  La115  1  0.14169003  0.28406626  0.56128505  1
  Zr  Zr116  1  0.99580827  0.47104744  0.18972291  1
  Zr  Zr117  1  0.50759657  0.72276725  0.08363010  1
  Zr  Zr118  1  0.50847445  0.21858321  0.09006491  1
  Zr  Zr119  1  0.99556796  0.96903124  0.18817367  1
  Zr  Zr120  1  0.99336392  0.72237030  0.08892668  1
  Zr  Zr121  1  0.00493542  0.22892240  0.08943589  1
  Zr  Zr122  1  0.49597452  0.47063210  0.18722550  1
  Zr  Zr123  1  0.49613244  0.96770097  0.18857260  1
  Zr  Zr124  1  0.99603049  0.96758689  0.38911722  1
  Zr  Zr125  1  0.49693567  0.22042609  0.28868500  1
  Zr  Zr126  1  0.49589733  0.71993679  0.28843780  1
  Zr  Zr127  1  0.99737113  0.47146351  0.39034104  1
  Zr  Zr128  1  0.99691382  0.22037926  0.28860944  1
  Zr  Zr129  1  0.99587124  0.72039582  0.28908916  1
  Zr  Zr130  1  0.49630070  0.96985880  0.38894769  1
  Zr  Zr131  1  0.49615005  0.47019221  0.38790520  1
  Zr  Zr132  1  0.49525168  0.72462744  0.48798000  1
  Zr  Zr133  1  0.50247497  0.22769716  0.48800383  1
  Zr  Zr134  1  0.00674119  0.72351138  0.49385353  1
  Zr  Zr135  1  0.00649456  0.21888752  0.48774264  1
  O  O136  1  0.79687691  0.90294120  0.16885420  1
  O  O137  1  0.42940770  0.14849237  0.04784108  1
  O  O138  1  0.60195257  0.30337723  0.12918859  1
  O  O139  1  0.69619195  0.86051239  0.10427265  1
  O  O140  1  0.32310661  0.59165817  0.05747097  1
  O  O141  1  0.10886836  0.99940474  0.03672561  1
  O  O142  1  0.90657304  0.46420473  0.14928773  1
  O  O143  1  0.69703471  0.34590663  0.06546676  1
  O  O144  1  0.32702682  0.07371209  0.11265119  1
  O  O145  1  0.88481531  0.36329500  0.01554457  1
  O  O146  1  0.12229875  0.08844053  0.15409657  1
  O  O147  1  0.80133770  0.96657605  0.01579968  1
  O  O148  1  0.16813537  0.50074999  0.16480705  1
  O  O149  1  0.62689571  0.71488338  0.05074506  1
  O  O150  1  0.37086673  0.70890408  0.11817264  1
  O  O151  1  0.40110172  0.76849329  0.19179817  1
  O  O152  1  0.58407586  0.16565776  0.18454255  1
  O  O153  1  0.51099042  0.63140135  0.16878177  1
  O  O154  1  0.09934722  0.12641840  0.08883273  1
  O  O155  1  0.91021894  0.33365908  0.09584627  1
  O  O156  1  0.97592033  0.86191259  0.10849815  1
  O  O157  1  0.02726590  0.58215588  0.07378208  1
  O  O158  1  0.08336969  0.66820822  0.19411595  1
  O  O159  1  0.90320047  0.27107684  0.18542828  1
  O  O160  1  0.52476102  0.58259704  0.10479557  1
  O  O161  1  0.48621986  0.86579785  0.06412107  1
  O  O162  1  0.42270587  0.32804779  0.08615979  1
  O  O163  1  0.58745899  0.10146761  0.09445219  1
  O  O164  1  0.97740653  0.80582462  0.17206438  1
  O  O165  1  0.07124924  0.69719337  0.01063338  1
  O  O166  1  0.11959292  0.73447597  0.12526543  1
  O  O167  1  0.89003240  0.72649147  0.05187283  1
  O  O168  1  0.19180024  0.37947550  0.11165284  1
  O  O169  1  0.82671866  0.10226301  0.06595249  1
  O  O170  1  0.37607808  0.35591006  0.15117150  1
  O  O171  1  0.64295581  0.09782143  0.02193708  1
  O  O172  1  0.31558484  0.92983064  0.16447968  1
  O  O173  1  0.72959258  0.49347755  0.01346118  1
  O  O174  1  0.79578595  0.58224817  0.10615800  1
  O  O175  1  0.20027314  0.85221525  0.06849937  1
  O  O176  1  0.09302020  0.28346275  0.04671954  1
  O  O177  1  0.91298032  0.14592795  0.13014582  1
  O  O178  1  0.69707614  0.53803372  0.16921687  1
  O  O179  1  0.40937287  0.43605009  0.03301363  1
  O  O180  1  0.58724485  0.97694381  0.14865821  1
  O  O181  1  0.79552802  0.40280325  0.37126679  1
  O  O182  1  0.19849344  0.03573824  0.20730906  1
  O  O183  1  0.40393228  0.64054063  0.24805588  1
  O  O184  1  0.58878066  0.80254508  0.32866171  1
  O  O185  1  0.69792416  0.35463744  0.30750747  1
  O  O186  1  0.29580306  0.08443117  0.27016147  1
  O  O187  1  0.08730899  0.48239298  0.22982966  1
  O  O188  1  0.90303252  0.95713763  0.34875532  1
  O  O189  1  0.67653551  0.86092734  0.26414286  1
  O  O190  1  0.32176711  0.57697412  0.31326421  1
  O  O191  1  0.87354522  0.85880386  0.22463560  1
  O  O192  1  0.11802476  0.58924997  0.35498737  1
  O  O193  1  0.81327895  0.43084569  0.21335469  1
  O  O194  1  0.17049045  0.99949083  0.36416932  1
  O  O195  1  0.61735274  0.22916204  0.25249337  1
  O  O196  1  0.37189994  0.21457723  0.32335702  1
  O  O197  1  0.40422292  0.27050963  0.39200053  1
  O  O198  1  0.58277100  0.66698050  0.38330674  1
  O  O199  1  0.51610158  0.13389951  0.37011455  1
  O  O200  1  0.47438415  0.30532771  0.20527222  1
  O  O201  1  0.08844567  0.61357454  0.28542558  1
  O  O202  1  0.90839587  0.83060344  0.29315834  1
  O  O203  1  0.97823480  0.36398985  0.30760355  1
  O  O204  1  0.01808900  0.07721667  0.27102276  1
  O  O205  1  0.08510913  0.16614785  0.39320695  1
  O  O206  1  0.90130066  0.76850190  0.38623971  1
  O  O207  1  0.51838512  0.07730979  0.30620611  1
  O  O208  1  0.47827184  0.36396115  0.26982115  1
  O  O209  1  0.40843120  0.83021138  0.28433668  1
  O  O210  1  0.58850115  0.61307865  0.29226079  1
  O  O211  1  0.97568047  0.30644696  0.37216349  1
  O  O212  1  0.01518905  0.13307237  0.20692507  1
  O  O213  1  0.11677790  0.22879762  0.32491494  1
  O  O214  1  0.87213395  0.21512931  0.25400921  1
  O  O215  1  0.17702593  0.86179148  0.31328522  1
  O  O216  1  0.82188905  0.57776654  0.26425919  1
  O  O217  1  0.37369346  0.85957556  0.35266507  1
  O  O218  1  0.61781627  0.58751693  0.22252220  1
  O  O219  1  0.31421323  0.42993607  0.36411051  1
  O  O220  1  0.67083910  0.99924298  0.21328798  1
  O  O221  1  0.79569726  0.08406447  0.30705977  1
  O  O222  1  0.19823924  0.35400711  0.27001255  1
  O  O223  1  0.08876553  0.80274100  0.24886104  1
  O  O224  1  0.90403423  0.64143292  0.32954081  1
  O  O225  1  0.69892093  0.03650100  0.36975066  1
  O  O226  1  0.29446680  0.40244469  0.20643688  1
  O  O227  1  0.40305643  0.95744165  0.22890641  1
  O  O228  1  0.58753960  0.48132731  0.34784793  1
  O  O229  1  0.20020421  0.53834647  0.40754026  1
  O  O230  1  0.41166406  0.14540868  0.44779507  1
  O  O231  1  0.58543886  0.27743748  0.53124556  1
  O  O232  1  0.70575421  0.85871230  0.50542637  1
  O  O233  1  0.29837624  0.58448751  0.46999775  1
  O  O234  1  0.08779080  0.97658459  0.42907814  1
  O  O235  1  0.89933654  0.43252913  0.54375938  1
  O  O236  1  0.69049019  0.37589888  0.46656597  1
  O  O237  1  0.32337002  0.09261074  0.51139004  1
  O  O238  1  0.87916029  0.35963318  0.42671957  1
  O  O239  1  0.15008696  0.10539083  0.55188350  1
  O  O240  1  0.81535447  0.93096164  0.41267485  1
  O  O241  1  0.21567590  0.49072992  0.56432062  1
  O  O242  1  0.62105988  0.73181722  0.45101282  1
  O  O243  1  0.38734767  0.73265424  0.52276269  1
  O  O244  1  0.59474226  0.71427882  0.56705052  1
  O  O245  1  0.47886040  0.80688862  0.40494386  1
  O  O246  1  0.08827008  0.10409717  0.48277179  1
  O  O247  1  0.91860987  0.32508249  0.49165228  1
  O  O248  1  0.98683485  0.86910823  0.51148770  1
  O  O249  1  0.02791698  0.58420491  0.47431245  1
  O  O250  1  0.52428366  0.58334780  0.50369206  1
  O  O251  1  0.47989729  0.86579799  0.46794959  1
  O  O252  1  0.40959577  0.33225156  0.48343419  1
  O  O253  1  0.59578943  0.12081303  0.48943633  1
  O  O254  1  0.01354230  0.63223368  0.40929840  1
  O  O255  1  0.12262140  0.72382078  0.53171829  1
  O  O256  1  0.87354607  0.70838079  0.45969685  1
  O  O257  1  0.19248781  0.34886000  0.51248419  1
  O  O258  1  0.82981840  0.07690764  0.46345566  1
  O  O259  1  0.38306397  0.36776775  0.56188492  1
  O  O260  1  0.62404397  0.09219293  0.42281883  1
  O  O261  1  0.29807043  0.96379955  0.56266569  1
  O  O262  1  0.66814855  0.50012507  0.41325021  1
  O  O263  1  0.81917185  0.59032556  0.51857628  1
  O  O264  1  0.19822821  0.85852456  0.47320649  1
  O  O265  1  0.10261090  0.30536261  0.44875097  1
  O  O266  1  0.91849788  0.13882535  0.52932697  1
  O  O267  1  0.29847261  0.90396016  0.40844196  1
  O  O268  1  0.40555801  0.46042885  0.42847552  1
  O  O269  1  0.59656565  0.99492250  0.54315676  1
