# generated using pymatgen
data_Li42La16Zr10O65
_symmetry_space_group_name_H-M   'P 1'
_cell_length_a   12.70453900
_cell_length_b   13.20454200
_cell_length_c   31.80681200
_cell_angle_alpha   90.00000000
_cell_angle_beta   90.00000000
_cell_angle_gamma   90.00000000
_symmetry_Int_Tables_number   1
_chemical_formula_structural   Li42La16Zr10O65
_chemical_formula_sum   'Li84 La32 Zr20 O130'
_cell_volume   5335.83504325
_cell_formula_units_Z   2
loop_
 _symmetry_equiv_pos_site_id
 _symmetry_equiv_pos_as_xyz
  1  'x, y, z'
loop_
 _atom_site_type_symbol
 _atom_site_label
 _atom_site_symmetry_multiplicity
 _atom_site_fract_x
 _atom_site_fract_y
 _atom_site_fract_z
 _atom_site_occupancy
  Li  Li0  1  0.92468994  0.92852490  0.08960732  1
  Li  Li1  1  0.57198089  0.04070242  0.08247895  1
  Li  Li2  1  0.07647408  0.52010144  0.07357567  1
  Li  Li3  1  0.35490254  0.57483622  0.08338862  1
  Li  Li4  1  0.59874128  0.69958445  0.10919744  1
  Li  Li5  1  0.89991199  0.33907361  0.10741363  1
  Li  Li6  1  0.09692469  0.81030717  0.10987534  1
  Li  Li7  1  0.40495347  0.15856859  0.11539354  1
  Li  Li8  1  0.70096411  0.89255407  0.13165911  1
  Li  Li9  1  0.80151680  0.07747344  0.13201059  1
  Li  Li10  1  0.19391145  0.64953768  0.11422623  1
  Li  Li11  1  0.24772903  0.46850320  0.11815013  1
  Li  Li12  1  0.86811101  0.24582536  0.16872170  1
  Li  Li13  1  0.63099667  0.75239303  0.17419992  1
  Li  Li14  1  0.36760249  0.27202842  0.16243068  1
  Li  Li15  1  0.12951835  0.74202709  0.17224123  1
  Li  Li16  1  0.32633614  0.10799581  0.19306755  1
  Li  Li17  1  0.17969134  0.90153129  0.20022932  1
  Li  Li18  1  0.81208511  0.41611363  0.19890712  1
  Li  Li19  1  0.69037950  0.58566993  0.20393284  1
  Li  Li20  1  0.43966432  0.33381802  0.23187777  1
  Li  Li21  1  0.06133478  0.66955311  0.23754428  1
  Li  Li22  1  0.95069120  0.15622961  0.23439287  1
  Li  Li23  1  0.54832293  0.84665397  0.23952625  1
  Li  Li24  1  0.35079422  0.94230171  0.23809154  1
  Li  Li25  1  0.15877941  0.06273729  0.23826005  1
  Li  Li26  1  0.60657573  0.43120097  0.23951104  1
  Li  Li27  1  0.89614281  0.56989090  0.24042257  1
  Li  Li28  1  0.38531442  0.42865211  0.29848144  1
  Li  Li29  1  0.13936949  0.57228441  0.29984635  1
  Li  Li30  1  0.64932843  0.93199526  0.30400735  1
  Li  Li31  1  0.86320789  0.06916713  0.30176485  1
  Li  Li32  1  0.05495839  0.16451652  0.30300756  1
  Li  Li33  1  0.44638344  0.83900792  0.30694025  1
  Li  Li34  1  0.55755551  0.32808480  0.30531234  1
  Li  Li35  1  0.94521859  0.66605693  0.30790922  1
  Li  Li36  1  0.19776338  0.41298070  0.33807672  1
  Li  Li37  1  0.31020755  0.58495198  0.34133442  1
  Li  Li38  1  0.69177554  0.09262093  0.34215439  1
  Li  Li39  1  0.81293943  0.91250469  0.34457233  1
  Li  Li40  1  0.37546980  0.74996773  0.37453542  1
  Li  Li41  1  0.12575407  0.24996778  0.37446895  1
  Li  Li42  1  0.87567912  0.75004432  0.37459702  1
  Li  Li43  1  0.62564260  0.25014002  0.37455676  1
  Li  Li44  1  0.81278349  0.58745580  0.40400240  1
  Li  Li45  1  0.69335927  0.40904856  0.40612880  1
  Li  Li46  1  0.31006559  0.91461181  0.40706131  1
  Li  Li47  1  0.19798272  0.08678078  0.41016795  1
  Li  Li48  1  0.94525992  0.83436949  0.44118241  1
  Li  Li49  1  0.55844327  0.17215759  0.44324977  1
  Li  Li50  1  0.44498054  0.66166119  0.44154931  1
  Li  Li51  1  0.05510446  0.33492900  0.44501346  1
  Li  Li52  1  0.86445511  0.43042811  0.44638974  1
  Li  Li53  1  0.64831242  0.56746588  0.44474527  1
  Li  Li54  1  0.13919872  0.92821725  0.44923350  1
  Li  Li55  1  0.38658874  0.07194512  0.44982365  1
  Li  Li56  1  0.89572194  0.93042574  0.50837776  1
  Li  Li57  1  0.60628731  0.06972890  0.50919202  1
  Li  Li58  1  0.15917228  0.43748707  0.51090817  1
  Li  Li59  1  0.35033167  0.55761753  0.51023954  1
  Li  Li60  1  0.54684097  0.65350293  0.50870790  1
  Li  Li61  1  0.95141255  0.34441019  0.51379089  1
  Li  Li62  1  0.05992814  0.83094272  0.51064051  1
  Li  Li63  1  0.43868003  0.16602532  0.51695194  1
  Li  Li64  1  0.68782591  0.91302049  0.54464585  1
  Li  Li65  1  0.81116161  0.08293637  0.54891602  1
  Li  Li66  1  0.17880233  0.59975579  0.54886696  1
  Li  Li67  1  0.32630389  0.39072879  0.55544193  1
  Li  Li68  1  0.86818409  0.25266142  0.57934345  1
  Li  Li69  1  0.63048602  0.74639250  0.57417435  1
  Li  Li70  1  0.36594158  0.22725339  0.58581723  1
  Li  Li71  1  0.12900031  0.75955379  0.57607268  1
  Li  Li72  1  0.24591449  0.03176870  0.63052258  1
  Li  Li73  1  0.19069924  0.85031076  0.63473547  1
  Li  Li74  1  0.80182706  0.41936709  0.61558981  1
  Li  Li75  1  0.70018256  0.60532776  0.61737117  1
  Li  Li76  1  0.40447841  0.34035548  0.63263882  1
  Li  Li77  1  0.09449905  0.68806229  0.63720102  1
  Li  Li78  1  0.89989535  0.16215142  0.64156036  1
  Li  Li79  1  0.59893640  0.80274477  0.63877410  1
  Li  Li80  1  0.35267481  0.92568856  0.66517097  1
  Li  Li81  1  0.07449144  0.97989248  0.67515652  1
  Li  Li82  1  0.57173687  0.45616128  0.66528760  1
  Li  Li83  1  0.92408285  0.56776443  0.65940890  1
  La  La84  1  0.24886056  0.99106887  0.11728071  1
  La  La85  1  0.74806502  0.51309957  0.11858156  1
  La  La86  1  0.87998781  0.74181098  0.17053072  1
  La  La87  1  0.37805344  0.75509914  0.17085484  1
  La  La88  1  0.62333321  0.26688768  0.16641162  1
  La  La89  1  0.12605757  0.24300041  0.16857902  1
  La  La90  1  0.74970621  0.99804640  0.22100144  1
  La  La91  1  0.25133677  0.50126333  0.21671523  1
  La  La92  1  0.50234393  0.11952497  0.27061470  1
  La  La93  1  0.00161779  0.37737962  0.26751142  1
  La  La94  1  0.49897626  0.62421101  0.26937192  1
  La  La95  1  0.00007567  0.88107652  0.27113873  1
  La  La96  1  0.75050677  0.49699746  0.31893970  1
  La  La97  1  0.25052069  0.00263512  0.32284893  1
  La  La98  1  0.37730567  0.25007731  0.37423361  1
  La  La99  1  0.87746818  0.24978521  0.37409855  1
  La  La100  1  0.12375126  0.75030401  0.37431589  1
  La  La101  1  0.62439851  0.74988802  0.37432217  1
  La  La102  1  0.25023911  0.49736556  0.42573328  1
  La  La103  1  0.75039806  0.00303535  0.42953094  1
  La  La104  1  0.99994077  0.61887609  0.47740237  1
  La  La105  1  0.49870872  0.87602687  0.47916676  1
  La  La106  1  0.00138082  0.12270375  0.48087179  1
  La  La107  1  0.50212758  0.38038309  0.47794244  1
  La  La108  1  0.25118844  0.99909792  0.53173592  1
  La  La109  1  0.74966673  0.50210727  0.52737938  1
  La  La110  1  0.87921877  0.75851381  0.57814559  1
  La  La111  1  0.37748296  0.74506228  0.57781097  1
  La  La112  1  0.62336836  0.23421271  0.58192035  1
  La  La113  1  0.12513774  0.25697984  0.57975681  1
  La  La114  1  0.74807869  0.98817052  0.62975206  1
  La  La115  1  0.24865441  0.50846479  0.63118081  1
  Zr  Zr116  1  0.99828272  0.99514041  0.16413787  1
  Zr  Zr117  1  0.50645854  0.99520385  0.15914443  1
  Zr  Zr118  1  0.49659054  0.50871509  0.16098314  1
  Zr  Zr119  1  0.00784928  0.49928326  0.16184486  1
  Zr  Zr120  1  0.75156258  0.24871623  0.26872524  1
  Zr  Zr121  1  0.75111125  0.75059747  0.27247771  1
  Zr  Zr122  1  0.25363493  0.24957824  0.27001858  1
  Zr  Zr123  1  0.25231268  0.75318651  0.27283788  1
  Zr  Zr124  1  0.50214351  0.49835748  0.37343955  1
  Zr  Zr125  1  0.00183756  0.49668923  0.37224704  1
  Zr  Zr126  1  0.00170881  0.00324442  0.37619979  1
  Zr  Zr127  1  0.50220032  0.00160659  0.37512530  1
  Zr  Zr128  1  0.25187933  0.74704658  0.47588052  1
  Zr  Zr129  1  0.25333059  0.25040976  0.47838457  1
  Zr  Zr130  1  0.75081927  0.74941322  0.47612457  1
  Zr  Zr131  1  0.75174245  0.25175442  0.47960195  1
  Zr  Zr132  1  0.00753307  0.00101293  0.58654397  1
  Zr  Zr133  1  0.49628188  0.99202364  0.58765465  1
  Zr  Zr134  1  0.50602827  0.50450063  0.58902122  1
  Zr  Zr135  1  0.99769773  0.50458426  0.58456948  1
  O  O136  1  0.23313772  0.79796294  0.12810943  1
  O  O137  1  0.26594317  0.17333659  0.13105820  1
  O  O138  1  0.73880846  0.70155123  0.12749673  1
  O  O139  1  0.76541078  0.32517347  0.12670267  1
  O  O140  1  0.54373613  0.84259354  0.14313113  1
  O  O141  1  0.95720147  0.14109115  0.14751239  1
  O  O142  1  0.04175258  0.65242884  0.14256723  1
  O  O143  1  0.47292799  0.36013543  0.14586394  1
  O  O144  1  0.85080558  0.93473507  0.13991525  1
  O  O145  1  0.65319894  0.04111857  0.13178844  1
  O  O146  1  0.15245313  0.42632512  0.15723662  1
  O  O147  1  0.34793878  0.57072692  0.14798134  1
  O  O148  1  0.35299497  0.94797987  0.17753152  1
  O  O149  1  0.14911447  0.03883637  0.17964189  1
  O  O150  1  0.65125349  0.45703594  0.18131915  1
  O  O151  1  0.85203360  0.55489051  0.18088253  1
  O  O152  1  0.46990705  0.14850119  0.17472063  1
  O  O153  1  0.03529892  0.84786331  0.19155298  1
  O  O154  1  0.95988118  0.35433916  0.18695860  1
  O  O155  1  0.53532577  0.65121556  0.19371277  1
  O  O156  1  0.77465166  0.18671823  0.20806426  1
  O  O157  1  0.72407385  0.81156830  0.21182545  1
  O  O158  1  0.29151063  0.29830892  0.21053791  1
  O  O159  1  0.21812465  0.69732798  0.21334882  1
  O  O160  1  0.93631286  0.01624205  0.22617498  1
  O  O161  1  0.55929937  0.98398969  0.22278708  1
  O  O162  1  0.05255940  0.52940076  0.22729911  1
  O  O163  1  0.44246122  0.47696095  0.22780675  1
  O  O164  1  0.10149376  0.20723379  0.24548910  1
  O  O165  1  0.40252802  0.79445848  0.24910941  1
  O  O166  1  0.59562458  0.28501899  0.24599274  1
  O  O167  1  0.90456356  0.71454454  0.24995793  1
  O  O168  1  0.30863806  0.09802639  0.25525849  1
  O  O169  1  0.19819644  0.90522219  0.25896755  1
  O  O170  1  0.80592172  0.39576695  0.25769619  1
  O  O171  1  0.69306251  0.60367045  0.26125041  1
  O  O172  1  0.19640529  0.39841232  0.27935916  1
  O  O173  1  0.30264628  0.60339071  0.28335482  1
  O  O174  1  0.69739843  0.09602989  0.28269236  1
  O  O175  1  0.80286551  0.90293402  0.28522760  1
  O  O176  1  0.40563991  0.28226906  0.29302694  1
  O  O177  1  0.09856059  0.71739362  0.29533510  1
  O  O178  1  0.90374884  0.21050374  0.29039064  1
  O  O179  1  0.59863582  0.79212551  0.29462556  1
  O  O180  1  0.94509963  0.52384534  0.31001788  1
  O  O181  1  0.55027186  0.47002705  0.31037305  1
  O  O182  1  0.05342621  0.02605587  0.31347221  1
  O  O183  1  0.44638833  0.97875376  0.31266951  1
  O  O184  1  0.71573711  0.30017474  0.33008602  1
  O  O185  1  0.78540136  0.69549208  0.33254155  1
  O  O186  1  0.21919954  0.19332945  0.33122867  1
  O  O187  1  0.28456666  0.81065199  0.33334233  1
  O  O188  1  0.03491284  0.34993399  0.34970399  1
  O  O189  1  0.46698015  0.64615154  0.35297870  1
  O  O190  1  0.53711971  0.14792430  0.35161098  1
  O  O191  1  0.96571688  0.85551360  0.35487760  1
  O  O192  1  0.34887354  0.44280122  0.35865016  1
  O  O193  1  0.15550165  0.55052601  0.35896529  1
  O  O194  1  0.65608296  0.94892610  0.36256391  1
  O  O195  1  0.84790096  0.05881808  0.36156584  1
  O  O196  1  0.84794013  0.44132822  0.38679340  1
  O  O197  1  0.65620829  0.55092913  0.38601623  1
  O  O198  1  0.15520599  0.94911924  0.38962365  1
  O  O199  1  0.34886310  0.05722727  0.38982701  1
  O  O200  1  0.96597125  0.64443428  0.39364879  1
  O  O201  1  0.53678371  0.35208740  0.39697929  1
  O  O202  1  0.46695281  0.85391145  0.39573733  1
  O  O203  1  0.03475164  0.15003070  0.39863907  1
  O  O204  1  0.28432464  0.68938889  0.41543934  1
  O  O205  1  0.21868956  0.30697035  0.41729930  1
  O  O206  1  0.78525219  0.80470458  0.41616665  1
  O  O207  1  0.71578634  0.19963293  0.41840383  1
  O  O208  1  0.44613108  0.52157373  0.43584323  1
  O  O209  1  0.05300138  0.47377750  0.43500402  1
  O  O210  1  0.55000899  0.03027689  0.43813825  1
  O  O211  1  0.94483296  0.97626462  0.43843036  1
  O  O212  1  0.59836516  0.70788532  0.45400059  1
  O  O213  1  0.90396386  0.28953644  0.45786021  1
  O  O214  1  0.09819656  0.78277509  0.45337695  1
  O  O215  1  0.40549474  0.21799693  0.45542522  1
  O  O216  1  0.80290386  0.59726318  0.46325116  1
  O  O217  1  0.69752797  0.40416581  0.46563184  1
  O  O218  1  0.30242986  0.89661216  0.46514621  1
  O  O219  1  0.19601142  0.10170137  0.46893528  1
  O  O220  1  0.69246063  0.89622515  0.48733451  1
  O  O221  1  0.80575667  0.10436588  0.49050028  1
  O  O222  1  0.19758005  0.59512513  0.48987142  1
  O  O223  1  0.30833068  0.40203841  0.49329537  1
  O  O224  1  0.90442687  0.78570258  0.49870056  1
  O  O225  1  0.59589992  0.21542697  0.50234362  1
  O  O226  1  0.40215880  0.70584961  0.49954208  1
  O  O227  1  0.10137962  0.29302395  0.50297096  1
  O  O228  1  0.44239358  0.02309641  0.52075401  1
  O  O229  1  0.05262224  0.97063717  0.52105839  1
  O  O230  1  0.55940749  0.51635973  0.52545873  1
  O  O231  1  0.93651156  0.48411152  0.52236484  1
  O  O232  1  0.21820990  0.80340699  0.53526725  1
  O  O233  1  0.29100523  0.20121598  0.53776479  1
  O  O234  1  0.72458537  0.68844691  0.53676578  1
  O  O235  1  0.77492646  0.31374453  0.54031869  1
  O  O236  1  0.53522907  0.84885808  0.55511634  1
  O  O237  1  0.95964579  0.14537070  0.56091222  1
  O  O238  1  0.03463772  0.65244568  0.55774840  1
  O  O239  1  0.46956667  0.35146613  0.57293502  1
  O  O240  1  0.85223687  0.94542431  0.56758003  1
  O  O241  1  0.65140080  0.04338686  0.56710172  1
  O  O242  1  0.14872160  0.46153780  0.56915034  1
  O  O243  1  0.35291217  0.55216217  0.57094512  1
  O  O244  1  0.34798052  0.92997040  0.60080856  1
  O  O245  1  0.15210022  0.07417269  0.59105347  1
  O  O246  1  0.65278340  0.45674520  0.61621419  1
  O  O247  1  0.85017033  0.56385837  0.60893702  1
  O  O248  1  0.47270898  0.14085092  0.60230080  1
  O  O249  1  0.04127947  0.84816059  0.60607189  1
  O  O250  1  0.95703920  0.35799673  0.60083499  1
  O  O251  1  0.54384695  0.65652901  0.60529472  1
  O  O252  1  0.76557757  0.17650071  0.62183492  1
  O  O253  1  0.73851185  0.80015581  0.62087822  1
  O  O254  1  0.26567763  0.32618837  0.61703157  1
  O  O255  1  0.23172917  0.70161321  0.61998155  1
  O  O256  1  0.21551235  0.55141441  0.07438952  1
  O  O257  1  0.56533432  0.56020252  0.10676869  1
  O  O258  1  0.43622804  0.02797865  0.09944032  1
  O  O259  1  0.05978263  0.94498366  0.10444681  1
  O  O260  1  0.94613541  0.47012477  0.10250686  1
  O  O261  1  0.94604120  0.03094518  0.64587869  1
  O  O262  1  0.05932519  0.55332884  0.64432699  1
  O  O263  1  0.43610721  0.47071388  0.64870191  1
  O  O264  1  0.56562524  0.94155192  0.64181162  1
  O  O265  1  0.21360825  0.94888279  0.67420510  1
