# generated using pymatgen
data_Li38La16Zr10O63
_symmetry_space_group_name_H-M   'P 1'
_cell_length_a   12.70453900
_cell_length_b   13.20454200
_cell_length_c   31.80681200
_cell_angle_alpha   90.00000000
_cell_angle_beta   90.00000000
_cell_angle_gamma   90.00000000
_symmetry_Int_Tables_number   1
_chemical_formula_structural   Li38La16Zr10O63
_chemical_formula_sum   'Li76 La32 Zr20 O126'
_cell_volume   5335.83504325
_cell_formula_units_Z   2
loop_
 _symmetry_equiv_pos_site_id
 _symmetry_equiv_pos_as_xyz
  1  'x, y, z'
loop_
 _atom_site_type_symbol
 _atom_site_label
 _atom_site_symmetry_multiplicity
 _atom_site_fract_x
 _atom_site_fract_y
 _atom_site_fract_z
 _atom_site_occupancy
  Li  Li0  1  0.70965455  0.86554222  0.12835644  1
  Li  Li1  1  0.80476353  0.07751419  0.13397827  1
  Li  Li2  1  0.19394647  0.58566382  0.13098667  1
  Li  Li3  1  0.30557252  0.42118131  0.13154288  1
  Li  Li4  1  0.88830070  0.24961828  0.16917132  1
  Li  Li5  1  0.62923970  0.75220625  0.17510572  1
  Li  Li6  1  0.36666845  0.25548448  0.16570056  1
  Li  Li7  1  0.13112609  0.74213620  0.17014082  1
  Li  Li8  1  0.32461790  0.09149429  0.19554885  1
  Li  Li9  1  0.18109164  0.89780325  0.20064756  1
  Li  Li10  1  0.80564488  0.41557541  0.20000594  1
  Li  Li11  1  0.69405712  0.57813244  0.20483578  1
  Li  Li12  1  0.43409539  0.33470642  0.23235870  1
  Li  Li13  1  0.06235686  0.66775438  0.23671356  1
  Li  Li14  1  0.95835453  0.15185951  0.23617682  1
  Li  Li15  1  0.54521873  0.84329737  0.24054507  1
  Li  Li16  1  0.36071390  0.93441281  0.23879787  1
  Li  Li17  1  0.15776528  0.06253389  0.23842117  1
  Li  Li18  1  0.60291680  0.42765115  0.23710846  1
  Li  Li19  1  0.89619034  0.56959020  0.24076260  1
  Li  Li20  1  0.38692925  0.42777437  0.30013206  1
  Li  Li21  1  0.13197359  0.57051342  0.30059446  1
  Li  Li22  1  0.64634938  0.92986883  0.30206270  1
  Li  Li23  1  0.85560070  0.06836363  0.29889667  1
  Li  Li24  1  0.05593111  0.16569306  0.30478230  1
  Li  Li25  1  0.44412346  0.83562971  0.30796174  1
  Li  Li26  1  0.55697062  0.32701347  0.30514828  1
  Li  Li27  1  0.94441819  0.66636466  0.30834277  1
  Li  Li28  1  0.19527497  0.41087905  0.33906129  1
  Li  Li29  1  0.30812031  0.58345476  0.34104632  1
  Li  Li30  1  0.69025040  0.09375468  0.33943389  1
  Li  Li31  1  0.81031919  0.91231611  0.34327751  1
  Li  Li32  1  0.37465633  0.74955036  0.37477141  1
  Li  Li33  1  0.12487264  0.25210002  0.37536250  1
  Li  Li34  1  0.87498150  0.75084045  0.37505545  1
  Li  Li35  1  0.62600450  0.24980707  0.37421176  1
  Li  Li36  1  0.80934222  0.58708720  0.40431028  1
  Li  Li37  1  0.69030699  0.41014350  0.40817881  1
  Li  Li38  1  0.30927806  0.91522956  0.40666572  1
  Li  Li39  1  0.19632973  0.08751413  0.40786156  1
  Li  Li40  1  0.94288363  0.83913787  0.44364424  1
  Li  Li41  1  0.55937536  0.17153893  0.44310299  1
  Li  Li42  1  0.44373030  0.66250162  0.44162732  1
  Li  Li43  1  0.03780856  0.34503163  0.45394357  1
  Li  Li44  1  0.85640833  0.42814381  0.44864924  1
  Li  Li45  1  0.64330305  0.57292418  0.44642533  1
  Li  Li46  1  0.13408426  0.92999258  0.44726378  1
  Li  Li47  1  0.38893187  0.07430105  0.44711693  1
  Li  Li48  1  0.84630383  0.94148959  0.50976292  1
  Li  Li49  1  0.61112345  0.06505371  0.50940928  1
  Li  Li50  1  0.15388898  0.43859658  0.51083806  1
  Li  Li51  1  0.35895279  0.56353501  0.50879037  1
  Li  Li52  1  0.54575602  0.65873860  0.50966520  1
  Li  Li53  1  0.92779074  0.34116405  0.53189288  1
  Li  Li54  1  0.05222284  0.83338919  0.51027067  1
  Li  Li55  1  0.44175962  0.16488055  0.51489559  1
  Li  Li56  1  0.66995876  0.90575389  0.54850039  1
  Li  Li57  1  0.81725789  0.09952761  0.55131957  1
  Li  Li58  1  0.18066182  0.60288775  0.54924444  1
  Li  Li59  1  0.32561966  0.40691428  0.55182322  1
  Li  Li60  1  0.87274276  0.23954471  0.59323781  1
  Li  Li61  1  0.62950688  0.74154771  0.57650374  1
  Li  Li62  1  0.37059748  0.24511982  0.57961889  1
  Li  Li63  1  0.12951802  0.76108210  0.57892507  1
  Li  Li64  1  0.30425851  0.08753091  0.61475016  1
  Li  Li65  1  0.19532680  0.92087761  0.61784649  1
  Li  Li66  1  0.80733662  0.41807528  0.61387445  1
  Li  Li67  1  0.69604624  0.59043105  0.61894940  1
  Li  Li68  1  0.39406067  0.32662700  0.64297949  1
  Li  Li69  1  0.10652753  0.69050870  0.64294520  1
  Li  Li70  1  0.59769580  0.80970037  0.63955507  1
  Li  Li71  1  0.92533912  0.56895244  0.66158052  1
  Li  Li72  1  0.92237170  0.92330045  0.08988934  1
  Li  Li73  1  0.59295300  0.70837550  0.10797371  1
  Li  Li74  1  0.10403422  0.79963906  0.10585685  1
  Li  Li75  1  0.39047005  0.16605562  0.10287836  1
  La  La76  1  0.25048455  0.98606969  0.11844799  1
  La  La77  1  0.75050282  0.53829282  0.11717723  1
  La  La78  1  0.88458844  0.74290497  0.17258185  1
  La  La79  1  0.37654560  0.75269819  0.17034081  1
  La  La80  1  0.60890820  0.24989840  0.17091023  1
  La  La81  1  0.12653269  0.24364768  0.16716867  1
  La  La82  1  0.74346518  0.99402677  0.21713116  1
  La  La83  1  0.24898764  0.50089466  0.21892188  1
  La  La84  1  0.50003900  0.11771459  0.26817888  1
  La  La85  1  0.00146302  0.37803745  0.26743648  1
  La  La86  1  0.49915885  0.62179150  0.26939039  1
  La  La87  1  0.99812773  0.88051659  0.27107601  1
  La  La88  1  0.74862641  0.49645218  0.31953384  1
  La  La89  1  0.25024518  0.00133996  0.32178129  1
  La  La90  1  0.37730844  0.25108117  0.37389198  1
  La  La91  1  0.87664220  0.25056972  0.37374660  1
  La  La92  1  0.12265374  0.74932092  0.37440476  1
  La  La93  1  0.62304521  0.74948050  0.37400365  1
  La  La94  1  0.24895603  0.49716426  0.42620207  1
  La  La95  1  0.74865300  0.00383662  0.42715258  1
  La  La96  1  0.99594578  0.61900274  0.47789462  1
  La  La97  1  0.49782460  0.87586517  0.47757177  1
  La  La98  1  0.00082504  0.12643138  0.47606163  1
  La  La99  1  0.50105737  0.38071402  0.48047903  1
  La  La100  1  0.25878178  0.00045790  0.52698667  1
  La  La101  1  0.74237760  0.50362393  0.52966956  1
  La  La102  1  0.87502630  0.76375962  0.57913394  1
  La  La103  1  0.37650875  0.74169417  0.57817324  1
  La  La104  1  0.62386212  0.24013661  0.58029708  1
  La  La105  1  0.12475188  0.25894410  0.57962685  1
  La  La106  1  0.73495172  0.99969668  0.62971120  1
  La  La107  1  0.25136539  0.50741479  0.63008262  1
  Zr  Zr108  1  0.99866496  0.99217725  0.16388406  1
  Zr  Zr109  1  0.51002671  0.99643220  0.15610287  1
  Zr  Zr110  1  0.49734122  0.50775995  0.15961511  1
  Zr  Zr111  1  0.00193536  0.49410140  0.15903370  1
  Zr  Zr112  1  0.75327881  0.25160269  0.26752352  1
  Zr  Zr113  1  0.75029280  0.74979636  0.27279928  1
  Zr  Zr114  1  0.25075116  0.24957384  0.27010314  1
  Zr  Zr115  1  0.25123888  0.75135389  0.27279244  1
  Zr  Zr116  1  0.50087623  0.49834399  0.37452732  1
  Zr  Zr117  1  0.99961447  0.49652494  0.37323081  1
  Zr  Zr118  1  0.00029958  0.00214475  0.37395734  1
  Zr  Zr119  1  0.50152573  0.00199927  0.37338954  1
  Zr  Zr120  1  0.24806376  0.74725788  0.47649659  1
  Zr  Zr121  1  0.25168022  0.25059871  0.47749447  1
  Zr  Zr122  1  0.74992519  0.75174824  0.47682822  1
  Zr  Zr123  1  0.75202097  0.24720876  0.47978180  1
  Zr  Zr124  1  0.01649928  0.00241845  0.57760726  1
  Zr  Zr125  1  0.49014037  0.99296457  0.58791483  1
  Zr  Zr126  1  0.50692653  0.49767853  0.59044453  1
  Zr  Zr127  1  0.99727089  0.51175927  0.58536384  1
  O  O128  1  0.84760617  0.93503159  0.14007927  1
  O  O129  1  0.65678111  0.06923498  0.14933856  1
  O  O130  1  0.15514487  0.44222200  0.14772822  1
  O  O131  1  0.34270406  0.56159157  0.15102102  1
  O  O132  1  0.35687225  0.94562638  0.17877071  1
  O  O133  1  0.15039697  0.03759044  0.17947605  1
  O  O134  1  0.65556524  0.44553946  0.17658852  1
  O  O135  1  0.84665226  0.56344802  0.18262915  1
  O  O136  1  0.46531392  0.15015254  0.18565304  1
  O  O137  1  0.03510508  0.84528810  0.19282520  1
  O  O138  1  0.97050768  0.35363392  0.19013095  1
  O  O139  1  0.53646484  0.64897267  0.19225178  1
  O  O140  1  0.77479385  0.21622597  0.20367797  1
  O  O141  1  0.72609630  0.80858504  0.21132396  1
  O  O142  1  0.28286373  0.30711879  0.20952997  1
  O  O143  1  0.21828081  0.69682587  0.21226281  1
  O  O144  1  0.93195508  0.01461702  0.22536239  1
  O  O145  1  0.55692829  0.97777719  0.22438728  1
  O  O146  1  0.05299956  0.52779589  0.22667778  1
  O  O147  1  0.44921858  0.47525834  0.22716734  1
  O  O148  1  0.10151094  0.20516896  0.24545688  1
  O  O149  1  0.40269733  0.78953427  0.24894906  1
  O  O150  1  0.59269735  0.28358999  0.24534946  1
  O  O151  1  0.90450165  0.71437412  0.25076283  1
  O  O152  1  0.30506540  0.09858409  0.25578746  1
  O  O153  1  0.19927176  0.90225368  0.25895365  1
  O  O154  1  0.80546308  0.40096606  0.25853642  1
  O  O155  1  0.69112838  0.60237724  0.26151470  1
  O  O156  1  0.19346264  0.39800176  0.28051711  1
  O  O157  1  0.30241914  0.60032395  0.28272157  1
  O  O158  1  0.70060138  0.09917387  0.27901096  1
  O  O159  1  0.79953161  0.90101215  0.28467608  1
  O  O160  1  0.40332904  0.28318284  0.29207781  1
  O  O161  1  0.09848888  0.71549303  0.29510807  1
  O  O162  1  0.90302201  0.21076941  0.28922377  1
  O  O163  1  0.59732385  0.78952357  0.29470488  1
  O  O164  1  0.94578133  0.52490647  0.31100570  1
  O  O165  1  0.54893290  0.46922501  0.31147901  1
  O  O166  1  0.05504227  0.02586271  0.31175138  1
  O  O167  1  0.44433069  0.97627186  0.31159157  1
  O  O168  1  0.71559951  0.30062356  0.32921264  1
  O  O169  1  0.78347866  0.69520551  0.33308425  1
  O  O170  1  0.21655451  0.19533279  0.33093394  1
  O  O171  1  0.28480509  0.80785866  0.33285888  1
  O  O172  1  0.03251053  0.35014141  0.35055849  1
  O  O173  1  0.46615277  0.64630466  0.35327314  1
  O  O174  1  0.53788657  0.14746110  0.35019577  1
  O  O175  1  0.96433757  0.85474349  0.35270818  1
  O  O176  1  0.34817796  0.44253130  0.35904600  1
  O  O177  1  0.15380257  0.55011915  0.35967437  1
  O  O178  1  0.65490198  0.94883634  0.36084099  1
  O  O179  1  0.84649872  0.05786802  0.35968359  1
  O  O180  1  0.84561337  0.44161787  0.38786988  1
  O  O181  1  0.65398510  0.55261178  0.38773382  1
  O  O182  1  0.15429067  0.94773514  0.38817877  1
  O  O183  1  0.34851748  0.05761842  0.38855140  1
  O  O184  1  0.96444647  0.64502384  0.39418466  1
  O  O185  1  0.53783524  0.35218214  0.39700054  1
  O  O186  1  0.46592076  0.85430563  0.39538349  1
  O  O187  1  0.03404914  0.14884676  0.39654449  1
  O  O188  1  0.28136314  0.69165842  0.41576278  1
  O  O189  1  0.22331875  0.30589737  0.41628852  1
  O  O190  1  0.78395931  0.80903151  0.41687383  1
  O  O191  1  0.71501733  0.19424935  0.41813213  1
  O  O192  1  0.44274917  0.52234884  0.43636351  1
  O  O193  1  0.05198432  0.47615636  0.43635496  1
  O  O194  1  0.54970651  0.02920652  0.43657591  1
  O  O195  1  0.94698535  0.97828763  0.43613604  1
  O  O196  1  0.59640744  0.71371002  0.45463476  1
  O  O197  1  0.90172514  0.28438812  0.45560849  1
  O  O198  1  0.09449964  0.78496992  0.45411229  1
  O  O199  1  0.40553273  0.21681467  0.45599624  1
  O  O200  1  0.79996218  0.60215520  0.46342673  1
  O  O201  1  0.70103748  0.39953813  0.46766102  1
  O  O202  1  0.30222763  0.89792252  0.46497365  1
  O  O203  1  0.19358857  0.10256483  0.46599151  1
  O  O204  1  0.69425243  0.90126401  0.49039750  1
  O  O205  1  0.80910489  0.09784570  0.49091866  1
  O  O206  1  0.19521996  0.59718645  0.49001402  1
  O  O207  1  0.30354339  0.40130858  0.49235329  1
  O  O208  1  0.89934477  0.79519266  0.50078839  1
  O  O209  1  0.59761466  0.21137136  0.50214776  1
  O  O210  1  0.40046145  0.70875563  0.49917058  1
  O  O211  1  0.10183444  0.29185010  0.50339340  1
  O  O212  1  0.44617324  0.02198769  0.51945080  1
  O  O213  1  0.06233457  0.97500507  0.51950871  1
  O  O214  1  0.55673015  0.52205999  0.52180899  1
  O  O215  1  0.93163404  0.48564137  0.52332218  1
  O  O216  1  0.21690179  0.80265009  0.53614015  1
  O  O217  1  0.28585818  0.19101718  0.53712796  1
  O  O218  1  0.72471944  0.69136111  0.53764129  1
  O  O219  1  0.78172224  0.29472240  0.54125058  1
  O  O220  1  0.53033521  0.84611383  0.55747801  1
  O  O221  1  0.96806905  0.14780277  0.56238918  1
  O  O222  1  0.03101926  0.65686288  0.55776852  1
  O  O223  1  0.46922757  0.35011211  0.56192858  1
  O  O224  1  0.85681268  0.95769248  0.57179703  1
  O  O225  1  0.64357098  0.04366135  0.56776709  1
  O  O226  1  0.14800773  0.46249643  0.56948953  1
  O  O227  1  0.35468620  0.55099300  0.56864008  1
  O  O228  1  0.33783464  0.94037904  0.59688165  1
  O  O229  1  0.15543853  0.06265528  0.59979938  1
  O  O230  1  0.66230386  0.44606873  0.59882995  1
  O  O231  1  0.84958881  0.56628135  0.61184402  1
  O  O232  1  0.42773877  0.03344395  0.10396907  1
  O  O233  1  0.05737407  0.93575089  0.10522724  1
  O  O234  1  0.56872979  0.56651895  0.10812686  1
  O  O235  1  0.90686935  0.45753425  0.11120540  1
  O  O236  1  0.23647443  0.80442938  0.12912222  1
  O  O237  1  0.26376286  0.18195151  0.12916027  1
  O  O238  1  0.74094951  0.71685511  0.12394096  1
  O  O239  1  0.55080866  0.84722711  0.14153877  1
  O  O240  1  0.95688222  0.13693339  0.14841334  1
  O  O241  1  0.04455759  0.64683425  0.14194108  1
  O  O242  1  0.45499129  0.35966965  0.14373802  1
  O  O243  1  0.45273014  0.14050699  0.60324273  1
  O  O244  1  0.04616885  0.86200467  0.60677514  1
  O  O245  1  0.95418178  0.36290491  0.59707058  1
  O  O246  1  0.54661692  0.64741160  0.60585358  1
  O  O247  1  0.75865502  0.17101306  0.62103120  1
  O  O248  1  0.73375188  0.80937987  0.61842276  1
  O  O249  1  0.26476225  0.31527352  0.61763628  1
  O  O250  1  0.23506616  0.69063998  0.61866258  1
  O  O251  1  0.56586951  0.94838023  0.64114418  1
  O  O252  1  0.05952092  0.55711510  0.64527901  1
  O  O253  1  0.42783820  0.46061770  0.64353914  1
