# generated using pymatgen
data_Li32La14Zr9O55
_symmetry_space_group_name_H-M   'P 1'
_cell_length_a   11.27162600
_cell_length_b   18.66058700
_cell_length_c   41.87959700
_cell_angle_alpha   90.00000000
_cell_angle_beta   90.00000000
_cell_angle_gamma   89.99896220
_symmetry_Int_Tables_number   1
_chemical_formula_structural   Li32La14Zr9O55
_chemical_formula_sum   'Li128 La56 Zr36 O220'
_cell_volume   8808.75163541
_cell_formula_units_Z   4
loop_
 _symmetry_equiv_pos_site_id
 _symmetry_equiv_pos_as_xyz
  1  'x, y, z'
loop_
 _atom_site_type_symbol
 _atom_site_label
 _atom_site_symmetry_multiplicity
 _atom_site_fract_x
 _atom_site_fract_y
 _atom_site_fract_z
 _atom_site_occupancy
  Li  Li0  1  0.87736508  0.68983812  0.11477907  1
  Li  Li1  1  0.56897528  0.18172479  0.10171527  1
  Li  Li2  1  0.69555792  0.77295316  0.12304143  1
  Li  Li3  1  0.75529559  0.10547578  0.09339030  1
  Li  Li4  1  0.26649566  0.98038460  0.02230913  1
  Li  Li5  1  0.46768754  0.43059040  0.08462735  1
  Li  Li6  1  0.34672724  0.83876595  0.06817079  1
  Li  Li7  1  0.39582532  0.53496089  0.03126334  1
  Li  Li8  1  0.60161899  0.49971987  0.05011782  1
  Li  Li9  1  0.10141546  0.88008755  0.05009775  1
  Li  Li10  1  0.38171338  0.56168544  0.08813330  1
  Li  Li11  1  0.32424835  0.79203149  0.00784494  1
  Li  Li12  1  0.64113698  0.13910987  0.04159856  1
  Li  Li13  1  0.14122566  0.24070041  0.04161618  1
  Li  Li14  1  0.82390639  0.58796880  0.00788343  1
  Li  Li15  1  0.88191367  0.81846232  0.08814503  1
  Li  Li16  1  0.84706708  0.54149994  0.06828578  1
  Li  Li17  1  0.89515665  0.84549642  0.03127496  1
  Li  Li18  1  0.37692716  0.69021163  0.11498213  1
  Li  Li19  1  0.07012434  0.19919219  0.10202493  1
  Li  Li20  1  0.19420591  0.60762848  0.12338094  1
  Li  Li21  1  0.25611008  0.27464325  0.09335571  1
  Li  Li22  1  0.76684971  0.40043564  0.02206147  1
  Li  Li23  1  0.96770967  0.94922534  0.08461214  1
  Li  Li24  1  0.98224046  0.56807712  0.11023048  1
  Li  Li25  1  0.47244507  0.31067922  0.11059894  1
  Li  Li26  1  0.48217598  0.81185254  0.11020625  1
  Li  Li27  1  0.97211449  0.06953707  0.11066427  1
  Li  Li28  1  0.55598515  0.18663407  0.24186938  1
  Li  Li29  1  0.25977039  0.69155200  0.22807323  1
  Li  Li30  1  0.36984781  0.27316052  0.24843375  1
  Li  Li31  1  0.44507842  0.60684357  0.22170983  1
  Li  Li32  1  0.98827419  0.44847114  0.13750014  1
  Li  Li33  1  0.14762742  0.93876621  0.20685955  1
  Li  Li34  1  0.03511349  0.35603398  0.19026392  1
  Li  Li35  1  0.10256601  0.02235576  0.15785376  1
  Li  Li36  1  0.32896291  0.99507727  0.16881310  1
  Li  Li37  1  0.82935265  0.38526717  0.16879319  1
  Li  Li38  1  0.05534673  0.06487813  0.21746506  1
  Li  Li39  1  0.05053064  0.31775041  0.13475198  1
  Li  Li40  1  0.32823208  0.63879007  0.17082232  1
  Li  Li41  1  0.82822175  0.74100421  0.17078610  1
  Li  Li42  1  0.55158031  0.06314141  0.13466910  1
  Li  Li43  1  0.55520133  0.31492450  0.21752543  1
  Li  Li44  1  0.53512089  0.02450978  0.19040037  1
  Li  Li45  1  0.60259332  0.35781159  0.15791288  1
  Li  Li46  1  0.05581343  0.19346499  0.24198002  1
  Li  Li47  1  0.75937350  0.68859003  0.22791452  1
  Li  Li48  1  0.87031689  0.10722695  0.24833070  1
  Li  Li49  1  0.94525503  0.77352330  0.22170334  1
  Li  Li50  1  0.48886293  0.93249208  0.13751425  1
  Li  Li51  1  0.64764183  0.44131126  0.20684729  1
  Li  Li52  1  0.66044379  0.06523457  0.23525017  1
  Li  Li53  1  0.15836547  0.81498076  0.23504288  1
  Li  Li54  1  0.16005900  0.31491618  0.23522992  1
  Li  Li55  1  0.65840599  0.56504721  0.23505694  1
  Li  Li56  1  0.24285629  0.68762495  0.36696595  1
  Li  Li57  1  0.94465625  0.19444971  0.35327882  1
  Li  Li58  1  0.05861230  0.77295076  0.37337047  1
  Li  Li59  1  0.13313484  0.10719647  0.34685625  1
  Li  Li60  1  0.67132175  0.94341700  0.26243194  1
  Li  Li61  1  0.83104689  0.43792230  0.33223564  1
  Li  Li62  1  0.71865670  0.85648206  0.31282952  1
  Li  Li63  1  0.78263646  0.52341231  0.28222262  1
  Li  Li64  1  0.00192981  0.49384937  0.29748982  1
  Li  Li65  1  0.50037515  0.88735910  0.29776125  1
  Li  Li66  1  0.75247067  0.56562696  0.34006556  1
  Li  Li67  1  0.75010881  0.81486756  0.25422065  1
  Li  Li68  1  0.99950340  0.13839822  0.29805125  1
  Li  Li69  1  0.49960748  0.24168543  0.29802652  1
  Li  Li70  1  0.25005444  0.56492315  0.25423475  1
  Li  Li71  1  0.25235796  0.81452266  0.33999957  1
  Li  Li72  1  0.21915945  0.52347975  0.31281746  1
  Li  Li73  1  0.28239398  0.85646772  0.28218321  1
  Li  Li74  1  0.74247274  0.69217614  0.36697056  1
  Li  Li75  1  0.44442698  0.18568011  0.35331153  1
  Li  Li76  1  0.55796999  0.60725447  0.37335860  1
  Li  Li77  1  0.63268622  0.27276938  0.34682701  1
  Li  Li78  1  0.17140546  0.43651166  0.26243190  1
  Li  Li79  1  0.33039011  0.94235879  0.33218965  1
  Li  Li80  1  0.34374278  0.56500588  0.36026868  1
  Li  Li81  1  0.84114387  0.31526069  0.35993498  1
  Li  Li82  1  0.84341064  0.81531619  0.36026783  1
  Li  Li83  1  0.34123637  0.06475958  0.35996932  1
  Li  Li84  1  0.93198804  0.19912411  0.49322167  1
  Li  Li85  1  0.62389185  0.69008468  0.48035115  1
  Li  Li86  1  0.74610524  0.27470338  0.50151799  1
  Li  Li87  1  0.80730527  0.60741746  0.47178445  1
  Li  Li88  1  0.35405664  0.44093681  0.38816586  1
  Li  Li89  1  0.51266636  0.93229754  0.45715337  1
  Li  Li90  1  0.39994429  0.35774456  0.43683271  1
  Li  Li91  1  0.46572609  0.02393140  0.40485582  1
  Li  Li92  1  0.67304283  0.99518428  0.42616378  1
  Li  Li93  1  0.17312673  0.38459094  0.42615791  1
  Li  Li94  1  0.44987175  0.06317984  0.46036120  1
  Li  Li95  1  0.44824332  0.31495449  0.37654647  1
  Li  Li96  1  0.67196433  0.63884954  0.42491273  1
  Li  Li97  1  0.17194345  0.74087276  0.42491377  1
  Li  Li98  1  0.94869337  0.06542628  0.37645720  1
  Li  Li99  1  0.95096907  0.31773362  0.46009406  1
  Li  Li100  1  0.89915131  0.02232327  0.43643021  1
  Li  Li101  1  0.96563902  0.35634618  0.40475909  1
  Li  Li102  1  0.43214260  0.18122252  0.49326212  1
  Li  Li103  1  0.12373407  0.68960368  0.48036472  1
  Li  Li104  1  0.24563181  0.10542961  0.50174019  1
  Li  Li105  1  0.30534294  0.77250885  0.47195097  1
  Li  Li106  1  0.85378552  0.93944710  0.38821351  1
  Li  Li107  1  0.01270433  0.44789124  0.45743199  1
  Li  Li108  1  0.02958679  0.06950222  0.48446009  1
  Li  Li109  1  0.51935751  0.81184612  0.48466146  1
  Li  Li110  1  0.52989565  0.31029906  0.48446747  1
  Li  Li111  1  0.01955343  0.56796950  0.48470403  1
  Li  Li112  1  0.03348821  0.94948826  0.51000161  1
  Li  Li113  1  0.23392824  0.39946823  0.57312524  1
  Li  Li114  1  0.10578641  0.84558339  0.56373196  1
  Li  Li115  1  0.15455769  0.54098616  0.52677040  1
  Li  Li116  1  0.39951970  0.49961164  0.54477248  1
  Li  Li117  1  0.89983946  0.88038666  0.54483718  1
  Li  Li118  1  0.17558105  0.58761556  0.58723800  1
  Li  Li119  1  0.11873229  0.81831148  0.50699186  1
  Li  Li120  1  0.35941471  0.13918708  0.55410206  1
  Li  Li121  1  0.85940494  0.24053331  0.55409683  1
  Li  Li122  1  0.61914804  0.56160720  0.50677116  1
  Li  Li123  1  0.67558672  0.79208577  0.58724568  1
  Li  Li124  1  0.60556168  0.53441327  0.56364879  1
  Li  Li125  1  0.65439325  0.83907610  0.52671332  1
  Li  Li126  1  0.53364329  0.43045620  0.51003853  1
  Li  Li127  1  0.73396381  0.98028717  0.57309423  1
  La  La128  1  0.63777904  0.62905744  0.09213892  1
  La  La129  1  0.46379267  0.00709609  0.06800649  1
  La  La130  1  0.32755716  0.36464139  0.03345830  1
  La  La131  1  0.61722359  0.29970181  0.04954094  1
  La  La132  1  0.11695047  0.08058060  0.04975481  1
  La  La133  1  0.13313319  0.58031554  0.04691915  1
  La  La134  1  0.63307752  0.79977258  0.04692896  1
  La  La135  1  0.13777469  0.75108039  0.09210564  1
  La  La136  1  0.96382487  0.37296883  0.06798076  1
  La  La137  1  0.82769842  0.01555022  0.03346675  1
  La  La138  1  0.31719139  0.12562707  0.21873972  1
  La  La139  1  0.80388427  0.24987334  0.12488638  1
  La  La140  1  0.15563762  0.50495183  0.18787616  1
  La  La141  1  0.97998544  0.87461839  0.15592902  1
  La  La142  1  0.31760683  0.81376463  0.17253838  1
  La  La143  1  0.81748232  0.56639926  0.17257106  1
  La  La144  1  0.81243681  0.06408247  0.17118571  1
  La  La145  1  0.31229967  0.31603407  0.17116726  1
  La  La146  1  0.81727104  0.25465543  0.21871643  1
  La  La147  1  0.30401652  0.13018680  0.12494587  1
  La  La148  1  0.65550397  0.87521129  0.18785803  1
  La  La149  1  0.47993555  0.50543901  0.15590004  1
  La  La150  1  0.00584543  0.62578804  0.34412605  1
  La  La151  1  0.49578655  0.75467115  0.25095212  1
  La  La152  1  0.83859243  0.00424064  0.31338879  1
  La  La153  1  0.66284744  0.37555987  0.28163203  1
  La  La154  1  0.00082279  0.31577058  0.29759224  1
  La  La155  1  0.50075891  0.06460418  0.29756280  1
  La  La156  1  0.50077186  0.56534398  0.29752411  1
  La  La157  1  0.00059631  0.81480923  0.29753161  1
  La  La158  1  0.50587357  0.75442117  0.34410796  1
  La  La159  1  0.99577206  0.62561687  0.25091224  1
  La  La160  1  0.33877797  0.37591839  0.31342175  1
  La  La161  1  0.16267629  0.00457028  0.28158870  1
  La  La162  1  0.69761314  0.13030377  0.47014370  1
  La  La163  1  0.18441507  0.25475547  0.37638592  1
  La  La164  1  0.52123489  0.50549896  0.43905374  1
  La  La165  1  0.34544473  0.87487894  0.40705824  1
  La  La166  1  0.68379808  0.81369475  0.42248630  1
  La  La167  1  0.18383638  0.56623903  0.42248126  1
  La  La168  1  0.18903261  0.06402803  0.42390839  1
  La  La169  1  0.68917358  0.31610403  0.42386886  1
  La  La170  1  0.19763977  0.24966930  0.47018840  1
  La  La171  1  0.68435411  0.12540272  0.37637956  1
  La  La172  1  0.02127913  0.87460655  0.43907355  1
  La  La173  1  0.84569110  0.50523499  0.40707539  1
  La  La174  1  0.86315495  0.75111918  0.50298260  1
  La  La175  1  0.17365736  0.01512730  0.56146355  1
  La  La176  1  0.03764121  0.37274063  0.52700121  1
  La  La177  1  0.38417965  0.29969137  0.54537323  1
  La  La178  1  0.88410155  0.08023870  0.54534132  1
  La  La179  1  0.86788279  0.58020564  0.54801767  1
  La  La180  1  0.36799557  0.79976893  0.54802404  1
  La  La181  1  0.36321403  0.62888049  0.50296894  1
  La  La182  1  0.67380994  0.36479030  0.56143019  1
  La  La183  1  0.53766565  0.00716363  0.52694286  1
  Zr  Zr184  1  0.72549829  0.44365407  0.10944455  1
  Zr  Zr185  1  0.38849010  0.68263194  0.04446607  1
  Zr  Zr186  1  0.37455154  0.18228466  0.04188377  1
  Zr  Zr187  1  0.72438377  0.93950275  0.10697556  1
  Zr  Zr188  1  0.88851962  0.69751190  0.04436667  1
  Zr  Zr189  1  0.87445860  0.19779854  0.04188138  1
  Zr  Zr190  1  0.22418936  0.44075353  0.10698843  1
  Zr  Zr191  1  0.22543895  0.93641822  0.10946313  1
  Zr  Zr192  1  0.40845709  0.93997116  0.23497767  1
  Zr  Zr193  1  0.06259863  0.19073749  0.17269946  1
  Zr  Zr194  1  0.07050965  0.68936336  0.17263705  1
  Zr  Zr195  1  0.40880880  0.44049393  0.23440338  1
  Zr  Zr196  1  0.56256355  0.18948393  0.17262595  1
  Zr  Zr197  1  0.57044869  0.69086325  0.17260127  1
  Zr  Zr198  1  0.90863077  0.93958032  0.23439171  1
  Zr  Zr199  1  0.90858810  0.44024077  0.23503364  1
  Zr  Zr200  1  0.09321581  0.44033230  0.36005187  1
  Zr  Zr201  1  0.75080527  0.69028933  0.29744674  1
  Zr  Zr202  1  0.75074035  0.19000666  0.29749528  1
  Zr  Zr203  1  0.09290999  0.93950536  0.36061750  1
  Zr  Zr204  1  0.25070376  0.68974895  0.29748030  1
  Zr  Zr205  1  0.25066677  0.19016411  0.29752880  1
  Zr  Zr206  1  0.59325420  0.44067796  0.36065140  1
  Zr  Zr207  1  0.59301112  0.93994719  0.36005807  1
  Zr  Zr208  1  0.77615161  0.93666459  0.48551787  1
  Zr  Zr209  1  0.43892095  0.18957435  0.42234850  1
  Zr  Zr210  1  0.43081764  0.69090690  0.42246637  1
  Zr  Zr211  1  0.77744945  0.44083293  0.48796508  1
  Zr  Zr212  1  0.93889485  0.19069345  0.42236473  1
  Zr  Zr213  1  0.93085412  0.68930275  0.42241101  1
  Zr  Zr214  1  0.27744504  0.93924733  0.48796840  1
  Zr  Zr215  1  0.27617104  0.44332853  0.48554453  1
  Zr  Zr216  1  0.11250858  0.69745510  0.55067988  1
  Zr  Zr217  1  0.12667183  0.19753327  0.55327874  1
  Zr  Zr218  1  0.61246945  0.68251840  0.55061252  1
  Zr  Zr219  1  0.62666961  0.18241528  0.55320867  1
  O  O220  1  0.56231274  0.89273638  0.08953671  1
  O  O221  1  0.41490833  0.28414700  0.06902005  1
  O  O222  1  0.32670605  0.07330491  0.02970062  1
  O  O223  1  0.29384744  0.61031853  0.01755636  1
  O  O224  1  0.50050665  0.73060881  0.08196517  1
  O  O225  1  0.63845038  0.34264158  0.10574885  1
  O  O226  1  0.81417154  0.54323207  0.11443948  1
  O  O227  1  0.27782356  0.25412581  0.01660139  1
  O  O228  1  0.45432341  0.12454475  0.08364125  1
  O  O229  1  0.67384337  0.02733433  0.07335918  1
  O  O230  1  0.88145792  0.37989190  0.11958930  1
  O  O231  1  0.57044877  0.49954668  0.10120712  1
  O  O232  1  0.25935844  0.76885030  0.04636349  1
  O  O233  1  0.49716977  0.59337449  0.05364483  1
  O  O234  1  0.52333672  0.41055907  0.03474870  1
  O  O235  1  0.28387048  0.93229178  0.06006700  1
  O  O236  1  0.31273419  0.47908580  0.06575095  1
  O  O237  1  0.71554274  0.20000698  0.07527839  1
  O  O238  1  0.03262710  0.17878585  0.02411022  1
  O  O239  1  0.97318381  0.62093956  0.01621611  1
  O  O240  1  0.77024797  0.73694739  0.08292691  1
  O  O241  1  0.78381072  0.44792920  0.06002034  1
  O  O242  1  0.02344642  0.96968416  0.03492842  1
  O  O243  1  0.27000665  0.64321973  0.08296359  1
  O  O244  1  0.47332415  0.75905763  0.01628374  1
  O  O245  1  0.53264975  0.20124410  0.02409181  1
  O  O246  1  0.21562337  0.18022850  0.07540269  1
  O  O247  1  0.81277754  0.90111905  0.06574106  1
  O  O248  1  0.75941564  0.61132856  0.04640749  1
  O  O249  1  0.99700777  0.78683061  0.05359701  1
  O  O250  1  0.77786752  0.12598328  0.01655030  1
  O  O251  1  0.95434710  0.25555699  0.08368856  1
  O  O252  1  0.17394034  0.35278188  0.07340475  1
  O  O253  1  0.38120658  0.00037786  0.11955495  1
  O  O254  1  0.07041212  0.88042272  0.10121295  1
  O  O255  1  0.00037984  0.64940174  0.08190771  1
  O  O256  1  0.79372881  0.76986378  0.01751604  1
  O  O257  1  0.82679474  0.30698006  0.02963442  1
  O  O258  1  0.91449340  0.09614510  0.06904357  1
  O  O259  1  0.06207100  0.48730024  0.08948433  1
  O  O260  1  0.31383124  0.83676615  0.11435669  1
  O  O261  1  0.13830735  0.03743158  0.10585079  1
  O  O262  1  0.87868302  0.99005817  0.12379308  1
  O  O263  1  0.24806123  0.39403013  0.21733017  1
  O  O264  1  0.11153380  0.79043865  0.19250743  1
  O  O265  1  0.03224252  0.58720827  0.15249396  1
  O  O266  1  0.94452117  0.14581151  0.13922521  1
  O  O267  1  0.18003989  0.23719382  0.20599170  1
  O  O268  1  0.32313075  0.84001242  0.23246932  1
  O  O269  1  0.49462584  0.04079027  0.23801295  1
  O  O270  1  0.97535700  0.75045695  0.13904896  1
  O  O271  1  0.15337037  0.62772148  0.20914264  1
  O  O272  1  0.77704090  0.85446737  0.13577812  1
  O  O273  1  0.36050977  0.52873755  0.20476464  1
  O  O274  1  0.56371871  0.87929301  0.24383576  1
  O  O275  1  0.25240905  0.00217021  0.22699559  1
  O  O276  1  0.94697108  0.28186796  0.17051518  1
  O  O277  1  0.18061519  0.10311197  0.17379098  1
  O  O278  1  0.19294270  0.93003205  0.15888525  1
  O  O279  1  0.94642322  0.45026638  0.18558410  1
  O  O280  1  0.99174072  0.98461669  0.19307723  1
  O  O281  1  0.13926942  0.39776706  0.14832664  1
  O  O282  1  0.40981284  0.70166506  0.19994111  1
  O  O283  1  0.72722720  0.68138116  0.14577836  1
  O  O284  1  0.66958924  0.14137287  0.13633538  1
  O  O285  1  0.45305353  0.23390985  0.20839944  1
  O  O286  1  0.44638316  0.93004720  0.18556017  1
  O  O287  1  0.69297095  0.45004170  0.15887006  1
  O  O288  1  0.95306994  0.14617273  0.20844586  1
  O  O289  1  0.16965541  0.23915570  0.13649607  1
  O  O290  1  0.22741673  0.69889023  0.14585718  1
  O  O291  1  0.90974333  0.67841387  0.19988661  1
  O  O292  1  0.63956766  0.98274695  0.14826089  1
  O  O293  1  0.49190753  0.39546786  0.19311938  1
  O  O294  1  0.44701743  0.09836236  0.17046819  1
  O  O295  1  0.68051865  0.27703562  0.17378855  1
  O  O296  1  0.47533319  0.62958217  0.13909331  1
  O  O297  1  0.65327943  0.75257413  0.20912401  1
  O  O298  1  0.27697018  0.52585174  0.13574505  1
  O  O299  1  0.86032958  0.85139692  0.20478596  1
  O  O300  1  0.06399179  0.50091497  0.24390448  1
  O  O301  1  0.75256409  0.37800698  0.22705394  1
  O  O302  1  0.67993747  0.14280595  0.20589334  1
  O  O303  1  0.44434586  0.23431190  0.13911042  1
  O  O304  1  0.53162898  0.79291162  0.15253891  1
  O  O305  1  0.61199213  0.58984162  0.19251135  1
  O  O306  1  0.74795482  0.98606141  0.21733335  1
  O  O307  1  0.37858230  0.39012829  0.12383559  1
  O  O308  1  0.99462197  0.33945128  0.23800395  1
  O  O309  1  0.82328042  0.54019401  0.23252258  1
  O  O310  1  0.56707302  0.48661170  0.25129720  1
  O  O311  1  0.93444958  0.89370654  0.34360033  1
  O  O312  1  0.79077586  0.29102953  0.31774518  1
  O  O313  1  0.71086307  0.08889523  0.27736260  1
  O  O314  1  0.63436485  0.64343482  0.26393672  1
  O  O315  1  0.86717586  0.73707244  0.33104142  1
  O  O316  1  0.00666316  0.33969278  0.35706060  1
  O  O317  1  0.17878315  0.54022552  0.36256942  1
  O  O318  1  0.66145376  0.25051856  0.26198517  1
  O  O319  1  0.84118163  0.12956223  0.33294929  1
  O  O320  1  0.45954268  0.35137363  0.26282868  1
  O  O321  1  0.04231113  0.02913224  0.33243831  1
  O  O322  1  0.24906644  0.37802802  0.36799400  1
  O  O323  1  0.93828335  0.50121144  0.35102328  1
  O  O324  1  0.63425494  0.77947762  0.29512955  1
  O  O325  1  0.86683556  0.60077846  0.29987922  1
  O  O326  1  0.87371273  0.42970720  0.28476630  1
  O  O327  1  0.62827905  0.95080488  0.31030985  1
  O  O328  1  0.67666957  0.48442355  0.31953956  1
  O  O329  1  0.82511106  0.89587409  0.27540380  1
  O  O330  1  0.09320404  0.20134478  0.32480061  1
  O  O331  1  0.40858712  0.17920832  0.27037111  1
  O  O332  1  0.36099960  0.64460363  0.26161400  1
  O  O333  1  0.14077663  0.73506603  0.33344625  1
  O  O334  1  0.12849827  0.42941329  0.31030963  1
  O  O335  1  0.37302397  0.95062824  0.28472516  1
  O  O336  1  0.64081223  0.64507411  0.33342948  1
  O  O337  1  0.86110277  0.73543459  0.26156071  1
  O  O338  1  0.90863356  0.20100761  0.27036298  1
  O  O339  1  0.59313714  0.17880322  0.32475973  1
  O  O340  1  0.32522980  0.48419886  0.27542116  1
  O  O341  1  0.17628946  0.89565074  0.31952351  1
  O  O342  1  0.13413404  0.60049835  0.29517875  1
  O  O343  1  0.36667214  0.77926874  0.29989921  1
  O  O344  1  0.16143129  0.12958024  0.26202928  1
  O  O345  1  0.34110996  0.25063167  0.33297260  1
  O  O346  1  0.95939974  0.02874117  0.26278143  1
  O  O347  1  0.54244834  0.35112368  0.33246229  1
  O  O348  1  0.74887620  0.00221697  0.36803069  1
  O  O349  1  0.43811158  0.87908128  0.35087536  1
  O  O350  1  0.36722994  0.64310166  0.33108561  1
  O  O351  1  0.13443017  0.73664101  0.26393453  1
  O  O352  1  0.21084959  0.29130326  0.27736735  1
  O  O353  1  0.29085693  0.08917850  0.31778304  1
  O  O354  1  0.43479948  0.48658143  0.34363766  1
  O  O355  1  0.06697361  0.89348603  0.25129143  1
  O  O356  1  0.67843959  0.83995464  0.36255184  1
  O  O357  1  0.50676741  0.04061440  0.35709481  1
  O  O358  1  0.25342345  0.98583241  0.37779623  1
  O  O359  1  0.62299344  0.39003067  0.47115348  1
  O  O360  1  0.46957770  0.79302577  0.44241658  1
  O  O361  1  0.38957764  0.58980174  0.40262135  1
  O  O362  1  0.32167643  0.14294378  0.38899678  1
  O  O363  1  0.55719442  0.23439539  0.45579516  1
  O  O364  1  0.68759968  0.83697141  0.48060426  1
  O  O365  1  0.86326479  0.03747367  0.48935697  1
  O  O366  1  0.34858369  0.75234688  0.38577934  1
  O  O367  1  0.52618539  0.62964239  0.45600334  1
  O  O368  1  0.14062196  0.85154434  0.39037902  1
  O  O369  1  0.72454050  0.52592288  0.45918854  1
  O  O370  1  0.93106686  0.88036990  0.49374527  1
  O  O371  1  0.62047850  0.00030554  0.47536143  1
  O  O372  1  0.32029861  0.27692483  0.42145729  1
  O  O373  1  0.55413531  0.09836892  0.42452768  1
  O  O374  1  0.55516239  0.92992953  0.40944347  1
  O  O375  1  0.30903179  0.44981497  0.43615099  1
  O  O376  1  0.36194215  0.98268211  0.44661485  1
  O  O377  1  0.50980669  0.39524207  0.40173957  1
  O  O378  1  0.77434250  0.69881614  0.44930526  1
  O  O379  1  0.09197732  0.67836266  0.39524004  1
  O  O380  1  0.04875290  0.14640363  0.38666596  1
  O  O381  1  0.83196452  0.23921580  0.45862660  1
  O  O382  1  0.80897789  0.93023825  0.43610208  1
  O  O383  1  0.05544243  0.45023926  0.40946573  1
  O  O384  1  0.33174510  0.14125780  0.45866846  1
  O  O385  1  0.54863768  0.23380945  0.38663287  1
  O  O386  1  0.59185477  0.70163651  0.39526075  1
  O  O387  1  0.27424534  0.68114657  0.44934476  1
  O  O388  1  0.00955242  0.98495166  0.40169669  1
  O  O389  1  0.86205670  0.39770241  0.44658449  1
  O  O390  1  0.82014570  0.10342295  0.42142172  1
  O  O391  1  0.05422642  0.28186504  0.42446994  1
  O  O392  1  0.84863577  0.62780586  0.38576691  1
  O  O393  1  0.02640376  0.75038448  0.45598028  1
  O  O394  1  0.64071451  0.52871560  0.39038226  1
  O  O395  1  0.22463859  0.85428319  0.45910786  1
  O  O396  1  0.43107439  0.49953284  0.49374200  1
  O  O397  1  0.12038196  0.37958810  0.47539957  1
  O  O398  1  0.05697390  0.14565053  0.45582409  1
  O  O399  1  0.82168473  0.23723039  0.38897304  1
  O  O400  1  0.88955433  0.79037661  0.40262485  1
  O  O401  1  0.96945243  0.58715897  0.44249301  1
  O  O402  1  0.12288125  0.98989915  0.47113627  1
  O  O403  1  0.75377762  0.39437386  0.37782134  1
  O  O404  1  0.36336129  0.34244226  0.48934394  1
  O  O405  1  0.18751561  0.54292243  0.48064225  1
  O  O406  1  0.93969337  0.48710406  0.50535512  1
  O  O407  1  0.17418955  0.30657537  0.56555083  1
  O  O408  1  0.08678513  0.09597473  0.52602174  1
  O  O409  1  0.00074335  0.64937153  0.51306591  1
  O  O410  1  0.20745504  0.76996944  0.57741472  1
  O  O411  1  0.04744937  0.25540783  0.51144744  1
  O  O412  1  0.22278512  0.12553307  0.57868194  1
  O  O413  1  0.82756805  0.35294900  0.52152853  1
  O  O414  1  0.00387933  0.78678369  0.54147232  1
  O  O415  1  0.24131050  0.61104279  0.54874106  1
  O  O416  1  0.21803927  0.44740354  0.53508429  1
  O  O417  1  0.97854502  0.96932604  0.56001897  1
  O  O418  1  0.18897093  0.90075351  0.52917675  1
  O  O419  1  0.46853378  0.20146881  0.57102485  1
  O  O420  1  0.78573782  0.18027163  0.51983367  1
  O  O421  1  0.73100375  0.64321789  0.51207484  1
  O  O422  1  0.52711778  0.75867022  0.57881821  1
  O  O423  1  0.47872255  0.41062569  0.55997030  1
  O  O424  1  0.71786054  0.93256103  0.53501566  1
  O  O425  1  0.02718939  0.62120871  0.57883301  1
  O  O426  1  0.23076077  0.73674271  0.51210479  1
  O  O427  1  0.28570521  0.19972000  0.51989678  1
  O  O428  1  0.96851370  0.17837665  0.57105321  1
  O  O429  1  0.68909661  0.47932475  0.52917219  1
  O  O430  1  0.50393146  0.59321427  0.54136334  1
  O  O431  1  0.74113889  0.76900327  0.54869907  1
  O  O432  1  0.54733345  0.12453134  0.51134141  1
  O  O433  1  0.72278279  0.25434251  0.57863486  1
  O  O434  1  0.32755266  0.02712171  0.52152408  1
  O  O435  1  0.70734608  0.61008146  0.57738640  1
  O  O436  1  0.50067357  0.73058150  0.51303846  1
  O  O437  1  0.58673357  0.28390827  0.52600409  1
  O  O438  1  0.67427200  0.07334376  0.56546241  1
  O  O439  1  0.43951642  0.89280029  0.50540432  1
