# generated using pymatgen
data_Li40La18Zr10O67
_symmetry_space_group_name_H-M   'P 1'
_cell_length_a   11.29297700
_cell_length_b   11.29297737
_cell_length_c   40.01105500
_cell_angle_alpha   90.00000000
_cell_angle_beta   90.00000000
_cell_angle_gamma   111.54263211
_symmetry_Int_Tables_number   1
_chemical_formula_structural   Li40La18Zr10O67
_chemical_formula_sum   'Li80 La36 Zr20 O134'
_cell_volume   4746.21466431
_cell_formula_units_Z   2
loop_
 _symmetry_equiv_pos_site_id
 _symmetry_equiv_pos_as_xyz
  1  'x, y, z'
loop_
 _atom_site_type_symbol
 _atom_site_label
 _atom_site_symmetry_multiplicity
 _atom_site_fract_x
 _atom_site_fract_y
 _atom_site_fract_z
 _atom_site_occupancy
  Li  Li0  1  0.28682873  0.51131898  0.10748406  1
  Li  Li1  1  0.73520814  0.98772349  0.11542489  1
  Li  Li2  1  0.85479908  0.44094912  0.10186149  1
  Li  Li3  1  0.94455195  0.93681691  0.12614119  1
  Li  Li4  1  0.06750453  0.55510382  0.12805833  1
  Li  Li5  1  0.00578798  0.74998867  0.14563355  1
  Li  Li6  1  0.37209311  0.53021611  0.16526680  1
  Li  Li7  1  0.14271142  0.97779708  0.16649558  1
  Li  Li8  1  0.62096296  0.96845398  0.17201393  1
  Li  Li9  1  0.86070609  0.52370194  0.16651174  1
  Li  Li10  1  0.48720898  0.73498535  0.19659753  1
  Li  Li11  1  0.56528646  0.55030814  0.20385484  1
  Li  Li12  1  0.43712351  0.94804241  0.20790021  1
  Li  Li13  1  0.33306030  0.44185301  0.22195041  1
  Li  Li14  1  0.24722351  0.00307166  0.22389323  1
  Li  Li15  1  0.75243358  0.50257078  0.22471388  1
  Li  Li16  1  0.69917908  0.09264833  0.22625657  1
  Li  Li17  1  0.19229915  0.20169248  0.24157930  1
  Li  Li18  1  0.79984614  0.31627255  0.24466884  1
  Li  Li19  1  0.97661527  0.23516022  0.25964037  1
  Li  Li20  1  0.77303157  0.60824620  0.28026491  1
  Li  Li21  1  0.21839348  0.38674342  0.28239915  1
  Li  Li22  1  0.21900647  0.88756313  0.28354649  1
  Li  Li23  1  0.77261028  0.10820927  0.28670861  1
  Li  Li24  1  0.98005668  0.73622430  0.30898225  1
  Li  Li25  1  0.80485203  0.81894867  0.32260293  1
  Li  Li26  1  0.19496777  0.70057886  0.32314332  1
  Li  Li27  1  0.69508443  0.58918980  0.34046692  1
  Li  Li28  1  0.74921881  0.00172839  0.34183468  1
  Li  Li29  1  0.24850325  0.50122359  0.34156035  1
  Li  Li30  1  0.33687518  0.94641006  0.34228917  1
  Li  Li31  1  0.44676109  0.44612792  0.36012922  1
  Li  Li32  1  0.56328040  0.05490706  0.36090990  1
  Li  Li33  1  0.48285446  0.23211503  0.37513582  1
  Li  Li34  1  0.85790313  0.02570219  0.39752943  1
  Li  Li35  1  0.63564084  0.46941023  0.39928068  1
  Li  Li36  1  0.13624108  0.47052988  0.40090281  1
  Li  Li37  1  0.35704454  0.02492130  0.40268666  1
  Li  Li38  1  0.98219326  0.23156226  0.42508852  1
  Li  Li39  1  0.06393819  0.05476816  0.43899700  1
  Li  Li40  1  0.94912885  0.44718641  0.44001863  1
  Li  Li41  1  0.83748032  0.94697209  0.45792304  1
  Li  Li42  1  0.74876208  0.50061694  0.45837472  1
  Li  Li43  1  0.24973233  0.00146444  0.45814340  1
  Li  Li44  1  0.19713480  0.59071007  0.45983520  1
  Li  Li45  1  0.69358448  0.69872654  0.47666525  1
  Li  Li46  1  0.30282856  0.81727645  0.47777255  1
  Li  Li47  1  0.47986118  0.73751390  0.49085772  1
  Li  Li48  1  0.27135924  0.10609665  0.51325651  1
  Li  Li49  1  0.71775262  0.88635220  0.51615066  1
  Li  Li50  1  0.71840154  0.38690862  0.51748498  1
  Li  Li51  1  0.27382686  0.60707716  0.52013972  1
  Li  Li52  1  0.47854149  0.23764113  0.54019371  1
  Li  Li53  1  0.30062411  0.31699935  0.55525706  1
  Li  Li54  1  0.69223951  0.20155160  0.55841541  1
  Li  Li55  1  0.19990116  0.09402712  0.57365132  1
  Li  Li56  1  0.25127696  0.50199664  0.57552665  1
  Li  Li57  1  0.74689645  0.00356863  0.57569822  1
  Li  Li58  1  0.83287638  0.44119702  0.57775303  1
  Li  Li59  1  0.93641157  0.94730937  0.59198425  1
  Li  Li60  1  0.06420848  0.54976254  0.59635629  1
  Li  Li61  1  0.98716325  0.73416920  0.60316455  1
  Li  Li62  1  0.36017624  0.52384713  0.63330267  1
  Li  Li63  1  0.12047945  0.96756770  0.62773511  1
  Li  Li64  1  0.64310860  0.97778245  0.63304567  1
  Li  Li65  1  0.87160886  0.52974870  0.63447759  1
  Li  Li66  1  0.50581964  0.75017085  0.65458212  1
  Li  Li67  1  0.56603592  0.55422210  0.67185709  1
  Li  Li68  1  0.44488792  0.93723238  0.67341299  1
  Li  Li69  1  0.35514122  0.44136393  0.69843419  1
  Li  Li70  1  0.23515206  0.98715125  0.68415403  1
  Li  Li71  1  0.78652557  0.51101782  0.69197486  1
  Li  Li72  1  0.65273861  0.02343346  0.69490809  1
  Li  Li73  1  0.18798236  0.15903309  0.70525607  1
  Li  Li74  1  0.85022846  0.18815299  0.72215693  1
  Li  Li75  1  0.25551698  0.35738827  0.74494850  1
  Li  Li76  1  0.75844894  0.36001272  0.05449672  1
  Li  Li77  1  0.34985784  0.18833738  0.07804988  1
  Li  Li78  1  0.68521853  0.16027262  0.09427310  1
  Li  Li79  1  0.15161352  0.02467969  0.10432610  1
  La  La80  1  0.83011711  0.68741962  0.08467157  1
  La  La81  1  0.17954242  0.80063874  0.08419465  1
  La  La82  1  0.50799553  0.75715199  0.11633059  1
  La  La83  1  0.98568818  0.25374763  0.11270805  1
  La  La84  1  0.56976564  0.43724399  0.12568676  1
  La  La85  1  0.43100896  0.05865728  0.13292724  1
  La  La86  1  0.94010092  0.06605435  0.19616150  1
  La  La87  1  0.06002853  0.43410407  0.19851378  1
  La  La88  1  0.00066405  0.75161132  0.22660771  1
  La  La89  1  0.49567688  0.25216488  0.22242628  1
  La  La90  1  0.68594076  0.81886955  0.25374996  1
  La  La91  1  0.31174022  0.68410022  0.25554727  1
  La  La92  1  0.31211956  0.18924281  0.31198864  1
  La  La93  1  0.68238726  0.31525608  0.31376388  1
  La  La94  1  0.99921002  0.25192432  0.34213004  1
  La  La95  1  0.49963908  0.75083747  0.34160231  1
  La  La96  1  0.06538181  0.93652362  0.36965045  1
  La  La97  1  0.93594044  0.56363128  0.37116967  1
  La  La98  1  0.43595897  0.56361634  0.42883425  1
  La  La99  1  0.56545015  0.93671071  0.43035548  1
  La  La100  1  0.49905575  0.25178993  0.45794004  1
  La  La101  1  0.99930904  0.75076549  0.45844862  1
  La  La102  1  0.18236965  0.31477880  0.48623034  1
  La  La103  1  0.81198251  0.18908672  0.48812374  1
  La  La104  1  0.81148506  0.68383660  0.54437556  1
  La  La105  1  0.18579869  0.81845418  0.54636996  1
  La  La106  1  0.50049076  0.75148905  0.57344930  1
  La  La107  1  0.99567031  0.25179791  0.57759331  1
  La  La108  1  0.56022885  0.43404675  0.60158959  1
  La  La109  1  0.44013021  0.06617278  0.60369697  1
  La  La110  1  0.93161282  0.05834335  0.66719928  1
  La  La111  1  0.06972672  0.43676473  0.67425874  1
  La  La112  1  0.00777134  0.75659388  0.68359883  1
  La  La113  1  0.48643627  0.25387308  0.68728372  1
  La  La114  1  0.67956716  0.80028661  0.71578304  1
  La  La115  1  0.33008245  0.68750953  0.71528718  1
  Zr  Zr116  1  0.75513255  0.75356339  0.16887469  1
  Zr  Zr117  1  0.25469820  0.25453098  0.16056512  1
  Zr  Zr118  1  0.74183769  0.25093178  0.16698558  1
  Zr  Zr119  1  0.24834866  0.74535341  0.16947077  1
  Zr  Zr120  1  0.00138636  0.00359121  0.28330169  1
  Zr  Zr121  1  0.49938423  0.50095422  0.28206451  1
  Zr  Zr122  1  0.49915588  0.00199045  0.28271296  1
  Zr  Zr123  1  0.99770755  0.50039553  0.28454743  1
  Zr  Zr124  1  0.24876284  0.25104744  0.39965066  1
  Zr  Zr125  1  0.75016727  0.75085492  0.39996303  1
  Zr  Zr126  1  0.25015003  0.75082553  0.40017254  1
  Zr  Zr127  1  0.74891445  0.25118051  0.40043546  1
  Zr  Zr128  1  0.49745863  0.50070404  0.51539204  1
  Zr  Zr129  1  0.99895898  0.00166210  0.51731423  1
  Zr  Zr130  1  0.99962345  0.50068715  0.51796357  1
  Zr  Zr131  1  0.50091294  0.00359961  0.51672164  1
  Zr  Zr132  1  0.74830032  0.74545633  0.63050279  1
  Zr  Zr133  1  0.24195889  0.25096833  0.63312550  1
  Zr  Zr134  1  0.75485160  0.25423939  0.63926352  1
  Zr  Zr135  1  0.25505460  0.75323364  0.63112174  1
  O  O136  1  0.74952309  0.83195211  0.11981909  1
  O  O137  1  0.26782247  0.67119471  0.11993035  1
  O  O138  1  0.37056315  0.25323612  0.12015730  1
  O  O139  1  0.62538778  0.24475073  0.12680299  1
  O  O140  1  0.19951419  0.87335429  0.14002688  1
  O  O141  1  0.79694633  0.61986642  0.13991645  1
  O  O142  1  0.08862999  0.10594392  0.13920249  1
  O  O143  1  0.18386782  0.38937893  0.13861954  1
  O  O144  1  0.82162086  0.11851463  0.14497384  1
  O  O145  1  0.91321556  0.39178028  0.14558769  1
  O  O146  1  0.55913082  0.65207924  0.16491976  1
  O  O147  1  0.44305645  0.85446986  0.16657296  1
  O  O148  1  0.95390042  0.86402922  0.17286948  1
  O  O149  1  0.05131616  0.63436655  0.17355387  1
  O  O150  1  0.41329633  0.39179991  0.18448304  1
  O  O151  1  0.30901573  0.11467021  0.18456723  1
  O  O152  1  0.68956339  0.38828789  0.18862288  1
  O  O153  1  0.58614191  0.10986134  0.19015533  1
  O  O154  1  0.28601992  0.60068208  0.19609765  1
  O  O155  1  0.72328738  0.90064957  0.19616237  1
  O  O156  1  0.13349202  0.25883862  0.20262182  1
  O  O157  1  0.86117906  0.24095973  0.20924429  1
  O  O158  1  0.76577979  0.67335065  0.21523272  1
  O  O159  1  0.23467150  0.82792205  0.21533267  1
  O  O160  1  0.08089643  0.99263545  0.23650445  1
  O  O161  1  0.91729120  0.51215453  0.23781870  1
  O  O162  1  0.49118822  0.61334316  0.24039093  1
  O  O163  1  0.50271010  0.87897742  0.24304741  1
  O  O164  1  0.13905382  0.46801776  0.25536605  1
  O  O165  1  0.85939842  0.04286527  0.25542553  1
  O  O166  1  0.35422703  0.33955251  0.26020907  1
  O  O167  1  0.63397930  0.43501100  0.26076628  1
  O  O168  1  0.36853127  0.06875746  0.25952577  1
  O  O169  1  0.64417263  0.16488197  0.26388951  1
  O  O170  1  0.89133541  0.80634167  0.27867985  1
  O  O171  1  0.10507706  0.69963378  0.28014278  1
  O  O172  1  0.10620435  0.20229557  0.28704386  1
  O  O173  1  0.88795242  0.30387821  0.28959544  1
  O  O174  1  0.64186892  0.66522555  0.30307543  1
  O  O175  1  0.36482141  0.56828039  0.30441332  1
  O  O176  1  0.63528187  0.93562631  0.30498747  1
  O  O177  1  0.35533679  0.83908391  0.30504365  1
  O  O178  1  0.85553209  0.54069184  0.31214496  1
  O  O179  1  0.14539729  0.97318217  0.31197533  1
  O  O180  1  0.50289672  0.38202697  0.32293426  1
  O  O181  1  0.48740186  0.11198687  0.32515282  1
  O  O182  1  0.91897197  0.01370175  0.33043285  1
  O  O183  1  0.07699483  0.48807497  0.33161728  1
  O  O184  1  0.23563307  0.32981074  0.35252538  1
  O  O185  1  0.75940123  0.16890880  0.35345802  1
  O  O186  1  0.86206915  0.74198845  0.35775964  1
  O  O187  1  0.13062117  0.75656999  0.36000711  1
  O  O188  1  0.71925665  0.39426557  0.37139153  1
  O  O189  1  0.28879883  0.10947181  0.37153701  1
  O  O190  1  0.58833199  0.60699333  0.37806632  1
  O  O191  1  0.68483991  0.88638544  0.37812506  1
  O  O192  1  0.31797544  0.61769511  0.37826310  1
  O  O193  1  0.41425195  0.89395861  0.37976996  1
  O  O194  1  0.05163932  0.14081408  0.39497664  1
  O  O195  1  0.94805786  0.35728997  0.39639769  1
  O  O196  1  0.44803006  0.35713033  0.40377387  1
  O  O197  1  0.55175530  0.14088546  0.40504461  1
  O  O198  1  0.91423878  0.89394554  0.42034686  1
  O  O199  1  0.81827065  0.61770588  0.42183035  1
  O  O200  1  0.18468608  0.88630367  0.42196454  1
  O  O201  1  0.08868710  0.60720701  0.42216260  1
  O  O202  1  0.78908643  0.10979332  0.42856128  1
  O  O203  1  0.21931028  0.39407644  0.42861557  1
  O  O204  1  0.63031826  0.75649646  0.44004345  1
  O  O205  1  0.36189268  0.74213665  0.44243414  1
  O  O206  1  0.25911141  0.16849900  0.44655261  1
  O  O207  1  0.73466395  0.32927277  0.44754657  1
  O  O208  1  0.57754719  0.48900694  0.46842446  1
  O  O209  1  0.41891678  0.01382033  0.46957449  1
  O  O210  1  0.98739523  0.11137687  0.47482692  1
  O  O211  1  0.00279925  0.38133755  0.47715377  1
  O  O212  1  0.64486413  0.97292896  0.48802031  1
  O  O213  1  0.35508813  0.54043813  0.48775992  1
  O  O214  1  0.85514302  0.83867236  0.49496140  1
  O  O215  1  0.13540625  0.93532039  0.49507966  1
  O  O216  1  0.86491804  0.56784821  0.49559033  1
  O  O217  1  0.14215530  0.66503984  0.49710698  1
  O  O218  1  0.38807681  0.30411605  0.51028212  1
  O  O219  1  0.60623875  0.20211185  0.51296555  1
  O  O220  1  0.60468144  0.69969735  0.51985393  1
  O  O221  1  0.39121045  0.80620705  0.52144090  1
  O  O222  1  0.14416581  0.16462135  0.53604632  1
  O  O223  1  0.86863516  0.06898366  0.54038661  1
  O  O224  1  0.13375018  0.43419676  0.53934648  1
  O  O225  1  0.85407448  0.33937174  0.53970832  1
  O  O226  1  0.35916549  0.04290983  0.54461637  1
  O  O227  1  0.63832468  0.46731676  0.54459086  1
  O  O228  1  0.00237197  0.87842546  0.55693836  1
  O  O229  1  0.99113595  0.61296966  0.55961343  1
  O  O230  1  0.41645481  0.51214476  0.56206816  1
  O  O231  1  0.58058465  0.99279279  0.56354594  1
  O  O232  1  0.73459594  0.82817966  0.58466254  1
  O  O233  1  0.26556989  0.67284278  0.58479528  1
  O  O234  1  0.36112713  0.24139105  0.59084734  1
  O  O235  1  0.63347754  0.25891511  0.59717750  1
  O  O236  1  0.22340594  0.90039865  0.60382199  1
  O  O237  1  0.78586615  0.60091011  0.60373129  1
  O  O238  1  0.08642605  0.10980158  0.60988876  1
  O  O239  1  0.18907805  0.38816923  0.61169430  1
  O  O240  1  0.80912306  0.11488506  0.61514528  1
  O  O241  1  0.91327138  0.39179205  0.61537489  1
  O  O242  1  0.55118711  0.63456993  0.62647520  1
  O  O243  1  0.45375947  0.86370823  0.62703985  1
  O  O244  1  0.94302537  0.85415635  0.63339633  1
  O  O245  1  0.05892695  0.65195578  0.63499543  1
  O  O246  1  0.41332958  0.39195832  0.65446454  1
  O  O247  1  0.32198802  0.11885697  0.65520099  1
  O  O248  1  0.68366334  0.38949122  0.66091540  1
  O  O249  1  0.58878570  0.10584495  0.66045515  1
  O  O250  1  0.29658360  0.61951897  0.66011500  1
  O  O251  1  0.70017582  0.87407642  0.65993364  1
  O  O252  1  0.12567439  0.24420433  0.67341761  1
  O  O253  1  0.87003138  0.25273466  0.67982986  1
  O  O254  1  0.76757768  0.67106700  0.68000608  1
  O  O255  1  0.24927126  0.83154063  0.68009076  1
  O  O256  1  0.07329935  0.97892784  0.69510673  1
  O  O257  1  0.96051607  0.55153740  0.70003252  1
  O  O258  1  0.49676483  0.61545153  0.70836104  1
  O  O259  1  0.51446899  0.87265445  0.70961546  1
  O  O260  1  0.21018789  0.47365273  0.72208343  1
  O  O261  1  0.80300190  0.01903220  0.71800707  1
  O  O262  1  0.34632633  0.27395612  0.72394290  1
  O  O263  1  0.84559334  0.27400453  0.07598598  1
  O  O264  1  0.30259238  0.01937347  0.08201237  1
  O  O265  1  0.71044685  0.47369701  0.07784525  1
  O  O266  1  0.01434802  0.87310780  0.08990016  1
  O  O267  1  0.99686289  0.61557528  0.09170117  1
  O  O268  1  0.46123737  0.55241723  0.09969786  1
  O  O269  1  0.57293994  0.97951578  0.10488704  1
