# generated using pymatgen
data_Li21La9Zr5O34
_symmetry_space_group_name_H-M   'P 1'
_cell_length_a   12.70453900
_cell_length_b   13.20454200
_cell_length_c   31.80681200
_cell_angle_alpha   90.00000000
_cell_angle_beta   90.00000000
_cell_angle_gamma   90.00000000
_symmetry_Int_Tables_number   1
_chemical_formula_structural   Li21La9Zr5O34
_chemical_formula_sum   'Li84 La36 Zr20 O136'
_cell_volume   5335.83504325
_cell_formula_units_Z   4
loop_
 _symmetry_equiv_pos_site_id
 _symmetry_equiv_pos_as_xyz
  1  'x, y, z'
loop_
 _atom_site_type_symbol
 _atom_site_label
 _atom_site_symmetry_multiplicity
 _atom_site_fract_x
 _atom_site_fract_y
 _atom_site_fract_z
 _atom_site_occupancy
  Li  Li0  1  0.90111487  0.93126410  0.08681612  1
  Li  Li1  1  0.57712853  0.08784222  0.08873055  1
  Li  Li2  1  0.15988819  0.39042004  0.08440042  1
  Li  Li3  1  0.38164723  0.56419941  0.09099577  1
  Li  Li4  1  0.59310056  0.67991702  0.10833989  1
  Li  Li5  1  0.92581649  0.34201866  0.10553167  1
  Li  Li6  1  0.10032802  0.81685093  0.10630511  1
  Li  Li7  1  0.41711167  0.16020546  0.11371615  1
  Li  Li8  1  0.69437598  0.89227122  0.13156210  1
  Li  Li9  1  0.80026097  0.06445742  0.11930573  1
  Li  Li10  1  0.19263854  0.59709066  0.13333761  1
  Li  Li11  1  0.30331001  0.43268241  0.13210172  1
  Li  Li12  1  0.87166626  0.23968982  0.16510600  1
  Li  Li13  1  0.63142742  0.74855352  0.17268884  1
  Li  Li14  1  0.37054337  0.25888882  0.16825479  1
  Li  Li15  1  0.13037393  0.74675474  0.17089186  1
  Li  Li16  1  0.32147889  0.09760208  0.19458711  1
  Li  Li17  1  0.18431898  0.90295414  0.20111073  1
  Li  Li18  1  0.82296993  0.40119880  0.19574324  1
  Li  Li19  1  0.69948989  0.58281329  0.20287067  1
  Li  Li20  1  0.44909572  0.33950688  0.23516150  1
  Li  Li21  1  0.05949598  0.66948058  0.23592713  1
  Li  Li22  1  0.95152910  0.15729848  0.23518065  1
  Li  Li23  1  0.55265509  0.83836487  0.23791691  1
  Li  Li24  1  0.35774591  0.93795749  0.24153053  1
  Li  Li25  1  0.15195443  0.06710224  0.23723283  1
  Li  Li26  1  0.64523639  0.42542015  0.23780074  1
  Li  Li27  1  0.89289709  0.56593204  0.24072085  1
  Li  Li28  1  0.38441999  0.42795819  0.30125193  1
  Li  Li29  1  0.13326994  0.57106366  0.30089855  1
  Li  Li30  1  0.64749890  0.93279747  0.30076544  1
  Li  Li31  1  0.86243353  0.07031227  0.30131855  1
  Li  Li32  1  0.05467443  0.16644884  0.30387651  1
  Li  Li33  1  0.44618786  0.83919009  0.30619671  1
  Li  Li34  1  0.55824322  0.32864520  0.30529939  1
  Li  Li35  1  0.94355607  0.66483742  0.30741200  1
  Li  Li36  1  0.19381739  0.41026504  0.33901625  1
  Li  Li37  1  0.30677650  0.58432863  0.34241865  1
  Li  Li38  1  0.69012902  0.09206152  0.34071861  1
  Li  Li39  1  0.80986078  0.91289163  0.34373009  1
  Li  Li40  1  0.37498054  0.74997024  0.37448101  1
  Li  Li41  1  0.12528469  0.24995127  0.37456628  1
  Li  Li42  1  0.87493117  0.75017147  0.37447687  1
  Li  Li43  1  0.62540661  0.24997083  0.37445840  1
  Li  Li44  1  0.80990448  0.58827273  0.40459959  1
  Li  Li45  1  0.68961916  0.40816571  0.40764720  1
  Li  Li46  1  0.30622078  0.91535025  0.40607750  1
  Li  Li47  1  0.19432259  0.08772561  0.40915444  1
  Li  Li48  1  0.94391461  0.83551640  0.44157036  1
  Li  Li49  1  0.55930359  0.17134214  0.44318769  1
  Li  Li50  1  0.44742100  0.66068269  0.44252276  1
  Li  Li51  1  0.05503709  0.33465713  0.44446461  1
  Li  Li52  1  0.85940308  0.43116372  0.44704979  1
  Li  Li53  1  0.64777571  0.56762220  0.44760110  1
  Li  Li54  1  0.13045545  0.92884997  0.44797205  1
  Li  Li55  1  0.38439518  0.07262671  0.44692172  1
  Li  Li56  1  0.89398739  0.93382336  0.50773180  1
  Li  Li57  1  0.64551661  0.07464771  0.51096348  1
  Li  Li58  1  0.15318761  0.43365134  0.51156427  1
  Li  Li59  1  0.35538103  0.56142247  0.50693512  1
  Li  Li60  1  0.55237037  0.66158595  0.51043036  1
  Li  Li61  1  0.95235998  0.34369839  0.51257950  1
  Li  Li62  1  0.06019112  0.83009109  0.51310290  1
  Li  Li63  1  0.44905317  0.16062064  0.51299570  1
  Li  Li64  1  0.69901039  0.91577932  0.54579954  1
  Li  Li65  1  0.82302976  0.09876107  0.55251884  1
  Li  Li66  1  0.18263830  0.59749754  0.54747042  1
  Li  Li67  1  0.32346888  0.40185828  0.55396454  1
  Li  Li68  1  0.87232858  0.25988041  0.58317918  1
  Li  Li69  1  0.63077422  0.75205983  0.57593166  1
  Li  Li70  1  0.37107861  0.24175000  0.58028027  1
  Li  Li71  1  0.13123076  0.75260813  0.57777886  1
  Li  Li72  1  0.30383173  0.06649158  0.61593777  1
  Li  Li73  1  0.19257775  0.90247160  0.61502408  1
  Li  Li74  1  0.79831559  0.43693918  0.62899565  1
  Li  Li75  1  0.69442091  0.60899258  0.61658072  1
  Li  Li76  1  0.41683262  0.33977815  0.63579859  1
  Li  Li77  1  0.10032066  0.68266985  0.64205240  1
  Li  Li78  1  0.92631358  0.15754935  0.64274633  1
  Li  Li79  1  0.59323070  0.82138199  0.64050130  1
  Li  Li80  1  0.38209645  0.93616628  0.65694287  1
  Li  Li81  1  0.16010583  0.10769053  0.66338002  1
  Li  Li82  1  0.57716020  0.41214996  0.66063012  1
  Li  Li83  1  0.89992396  0.56824370  0.66222925  1
  La  La84  1  0.00240535  0.12256255  0.07062782  1
  La  La85  1  0.47628873  0.37498622  0.07335232  1
  La  La86  1  0.25911736  0.99071827  0.11895125  1
  La  La87  1  0.75615842  0.50526902  0.11845676  1
  La  La88  1  0.87567872  0.73987050  0.17071733  1
  La  La89  1  0.37506843  0.75784663  0.17236672  1
  La  La90  1  0.62792329  0.25234529  0.16178625  1
  La  La91  1  0.12483923  0.24667150  0.16320963  1
  La  La92  1  0.74932194  0.99936178  0.21748762  1
  La  La93  1  0.24521388  0.50145318  0.22059768  1
  La  La94  1  0.50094479  0.12132847  0.26691674  1
  La  La95  1  0.00050754  0.37532326  0.26728117  1
  La  La96  1  0.49951815  0.62222319  0.27246988  1
  La  La97  1  0.99814058  0.87988608  0.27218518  1
  La  La98  1  0.74907269  0.49565012  0.32026777  1
  La  La99  1  0.24795935  0.00518020  0.32197245  1
  La  La100  1  0.37629766  0.25014410  0.37422055  1
  La  La101  1  0.87603592  0.25020035  0.37432491  1
  La  La102  1  0.12252435  0.75012558  0.37427975  1
  La  La103  1  0.62383530  0.75005493  0.37418707  1
  La  La104  1  0.24783936  0.49492997  0.42632571  1
  La  La105  1  0.74910453  0.00433449  0.42828522  1
  La  La106  1  0.99809055  0.62004910  0.47631421  1
  La  La107  1  0.49940909  0.87791804  0.47591214  1
  La  La108  1  0.00081045  0.12516966  0.48107295  1
  La  La109  1  0.50114169  0.37897864  0.48150066  1
  La  La110  1  0.24543546  0.99857937  0.52768583  1
  La  La111  1  0.74913584  0.50068796  0.53106305  1
  La  La112  1  0.87581433  0.76008018  0.57783659  1
  La  La113  1  0.37529973  0.74177296  0.57601935  1
  La  La114  1  0.62797992  0.24799735  0.58682664  1
  La  La115  1  0.12516363  0.25345744  0.58525218  1
  La  La116  1  0.75650914  0.99486581  0.62993928  1
  La  La117  1  0.25909196  0.50909965  0.62950632  1
  La  La118  1  0.47613312  0.12469658  0.67514172  1
  La  La119  1  0.00156928  0.37660228  0.67769735  1
  Zr  Zr120  1  0.99694785  0.98539435  0.16565849  1
  Zr  Zr121  1  0.50832263  0.99272084  0.16207616  1
  Zr  Zr122  1  0.49560459  0.51371240  0.16801836  1
  Zr  Zr123  1  0.00614989  0.50230469  0.16039476  1
  Zr  Zr124  1  0.75068268  0.24676451  0.26841426  1
  Zr  Zr125  1  0.75049823  0.74873098  0.27228686  1
  Zr  Zr126  1  0.25076009  0.25106112  0.26878995  1
  Zr  Zr127  1  0.25012638  0.75229003  0.27353791  1
  Zr  Zr128  1  0.50042903  0.49758169  0.37564224  1
  Zr  Zr129  1  0.99958066  0.49659625  0.37280710  1
  Zr  Zr130  1  0.99956729  0.00353653  0.37565437  1
  Zr  Zr131  1  0.50045638  0.00252568  0.37280256  1
  Zr  Zr132  1  0.25019410  0.74759253  0.47499191  1
  Zr  Zr133  1  0.25092502  0.24922919  0.47960344  1
  Zr  Zr134  1  0.75035241  0.75141942  0.47631265  1
  Zr  Zr135  1  0.75081999  0.25339060  0.48013265  1
  Zr  Zr136  1  0.00637268  0.99752422  0.58791075  1
  Zr  Zr137  1  0.49576583  0.98642657  0.58028000  1
  Zr  Zr138  1  0.50838893  0.50695965  0.58651770  1
  Zr  Zr139  1  0.99658066  0.51441262  0.58304676  1
  O  O140  1  0.23280939  0.80994315  0.12919345  1
  O  O141  1  0.27605979  0.17017855  0.13318122  1
  O  O142  1  0.72886815  0.68718230  0.12909603  1
  O  O143  1  0.77711757  0.32569376  0.13042294  1
  O  O144  1  0.54288548  0.84294352  0.14613393  1
  O  O145  1  0.95634334  0.12949813  0.14292353  1
  O  O146  1  0.04473033  0.65175151  0.14520524  1
  O  O147  1  0.44707365  0.37088349  0.14543096  1
  O  O148  1  0.85042357  0.91873949  0.14397806  1
  O  O149  1  0.65751917  0.04446903  0.14253971  1
  O  O150  1  0.15870061  0.45039334  0.14745115  1
  O  O151  1  0.34509579  0.57797036  0.14886314  1
  O  O152  1  0.35294809  0.94796751  0.18136766  1
  O  O153  1  0.14717741  0.03609392  0.17895692  1
  O  O154  1  0.64507138  0.45655488  0.17918068  1
  O  O155  1  0.85078496  0.55049300  0.18222029  1
  O  O156  1  0.47143826  0.14678655  0.18467964  1
  O  O157  1  0.03544318  0.84509843  0.19193570  1
  O  O158  1  0.97068247  0.35119539  0.18604832  1
  O  O159  1  0.53403741  0.65275335  0.19293592  1
  O  O160  1  0.78009268  0.18889982  0.20797205  1
  O  O161  1  0.72189501  0.80548363  0.21169333  1
  O  O162  1  0.28183264  0.31087326  0.20956930  1
  O  O163  1  0.21611584  0.69775795  0.21320952  1
  O  O164  1  0.93819461  0.01712023  0.22562607  1
  O  O165  1  0.56178787  0.97682618  0.22631069  1
  O  O166  1  0.05302362  0.52693196  0.22737153  1
  O  O167  1  0.43785428  0.48114223  0.22797368  1
  O  O168  1  0.09905682  0.20819468  0.24617551  1
  O  O169  1  0.40169476  0.79059088  0.24988041  1
  O  O170  1  0.59773132  0.28640805  0.24629366  1
  O  O171  1  0.90317358  0.71196590  0.24951693  1
  O  O172  1  0.30335029  0.10109835  0.25502053  1
  O  O173  1  0.19714134  0.90349718  0.25985700  1
  O  O174  1  0.80081597  0.39665481  0.25554865  1
  O  O175  1  0.69162796  0.59980700  0.26099056  1
  O  O176  1  0.19132541  0.39974708  0.28062853  1
  O  O177  1  0.30010067  0.60166399  0.28414942  1
  O  O178  1  0.69850456  0.09648440  0.28148038  1
  O  O179  1  0.80244582  0.90018076  0.28423581  1
  O  O180  1  0.40392513  0.28473920  0.29169625  1
  O  O181  1  0.09602611  0.71624378  0.29530528  1
  O  O182  1  0.90354627  0.21212060  0.29110163  1
  O  O183  1  0.59760053  0.78829298  0.29463190  1
  O  O184  1  0.94330535  0.52260696  0.31029762  1
  O  O185  1  0.54703362  0.47001154  0.31237319  1
  O  O186  1  0.05046993  0.02689696  0.31293250  1
  O  O187  1  0.44109247  0.97924018  0.31096919  1
  O  O188  1  0.71638295  0.30174586  0.33014545  1
  O  O189  1  0.78410271  0.69295244  0.33273129  1
  O  O190  1  0.21753380  0.19648233  0.33066780  1
  O  O191  1  0.28238667  0.80934254  0.33359427  1
  O  O192  1  0.03388869  0.35039959  0.35104104  1
  O  O193  1  0.46612638  0.64563474  0.35319415  1
  O  O194  1  0.53615200  0.14868885  0.35096574  1
  O  O195  1  0.96397804  0.85545611  0.35382538  1
  O  O196  1  0.34672679  0.44184883  0.35993120  1
  O  O197  1  0.15296992  0.55042348  0.35962538  1
  O  O198  1  0.65390310  0.94901069  0.36060978  1
  O  O199  1  0.84566898  0.05816956  0.36115155  1
  O  O200  1  0.84536891  0.44239088  0.38727676  1
  O  O201  1  0.65374931  0.55131954  0.38783960  1
  O  O202  1  0.15270916  0.94907053  0.38897047  1
  O  O203  1  0.34647189  0.05795356  0.38841749  1
  O  O204  1  0.96425828  0.64491392  0.39459798  1
  O  O205  1  0.53648625  0.35153535  0.39748614  1
  O  O206  1  0.46628384  0.85449460  0.39529769  1
  O  O207  1  0.03393973  0.14951747  0.39761435  1
  O  O208  1  0.28190266  0.69060504  0.41492009  1
  O  O209  1  0.21759943  0.30459852  0.41784716  1
  O  O210  1  0.78401361  0.80717800  0.41592724  1
  O  O211  1  0.71611269  0.19806557  0.41847035  1
  O  O212  1  0.44128853  0.52075639  0.43740995  1
  O  O213  1  0.05074229  0.47387412  0.43552210  1
  O  O214  1  0.54697468  0.03002940  0.43597139  1
  O  O215  1  0.94384010  0.97732562  0.43826328  1
  O  O216  1  0.59759950  0.71167961  0.45391927  1
  O  O217  1  0.90331247  0.28872420  0.45716838  1
  O  O218  1  0.09584923  0.78346959  0.45338974  1
  O  O219  1  0.40406608  0.21559206  0.45655038  1
  O  O220  1  0.80229622  0.59989015  0.46413469  1
  O  O221  1  0.69876273  0.40375849  0.46692090  1
  O  O222  1  0.30043726  0.89809747  0.46440233  1
  O  O223  1  0.19193039  0.10065584  0.46760049  1
  O  O224  1  0.69142604  0.90030098  0.48753642  1
  O  O225  1  0.80129181  0.10353865  0.49283104  1
  O  O226  1  0.19723922  0.59629105  0.48881030  1
  O  O227  1  0.30390647  0.39905557  0.49361342  1
  O  O228  1  0.90315675  0.78786028  0.49915308  1
  O  O229  1  0.59791842  0.21347820  0.50211252  1
  O  O230  1  0.40161106  0.70900187  0.49858330  1
  O  O231  1  0.09922125  0.29229325  0.50209752  1
  O  O232  1  0.43814157  0.01911820  0.52041704  1
  O  O233  1  0.05348366  0.97286735  0.52081899  1
  O  O234  1  0.56237740  0.52313609  0.52223195  1
  O  O235  1  0.93791140  0.48322239  0.52300321  1
  O  O236  1  0.21618679  0.80189037  0.53533445  1
  O  O237  1  0.28206578  0.18927973  0.53884070  1
  O  O238  1  0.72195731  0.69497227  0.53697494  1
  O  O239  1  0.77966616  0.31104631  0.54058393  1
  O  O240  1  0.53390433  0.84723655  0.55541568  1
  O  O241  1  0.97114578  0.14845226  0.56218899  1
  O  O242  1  0.03544894  0.65489269  0.55682968  1
  O  O243  1  0.47200390  0.35313939  0.56361234  1
  O  O244  1  0.85106997  0.94919814  0.56621126  1
  O  O245  1  0.64547445  0.04282494  0.56930234  1
  O  O246  1  0.14700840  0.46412598  0.56975847  1
  O  O247  1  0.35320931  0.55161583  0.56717697  1
  O  O248  1  0.34523440  0.92206743  0.59933258  1
  O  O249  1  0.15896516  0.04921382  0.60084855  1
  O  O250  1  0.65733547  0.45510619  0.60597601  1
  O  O251  1  0.84998121  0.58096304  0.60469091  1
  O  O252  1  0.44768939  0.12928174  0.60298023  1
  O  O253  1  0.04532304  0.84821973  0.60303279  1
  O  O254  1  0.95715444  0.36986265  0.60541778  1
  O  O255  1  0.54280892  0.65683748  0.60219348  1
  O  O256  1  0.77757278  0.17390827  0.61785012  1
  O  O257  1  0.72865359  0.81276123  0.61946466  1
  O  O258  1  0.27653430  0.32984501  0.61532678  1
  O  O259  1  0.23282225  0.68978780  0.61927317  1
  O  O260  1  0.85431721  0.05335598  0.06445937  1
  O  O261  1  0.31624692  0.43751042  0.07296308  1
  O  O262  1  0.54306375  0.22595779  0.09244879  1
  O  O263  1  0.06096073  0.27836777  0.09180029  1
  O  O264  1  0.44063438  0.02329630  0.10446520  1
  O  O265  1  0.05537215  0.95555052  0.10004356  1
  O  O266  1  0.53836991  0.54100501  0.10052674  1
  O  O267  1  0.92965685  0.48128030  0.10515368  1
  O  O268  1  0.93014259  0.01838386  0.64321150  1
  O  O269  1  0.53825947  0.95913610  0.64796317  1
  O  O270  1  0.05458372  0.54415243  0.64863549  1
  O  O271  1  0.44084386  0.47663859  0.64423357  1
  O  O272  1  0.06127878  0.22100539  0.65648605  1
  O  O273  1  0.54305286  0.27401389  0.65639065  1
  O  O274  1  0.31620774  0.06211075  0.67511754  1
  O  O275  1  0.85319557  0.44556972  0.68385815  1
