# generated using pymatgen
data_Li39La17Zr10O65
_symmetry_space_group_name_H-M   'P 1'
_cell_length_a   11.27162600
_cell_length_b   12.64834664
_cell_length_c   46.65146700
_cell_angle_alpha   90.00000000
_cell_angle_beta   90.00000000
_cell_angle_gamma   124.12984495
_symmetry_Int_Tables_number   1
_chemical_formula_structural   Li39La17Zr10O65
_chemical_formula_sum   'Li78 La34 Zr20 O130'
_cell_volume   5505.46958166
_cell_formula_units_Z   2
loop_
 _symmetry_equiv_pos_site_id
 _symmetry_equiv_pos_as_xyz
  1  'x, y, z'
loop_
 _atom_site_type_symbol
 _atom_site_label
 _atom_site_symmetry_multiplicity
 _atom_site_fract_x
 _atom_site_fract_y
 _atom_site_fract_z
 _atom_site_occupancy
  Li  Li0  1  0.82888886  0.42658214  0.07939343  1
  Li  Li1  1  0.16125605  0.97614377  0.08365557  1
  Li  Li2  1  0.99759045  0.40470517  0.04600634  1
  Li  Li3  1  0.99322916  0.00405959  0.11484143  1
  Li  Li4  1  0.66406657  0.34338835  0.17662406  1
  Li  Li5  1  0.32711740  0.56016517  0.17937881  1
  Li  Li6  1  0.45699402  0.58666703  0.02428104  1
  Li  Li7  1  0.49536887  0.75507525  0.14510288  1
  Li  Li8  1  0.24376395  0.71045775  0.15957372  1
  Li  Li9  1  0.90102786  0.79747766  0.00540585  1
  Li  Li10  1  0.38991801  0.52782673  0.12778493  1
  Li  Li11  1  0.61168030  0.95416042  0.03547007  1
  Li  Li12  1  0.25161438  0.21696309  0.10391723  1
  Li  Li13  1  0.74263253  0.19924968  0.06303165  1
  Li  Li14  1  0.09865273  0.85543084  0.12954728  1
  Li  Li15  1  0.89807574  0.50354437  0.02169221  1
  Li  Li16  1  0.98794433  0.63662188  0.14620365  1
  Li  Li17  1  0.10807892  0.88154636  0.03121861  1
  Li  Li18  1  0.35003701  0.43053617  0.07794063  1
  Li  Li19  1  0.66747799  0.97782464  0.08457696  1
  Li  Li20  1  0.50866368  0.40143930  0.11234715  1
  Li  Li21  1  0.37647316  0.95463941  0.04311635  1
  Li  Li22  1  0.16342912  0.84053668  0.18249887  1
  Li  Li23  1  0.83037370  0.06283453  0.18116274  1
  Li  Li24  1  0.74996934  0.45226819  0.12758908  1
  Li  Li25  1  0.24081952  0.42267476  0.03159924  1
  Li  Li26  1  0.74565863  0.94630441  0.13101787  1
  Li  Li27  1  0.83162037  0.92467039  0.28196576  1
  Li  Li28  1  0.16770179  0.47478228  0.27777404  1
  Li  Li29  1  0.00707117  0.89475309  0.24616478  1
  Li  Li30  1  0.99112873  0.50477330  0.31389639  1
  Li  Li31  1  0.67255265  0.83914012  0.38024738  1
  Li  Li32  1  0.33617161  0.05570127  0.38333462  1
  Li  Li33  1  0.48747947  0.13656653  0.21321631  1
  Li  Li34  1  0.51147149  0.26316761  0.34664031  1
  Li  Li35  1  0.25659371  0.18638351  0.35828655  1
  Li  Li36  1  0.74352128  0.21406965  0.20163870  1
  Li  Li37  1  0.39602599  0.03228945  0.33102693  1
  Li  Li38  1  0.60354876  0.36772820  0.22897013  1
  Li  Li39  1  0.24806817  0.68458585  0.30150530  1
  Li  Li40  1  0.75111823  0.71480428  0.25845432  1
  Li  Li41  1  0.11275777  0.39587354  0.32958082  1
  Li  Li42  1  0.88963894  0.00662933  0.23035425  1
  Li  Li43  1  0.00353293  0.14673990  0.34608741  1
  Li  Li44  1  0.99838588  0.25481742  0.21404060  1
  Li  Li45  1  0.33444050  0.91969297  0.28060061  1
  Li  Li46  1  0.66598296  0.48028259  0.27968251  1
  Li  Li47  1  0.50191037  0.89590297  0.31387636  1
  Li  Li48  1  0.49786109  0.50279760  0.24613578  1
  Li  Li49  1  0.17030266  0.33759951  0.37918974  1
  Li  Li50  1  0.83751329  0.55975858  0.37779852  1
  Li  Li51  1  0.75067045  0.94987797  0.33082506  1
  Li  Li52  1  0.24948022  0.45028688  0.22913608  1
  Li  Li53  1  0.24960282  0.94947577  0.23073116  1
  Li  Li54  1  0.75026405  0.45056417  0.32946989  1
  Li  Li55  1  0.83863303  0.42387003  0.47653059  1
  Li  Li56  1  0.17153526  0.97421557  0.48032266  1
  Li  Li57  1  0.00768130  0.39605618  0.44518768  1
  Li  Li58  1  0.00119171  0.99548398  0.51394269  1
  Li  Li59  1  0.50457175  0.64614542  0.41471509  1
  Li  Li60  1  0.54295263  0.81381840  0.53589658  1
  Li  Li61  1  0.10152048  0.60414498  0.55461572  1
  Li  Li62  1  0.75504949  0.68871809  0.40003277  1
  Li  Li63  1  0.38797843  0.44618911  0.52433697  1
  Li  Li64  1  0.60956442  0.87217704  0.43196408  1
  Li  Li65  1  0.25808057  0.20184954  0.49702639  1
  Li  Li66  1  0.74796873  0.18070934  0.45616915  1
  Li  Li67  1  0.10188937  0.89704481  0.53815603  1
  Li  Li68  1  0.90339623  0.54488107  0.43085585  1
  Li  Li69  1  0.89448653  0.51998401  0.52900230  1
  Li  Li70  1  0.01117958  0.76287945  0.41368236  1
  Li  Li71  1  0.33292592  0.42260781  0.47536253  1
  Li  Li72  1  0.65155969  0.96918117  0.48188500  1
  Li  Li73  1  0.62413854  0.44581903  0.51667133  1
  Li  Li74  1  0.49185499  0.99815750  0.44781204  1
  Li  Li75  1  0.25019421  0.94717380  0.43221805  1
  Li  Li76  1  0.25476229  0.45318804  0.42903317  1
  Li  Li77  1  0.75906271  0.97744236  0.52879896  1
  La  La78  1  0.12124008  0.51564519  0.10519173  1
  La  La79  1  0.86150423  0.88651653  0.05809651  1
  La  La80  1  0.36320398  0.13015920  0.15479488  1
  La  La81  1  0.62908099  0.25211132  0.00905238  1
  La  La82  1  0.24678380  0.19156935  0.03506426  1
  La  La83  1  0.74309599  0.19752400  0.13129070  1
  La  La84  1  0.74208837  0.69570709  0.12738620  1
  La  La85  1  0.63939675  0.51191834  0.04740418  1
  La  La86  1  0.37150584  0.88278722  0.10496794  1
  La  La87  1  0.88283655  0.16129144  0.00782687  1
  La  La88  1  0.12652935  0.26517967  0.15547204  1
  La  La89  1  0.12867874  0.01378198  0.30517819  1
  La  La90  1  0.87090529  0.38580688  0.25472368  1
  La  La91  1  0.37752136  0.63982624  0.35523889  1
  La  La92  1  0.62229734  0.75995080  0.20466296  1
  La  La93  1  0.24772102  0.69880424  0.23020453  1
  La  La94  1  0.75181989  0.70071719  0.32963096  1
  La  La95  1  0.75288851  0.20073948  0.33003622  1
  La  La96  1  0.24695502  0.19900624  0.22986203  1
  La  La97  1  0.62770476  0.01328090  0.25404777  1
  La  La98  1  0.37189937  0.38626367  0.30587415  1
  La  La99  1  0.86659763  0.63396648  0.20559518  1
  La  La100  1  0.13320718  0.76573161  0.35433062  1
  La  La101  1  0.13887224  0.51362970  0.50189078  1
  La  La102  1  0.87906758  0.88423996  0.45461727  1
  La  La103  1  0.37115188  0.14780890  0.55083616  1
  La  La104  1  0.63714392  0.26983279  0.40517914  1
  La  La105  1  0.25688610  0.20196702  0.42867048  1
  La  La106  1  0.75334319  0.20843695  0.52490566  1
  La  La107  1  0.25780580  0.70403717  0.43254474  1
  La  La108  1  0.62843772  0.51718854  0.45480946  1
  La  La109  1  0.36079198  0.88828343  0.51251361  1
  La  La110  1  0.87353389  0.13460274  0.40442576  1
  La  La111  1  0.11726403  0.23853622  0.55208989  1
  Zr  Zr112  1  0.99686433  0.44958466  0.17994338  1
  Zr  Zr113  1  0.49446714  0.70068230  0.07672868  1
  Zr  Zr114  1  0.49761843  0.19525764  0.08211515  1
  Zr  Zr115  1  0.99487749  0.94679782  0.17962058  1
  Zr  Zr116  1  0.00209768  0.69976404  0.07586796  1
  Zr  Zr117  1  0.99838494  0.20365695  0.08128861  1
  Zr  Zr118  1  0.49563220  0.44844587  0.17847022  1
  Zr  Zr119  1  0.49571869  0.94597776  0.18017079  1
  Zr  Zr120  1  0.00304592  0.95006319  0.37993700  1
  Zr  Zr121  1  0.49991399  0.19990299  0.27997611  1
  Zr  Zr122  1  0.49957195  0.69970337  0.27996988  1
  Zr  Zr123  1  0.00523748  0.45282566  0.38036227  1
  Zr  Zr124  1  0.99982438  0.19986626  0.28000489  1
  Zr  Zr125  1  0.99973246  0.69980924  0.27990571  1
  Zr  Zr126  1  0.50439596  0.95140855  0.38140556  1
  Zr  Zr127  1  0.50374849  0.45343423  0.37972088  1
  Zr  Zr128  1  0.50612044  0.69975423  0.48323034  1
  Zr  Zr129  1  0.50260089  0.20482637  0.47783046  1
  Zr  Zr130  1  0.99829236  0.70061230  0.48416967  1
  Zr  Zr131  1  0.00200602  0.19642290  0.47862991  1
  O  O132  1  0.79610678  0.88056277  0.16130772  1
  O  O133  1  0.19828962  0.01391940  0.19870065  1
  O  O134  1  0.40390844  0.12034844  0.03781807  1
  O  O135  1  0.59073714  0.28176205  0.12087274  1
  O  O136  1  0.69900470  0.83728460  0.09795042  1
  O  O137  1  0.32037781  0.55655907  0.05630560  1
  O  O138  1  0.90520111  0.44053594  0.13946092  1
  O  O139  1  0.67438114  0.31499074  0.05658954  1
  O  O140  1  0.32250356  0.05247891  0.10627756  1
  O  O141  1  0.88071866  0.33446434  0.01269127  1
  O  O142  1  0.11887413  0.06853272  0.14534157  1
  O  O143  1  0.02782873  0.97435899  0.01684678  1
  O  O144  1  0.17003878  0.48146840  0.15451310  1
  O  O145  1  0.62855650  0.70829025  0.04164114  1
  O  O146  1  0.36970541  0.68360176  0.11314068  1
  O  O147  1  0.40211753  0.74682088  0.18396954  1
  O  O148  1  0.58402628  0.14440670  0.17553245  1
  O  O149  1  0.51247671  0.61128541  0.16121867  1
  O  O150  1  0.47515338  0.28448816  0.19704672  1
  O  O151  1  0.09016989  0.09409861  0.07757310  1
  O  O152  1  0.91307501  0.31214882  0.08424335  1
  O  O153  1  0.96861757  0.83962825  0.09832257  1
  O  O154  1  0.00434914  0.55093904  0.06005182  1
  O  O155  1  0.08367668  0.64588953  0.18440736  1
  O  O156  1  0.90433532  0.24967123  0.17642350  1
  O  O157  1  0.52436494  0.56213229  0.09769203  1
  O  O158  1  0.48545506  0.85325201  0.06397409  1
  O  O159  1  0.40936327  0.30223092  0.07723513  1
  O  O160  1  0.59218976  0.09165163  0.08869480  1
  O  O161  1  0.97837352  0.78457648  0.16253237  1
  O  O162  1  0.01617278  0.11160209  0.19854382  1
  O  O163  1  0.11543567  0.70662660  0.11381607  1
  O  O164  1  0.90878846  0.72541394  0.03952651  1
  O  O165  1  0.17793488  0.34269137  0.10322709  1
  O  O166  1  0.81165295  0.06041844  0.05381165  1
  O  O167  1  0.37180851  0.33139744  0.14334040  1
  O  O168  1  0.64812349  0.07290524  0.00732005  1
  O  O169  1  0.31474389  0.90408044  0.15614533  1
  O  O170  1  0.71607511  0.46274394  0.00810399  1
  O  O171  1  0.79371378  0.56264322  0.09367605  1
  O  O172  1  0.19774409  0.85972007  0.06185417  1
  O  O173  1  0.08005555  0.27085560  0.03868686  1
  O  O174  1  0.89963380  0.11573630  0.11938129  1
  O  O175  1  0.69558167  0.51377824  0.15947280  1
  O  O176  1  0.29328658  0.38136273  0.19730682  1
  O  O177  1  0.39719820  0.40990630  0.02384522  1
  O  O178  1  0.58681951  0.95414070  0.14033498  1
  O  O179  1  0.80211195  0.38628347  0.36130278  1
  O  O180  1  0.20415446  0.51922030  0.39868358  1
  O  O181  1  0.40543648  0.61912169  0.23972370  1
  O  O182  1  0.59355785  0.78058950  0.32026912  1
  O  O183  1  0.70220565  0.33401368  0.29837972  1
  O  O184  1  0.29752907  0.06590104  0.26165768  1
  O  O185  1  0.08975776  0.46109913  0.22004377  1
  O  O186  1  0.90976590  0.93810455  0.33990823  1
  O  O187  1  0.67874772  0.84069931  0.25564452  1
  O  O188  1  0.32020674  0.55817450  0.30431929  1
  O  O189  1  0.87395700  0.83481524  0.21589760  1
  O  O190  1  0.12564997  0.56484691  0.34399746  1
  O  O191  1  0.81496820  0.40939645  0.20377932  1
  O  O192  1  0.18491587  0.98997549  0.35613013  1
  O  O193  1  0.61956794  0.20786407  0.24381334  1
  O  O194  1  0.37994516  0.19165229  0.31611938  1
  O  O195  1  0.41588534  0.25519843  0.38441545  1
  O  O196  1  0.59732911  0.65267487  0.37583745  1
  O  O197  1  0.52495253  0.11533346  0.36289940  1
  O  O198  1  0.48731320  0.78842964  0.39862188  1
  O  O199  1  0.08901154  0.59060162  0.27565283  1
  O  O200  1  0.91009892  0.80879987  0.28420192  1
  O  O201  1  0.97986227  0.34374744  0.29791523  1
  O  O202  1  0.01971250  0.05570446  0.26208348  1
  O  O203  1  0.09583532  0.14994097  0.38352587  1
  O  O204  1  0.91623563  0.75351962  0.37554577  1
  O  O205  1  0.52026667  0.05672456  0.29822553  1
  O  O206  1  0.47954295  0.34304482  0.26172461  1
  O  O207  1  0.40892296  0.80744988  0.27644109  1
  O  O208  1  0.59045578  0.59209975  0.28360573  1
  O  O209  1  0.98460318  0.28857272  0.36149978  1
  O  O210  1  0.02211375  0.61534529  0.39755675  1
  O  O211  1  0.12622142  0.20703750  0.31465407  1
  O  O212  1  0.87364419  0.19225210  0.24522221  1
  O  O213  1  0.17545152  0.84267408  0.30473374  1
  O  O214  1  0.82365220  0.55660350  0.25514376  1
  O  O215  1  0.38095360  0.83680954  0.34589553  1
  O  O216  1  0.61853600  0.56284276  0.21402216  1
  O  O217  1  0.32858976  0.42224015  0.35503600  1
  O  O218  1  0.67065898  0.97702487  0.20490711  1
  O  O219  1  0.80030934  0.06456131  0.29908517  1
  O  O220  1  0.19902022  0.33506455  0.26079325  1
  O  O221  1  0.09040459  0.78090242  0.23959329  1
  O  O222  1  0.90848569  0.61853444  0.32017559  1
  O  O223  1  0.70656140  0.01857897  0.36253324  1
  O  O224  1  0.30440978  0.88615688  0.40035795  1
  O  O225  1  0.40560562  0.93701588  0.22067556  1
  O  O226  1  0.59334540  0.46220157  0.33915328  1
  O  O227  1  0.40935484  0.11791778  0.43910743  1
  O  O228  1  0.59603235  0.27944669  0.52205817  1
  O  O229  1  0.67984614  0.84414103  0.50371690  1
  O  O230  1  0.30135080  0.56271478  0.46200418  1
  O  O231  1  0.09437515  0.95886197  0.42053037  1
  O  O232  1  0.67770500  0.34782955  0.45370291  1
  O  O233  1  0.32582432  0.08482528  0.50332438  1
  O  O234  1  0.88126137  0.33138464  0.41463557  1
  O  O235  1  0.11924694  0.06538225  0.54719661  1
  O  O236  1  0.82971625  0.91820565  0.40525328  1
  O  O237  1  0.97353633  0.42656105  0.54314386  1
  O  O238  1  0.63051373  0.71646248  0.44671867  1
  O  O239  1  0.37207186  0.69204546  0.51833085  1
  O  O240  1  0.08751433  0.08818132  0.47563055  1
  O  O241  1  0.91011023  0.30571810  0.48240151  1
  O  O242  1  0.99546997  0.84936937  0.49978505  1
  O  O243  1  0.03184986  0.56028432  0.46176779  1
  O  O244  1  0.51488700  0.54697356  0.49591527  1
  O  O245  1  0.47601076  0.83787445  0.46222333  1
  O  O246  1  0.40817650  0.30846112  0.47121211  1
  O  O247  1  0.59085227  0.09749543  0.48280792  1
  O  O248  1  0.09282843  0.67554529  0.52044087  1
  O  O249  1  0.88463109  0.69290765  0.44622178  1
  O  O250  1  0.18854389  0.33943247  0.50603813  1
  O  O251  1  0.82233108  0.05732099  0.45666620  1
  O  O252  1  0.35178060  0.32683235  0.55244734  1
  O  O253  1  0.62822627  0.06782859  0.41662426  1
  O  O254  1  0.28372245  0.93711946  0.55179339  1
  O  O255  1  0.68481795  0.49571114  0.40369890  1
  O  O256  1  0.80354611  0.54058719  0.49832540  1
  O  O257  1  0.20654841  0.83730551  0.46622287  1
  O  O258  1  0.10024392  0.28389731  0.44044529  1
  O  O259  1  0.92009168  0.12869889  0.52119455  1
  O  O260  1  0.41303143  0.44540351  0.41956604  1
  O  O261  1  0.60344299  0.99083720  0.53653582  1
