# generated using pymatgen
data_Li38La16Zr10O63
_symmetry_space_group_name_H-M   'P 1'
_cell_length_a   12.70453900
_cell_length_b   13.20454200
_cell_length_c   31.80681200
_cell_angle_alpha   90.00000000
_cell_angle_beta   90.00000000
_cell_angle_gamma   90.00000000
_symmetry_Int_Tables_number   1
_chemical_formula_structural   Li38La16Zr10O63
_chemical_formula_sum   'Li76 La32 Zr20 O126'
_cell_volume   5335.83504325
_cell_formula_units_Z   2
loop_
 _symmetry_equiv_pos_site_id
 _symmetry_equiv_pos_as_xyz
  1  'x, y, z'
loop_
 _atom_site_type_symbol
 _atom_site_label
 _atom_site_symmetry_multiplicity
 _atom_site_fract_x
 _atom_site_fract_y
 _atom_site_fract_z
 _atom_site_occupancy
  Li  Li0  1  0.69145001  0.91524474  0.13195678  1
  Li  Li1  1  0.80800869  0.07897034  0.13003201  1
  Li  Li2  1  0.20924170  0.62082929  0.13187526  1
  Li  Li3  1  0.26894716  0.40199140  0.12262938  1
  Li  Li4  1  0.87501314  0.24158768  0.16750745  1
  Li  Li5  1  0.63260003  0.75523329  0.16838841  1
  Li  Li6  1  0.36110606  0.24944700  0.16955700  1
  Li  Li7  1  0.12742025  0.74805504  0.17322825  1
  Li  Li8  1  0.29796608  0.07216546  0.20003591  1
  Li  Li9  1  0.18405737  0.91244292  0.20425646  1
  Li  Li10  1  0.82564515  0.40249444  0.20080770  1
  Li  Li11  1  0.70555993  0.57296749  0.20362250  1
  Li  Li12  1  0.43984998  0.33532332  0.23750290  1
  Li  Li13  1  0.05914096  0.66371476  0.23598661  1
  Li  Li14  1  0.93758236  0.16319361  0.23340043  1
  Li  Li15  1  0.56090100  0.84040750  0.23635030  1
  Li  Li16  1  0.38834170  0.93305004  0.24094878  1
  Li  Li17  1  0.10443433  0.06954900  0.23516140  1
  Li  Li18  1  0.60793072  0.42725473  0.23869605  1
  Li  Li19  1  0.89626816  0.56585428  0.23828349  1
  Li  Li20  1  0.35072948  0.43035896  0.30137922  1
  Li  Li21  1  0.13070580  0.56592460  0.30206829  1
  Li  Li22  1  0.64732451  0.92795586  0.30330765  1
  Li  Li23  1  0.87179196  0.06779065  0.30237384  1
  Li  Li24  1  0.05422672  0.16253754  0.30323977  1
  Li  Li25  1  0.44896943  0.83232314  0.30740735  1
  Li  Li26  1  0.55229027  0.33151698  0.30686796  1
  Li  Li27  1  0.94691767  0.66238449  0.30598885  1
  Li  Li28  1  0.18788759  0.40868831  0.34392399  1
  Li  Li29  1  0.30706925  0.58740106  0.34202257  1
  Li  Li30  1  0.69438039  0.08614908  0.34222736  1
  Li  Li31  1  0.81251477  0.91049890  0.34415257  1
  Li  Li32  1  0.37554401  0.74794692  0.37505424  1
  Li  Li33  1  0.13061602  0.23735779  0.37205682  1
  Li  Li34  1  0.87584933  0.74626817  0.37411820  1
  Li  Li35  1  0.62633135  0.24605468  0.37474085  1
  Li  Li36  1  0.80799784  0.58964063  0.40654552  1
  Li  Li37  1  0.68725481  0.40759854  0.40712104  1
  Li  Li38  1  0.30594642  0.91311089  0.40884714  1
  Li  Li39  1  0.20087894  0.07935546  0.40970964  1
  Li  Li40  1  0.94237275  0.82595366  0.44006134  1
  Li  Li41  1  0.55642930  0.17067870  0.44276585  1
  Li  Li42  1  0.44610509  0.66441367  0.44425893  1
  Li  Li43  1  0.07641536  0.33088969  0.42498319  1
  Li  Li44  1  0.84020288  0.43630595  0.44953921  1
  Li  Li45  1  0.64204498  0.56955200  0.44835019  1
  Li  Li46  1  0.11629224  0.92716210  0.44905093  1
  Li  Li47  1  0.38853257  0.07068098  0.44834558  1
  Li  Li48  1  0.91188458  0.93117646  0.50495814  1
  Li  Li49  1  0.59167769  0.07442477  0.51115702  1
  Li  Li50  1  0.16275771  0.43910122  0.51032573  1
  Li  Li51  1  0.35957422  0.56565880  0.51162595  1
  Li  Li52  1  0.54884392  0.65768987  0.51245897  1
  Li  Li53  1  0.99185135  0.37744923  0.48485829  1
  Li  Li54  1  0.06634035  0.83177939  0.51542867  1
  Li  Li55  1  0.43433078  0.16970422  0.51496719  1
  Li  Li56  1  0.74072868  0.98007797  0.53133938  1
  Li  Li57  1  0.82640971  0.13677828  0.54996224  1
  Li  Li58  1  0.17503550  0.59819831  0.55118584  1
  Li  Li59  1  0.33019692  0.40653431  0.55138473  1
  Li  Li60  1  0.90683347  0.32133708  0.55142124  1
  Li  Li61  1  0.63000634  0.76143882  0.57319403  1
  Li  Li62  1  0.36998941  0.24451564  0.58168945  1
  Li  Li63  1  0.12933168  0.75854617  0.58370068  1
  Li  Li64  1  0.30538014  0.08537915  0.61705420  1
  Li  Li65  1  0.18912989  0.92598480  0.61782395  1
  Li  Li66  1  0.79874856  0.43028697  0.62062223  1
  Li  Li67  1  0.71036818  0.63934282  0.61938028  1
  Li  Li68  1  0.39632998  0.32387784  0.64581413  1
  Li  Li69  1  0.10644979  0.67514913  0.64954619  1
  Li  Li70  1  0.91662071  0.21461936  0.61593077  1
  Li  Li71  1  0.59385974  0.79273887  0.64147709  1
  Li  Li72  1  0.61094065  0.67760608  0.10067160  1
  Li  Li73  1  0.89571353  0.31984611  0.10293590  1
  Li  Li74  1  0.08817382  0.78547142  0.10725663  1
  Li  Li75  1  0.36656023  0.17143067  0.10003029  1
  La  La76  1  0.24359586  0.95832979  0.11653200  1
  La  La77  1  0.74878129  0.49399455  0.11932659  1
  La  La78  1  0.87359472  0.74428580  0.16873595  1
  La  La79  1  0.37887661  0.76021468  0.17273041  1
  La  La80  1  0.63883545  0.24348905  0.17162807  1
  La  La81  1  0.12265832  0.24836992  0.16615484  1
  La  La82  1  0.75174532  0.99566579  0.21939921  1
  La  La83  1  0.24905872  0.49848342  0.21710843  1
  La  La84  1  0.50267438  0.11951008  0.27134495  1
  La  La85  1  0.00372847  0.37611268  0.26755938  1
  La  La86  1  0.49932268  0.61997851  0.27278183  1
  La  La87  1  0.99929707  0.87685762  0.27018085  1
  La  La88  1  0.75159828  0.49817548  0.32036569  1
  La  La89  1  0.24955798  0.99929050  0.32059762  1
  La  La90  1  0.37932349  0.24973754  0.37420662  1
  La  La91  1  0.87761562  0.24911809  0.37659851  1
  La  La92  1  0.12388642  0.74860506  0.37567766  1
  La  La93  1  0.62420971  0.74931594  0.37553993  1
  La  La94  1  0.25426273  0.50265587  0.42744578  1
  La  La95  1  0.74897082  0.00028610  0.42958470  1
  La  La96  1  0.99766057  0.61627721  0.48099913  1
  La  La97  1  0.49933830  0.87566057  0.48161667  1
  La  La98  1  0.00442998  0.13009566  0.47931733  1
  La  La99  1  0.50265405  0.38323107  0.48097183  1
  La  La100  1  0.25095757  0.00003462  0.52942989  1
  La  La101  1  0.74636562  0.50846627  0.53398612  1
  La  La102  1  0.88278202  0.75709378  0.57690868  1
  La  La103  1  0.37217548  0.74285484  0.58055637  1
  La  La104  1  0.60887072  0.24920794  0.57813661  1
  La  La105  1  0.13420183  0.25959367  0.57729669  1
  La  La106  1  0.74673045  0.96829472  0.62595297  1
  La  La107  1  0.25099796  0.50041047  0.63031642  1
  Zr  Zr108  1  0.99551357  0.99095245  0.15972264  1
  Zr  Zr109  1  0.50040522  0.00795099  0.15838130  1
  Zr  Zr110  1  0.49952604  0.52653795  0.16361402  1
  Zr  Zr111  1  0.00476006  0.50002208  0.15851129  1
  Zr  Zr112  1  0.75280304  0.24844049  0.27342582  1
  Zr  Zr113  1  0.75059489  0.74659261  0.27195103  1
  Zr  Zr114  1  0.25144956  0.24581327  0.27034401  1
  Zr  Zr115  1  0.24987552  0.74739418  0.27306270  1
  Zr  Zr116  1  0.50155295  0.49856763  0.37412748  1
  Zr  Zr117  1  0.99797158  0.49909751  0.37627222  1
  Zr  Zr118  1  0.00131847  0.99946054  0.37609178  1
  Zr  Zr119  1  0.50010706  0.99781874  0.37476964  1
  Zr  Zr120  1  0.25007939  0.74798317  0.47814995  1
  Zr  Zr121  1  0.25385877  0.25036749  0.47607265  1
  Zr  Zr122  1  0.74948510  0.75018765  0.47757001  1
  Zr  Zr123  1  0.74906374  0.24647455  0.47964458  1
  Zr  Zr124  1  0.00130053  0.01236338  0.58616205  1
  Zr  Zr125  1  0.49318170  0.99177245  0.58849763  1
  Zr  Zr126  1  0.51155075  0.50241837  0.59327963  1
  Zr  Zr127  1  0.99291538  0.50487061  0.59167531  1
  O  O128  1  0.84155186  0.93820696  0.15089567  1
  O  O129  1  0.65619872  0.05836868  0.14843915  1
  O  O130  1  0.15220676  0.44194010  0.15189518  1
  O  O131  1  0.34475660  0.55542238  0.15047223  1
  O  O132  1  0.34530092  0.93864920  0.18112456  1
  O  O133  1  0.15460095  0.04975647  0.17650888  1
  O  O134  1  0.63990782  0.44301498  0.17947103  1
  O  O135  1  0.84825879  0.54521918  0.18158044  1
  O  O136  1  0.46973609  0.16030845  0.18107744  1
  O  O137  1  0.03759057  0.85140254  0.19295498  1
  O  O138  1  0.96881714  0.34748115  0.18826016  1
  O  O139  1  0.53451960  0.65699185  0.18961638  1
  O  O140  1  0.78680427  0.19196711  0.21134766  1
  O  O141  1  0.71604353  0.80869696  0.21231606  1
  O  O142  1  0.28851125  0.30929260  0.21208153  1
  O  O143  1  0.21943405  0.69232078  0.21186025  1
  O  O144  1  0.94836709  0.02303252  0.22670086  1
  O  O145  1  0.54631208  0.98188930  0.22503437  1
  O  O146  1  0.05153223  0.52390229  0.22687850  1
  O  O147  1  0.45025018  0.47462705  0.22518396  1
  O  O148  1  0.09846781  0.21125555  0.24550772  1
  O  O149  1  0.40442519  0.78579639  0.24964990  1
  O  O150  1  0.59905889  0.28279790  0.24918600  1
  O  O151  1  0.90280223  0.70999105  0.24780982  1
  O  O152  1  0.31083708  0.09919777  0.25739388  1
  O  O153  1  0.19453083  0.89683455  0.26133695  1
  O  O154  1  0.80856628  0.39560315  0.25934470  1
  O  O155  1  0.69112889  0.60032281  0.25991948  1
  O  O156  1  0.19470699  0.39631547  0.28402668  1
  O  O157  1  0.30320234  0.59516834  0.28305093  1
  O  O158  1  0.70025668  0.09584972  0.28293105  1
  O  O159  1  0.80390688  0.89835263  0.28435202  1
  O  O160  1  0.40169615  0.28631050  0.29426528  1
  O  O161  1  0.09685168  0.71069738  0.29431607  1
  O  O162  1  0.90640060  0.21245754  0.29386281  1
  O  O163  1  0.59951820  0.78697852  0.29484863  1
  O  O164  1  0.95206243  0.52060095  0.31293258  1
  O  O165  1  0.55712105  0.47218697  0.31171280  1
  O  O166  1  0.04955648  0.02404468  0.31292095  1
  O  O167  1  0.44422513  0.97301391  0.31208684  1
  O  O168  1  0.71943790  0.30099442  0.33321657  1
  O  O169  1  0.78788063  0.68953637  0.33173677  1
  O  O170  1  0.21559203  0.18723268  0.32988568  1
  O  O171  1  0.28273314  0.80024702  0.33333384  1
  O  O172  1  0.03895429  0.34916412  0.36054275  1
  O  O173  1  0.46607701  0.64542804  0.35091011  1
  O  O174  1  0.53658815  0.14491069  0.35095517  1
  O  O175  1  0.96575273  0.85163979  0.35517139  1
  O  O176  1  0.34702455  0.44591196  0.36065588  1
  O  O177  1  0.15274254  0.55300660  0.36215611  1
  O  O178  1  0.65540034  0.94551486  0.36205635  1
  O  O179  1  0.84786373  0.05489484  0.36227550  1
  O  O180  1  0.84418108  0.44524132  0.38867850  1
  O  O181  1  0.65385835  0.55371435  0.38843302  1
  O  O182  1  0.15455368  0.94418510  0.38966202  1
  O  O183  1  0.34784411  0.05382691  0.38919153  1
  O  O184  1  0.96469316  0.64483111  0.39856151  1
  O  O185  1  0.53804249  0.35165674  0.39492989  1
  O  O186  1  0.46696459  0.85050862  0.39521046  1
  O  O187  1  0.03596697  0.14683613  0.39874206  1
  O  O188  1  0.28512401  0.69060983  0.41752239  1
  O  O189  1  0.22276708  0.30372648  0.41429338  1
  O  O190  1  0.78417038  0.80168077  0.41623333  1
  O  O191  1  0.71257425  0.19043626  0.41933857  1
  O  O192  1  0.44734235  0.52435345  0.43614163  1
  O  O193  1  0.05225490  0.46836730  0.43964883  1
  O  O194  1  0.54734740  0.02795818  0.43754469  1
  O  O195  1  0.95094905  0.97056110  0.43898281  1
  O  O196  1  0.59670093  0.71115619  0.45548905  1
  O  O197  1  0.89821543  0.28550665  0.45542396  1
  O  O198  1  0.09764493  0.78161958  0.45539444  1
  O  O199  1  0.40578125  0.21645926  0.45403933  1
  O  O200  1  0.80046405  0.59636201  0.46585233  1
  O  O201  1  0.69827454  0.39699403  0.46797693  1
  O  O202  1  0.30522889  0.89684559  0.46754416  1
  O  O203  1  0.19663677  0.10231040  0.46729960  1
  O  O204  1  0.69161091  0.89734584  0.48805065  1
  O  O205  1  0.80528852  0.09555709  0.49249752  1
  O  O206  1  0.19730676  0.59596913  0.49192926  1
  O  O207  1  0.30723582  0.40211899  0.49144392  1
  O  O208  1  0.90523421  0.78317811  0.49902052  1
  O  O209  1  0.59049743  0.21595764  0.50166204  1
  O  O210  1  0.40060731  0.70698459  0.50134616  1
  O  O211  1  0.10611249  0.29361760  0.49830881  1
  O  O212  1  0.44667563  0.02796801  0.52141413  1
  O  O213  1  0.05405782  0.97814902  0.52156408  1
  O  O214  1  0.55912158  0.52098384  0.52418634  1
  O  O215  1  0.93197114  0.46580083  0.52432408  1
  O  O216  1  0.21342332  0.80265484  0.53804894  1
  O  O217  1  0.28651898  0.19697825  0.53704216  1
  O  O218  1  0.72059309  0.69247062  0.53741482  1
  O  O219  1  0.77185445  0.27407363  0.54381767  1
  O  O220  1  0.51731609  0.84766097  0.55696958  1
  O  O221  1  0.97507287  0.16524131  0.55710732  1
  O  O222  1  0.03130856  0.65031968  0.55927554  1
  O  O223  1  0.46718594  0.34761376  0.56051748  1
  O  O224  1  0.85546623  0.93958023  0.56464238  1
  O  O225  1  0.65157507  0.05655091  0.57069732  1
  O  O226  1  0.14543118  0.45319508  0.56934443  1
  O  O227  1  0.35745623  0.54916041  0.57065662  1
  O  O228  1  0.33773275  0.94452672  0.59852302  1
  O  O229  1  0.15381875  0.06674621  0.59891161  1
  O  O230  1  0.65625200  0.42637272  0.59965171  1
  O  O231  1  0.84047746  0.56653963  0.60024736  1
  O  O232  1  0.40535188  0.03992773  0.10706548  1
  O  O233  1  0.06566935  0.92895134  0.10802651  1
  O  O234  1  0.56904985  0.54381507  0.10679852  1
  O  O235  1  0.92829570  0.45539159  0.10612176  1
  O  O236  1  0.23489426  0.78117687  0.12602677  1
  O  O237  1  0.27217033  0.25790643  0.12307548  1
  O  O238  1  0.73656158  0.69081074  0.12848804  1
  O  O239  1  0.76624056  0.30601298  0.12808761  1
  O  O240  1  0.54309245  0.85934086  0.14423379  1
  O  O241  1  0.95770274  0.13921087  0.14231156  1
  O  O242  1  0.03960488  0.65302582  0.14335010  1
  O  O243  1  0.45468419  0.14178411  0.60549054  1
  O  O244  1  0.04373166  0.86751514  0.60587896  1
  O  O245  1  0.94146640  0.35957422  0.60704967  1
  O  O246  1  0.55113923  0.65209716  0.60703239  1
  O  O247  1  0.73857809  0.78883546  0.62235285  1
  O  O248  1  0.26867247  0.31263733  0.61933464  1
  O  O249  1  0.23196916  0.68923335  0.62103931  1
  O  O250  1  0.89667561  0.07518332  0.62932674  1
  O  O251  1  0.56932004  0.93465593  0.63900559  1
  O  O252  1  0.06946582  0.54329138  0.64433351  1
  O  O253  1  0.43314437  0.45755761  0.64455238  1
