# generated using pymatgen
data_Li66La28Zr18O111
_symmetry_space_group_name_H-M   'P 1'
_cell_length_a   11.27162600
_cell_length_b   18.66058700
_cell_length_c   41.87959700
_cell_angle_alpha   90.00000000
_cell_angle_beta   90.00000000
_cell_angle_gamma   89.99896220
_symmetry_Int_Tables_number   1
_chemical_formula_structural   Li66La28Zr18O111
_chemical_formula_sum   'Li132 La56 Zr36 O222'
_cell_volume   8808.75163541
_cell_formula_units_Z   2
loop_
 _symmetry_equiv_pos_site_id
 _symmetry_equiv_pos_as_xyz
  1  'x, y, z'
loop_
 _atom_site_type_symbol
 _atom_site_label
 _atom_site_symmetry_multiplicity
 _atom_site_fract_x
 _atom_site_fract_y
 _atom_site_fract_z
 _atom_site_occupancy
  Li  Li0  1  0.86655641  0.70466601  0.11697894  1
  Li  Li1  1  0.55242755  0.20556138  0.10293044  1
  Li  Li2  1  0.96210588  0.28655415  0.00026418  1
  Li  Li3  1  0.72853488  0.12630369  0.09530701  1
  Li  Li4  1  0.21228465  0.98206501  0.03010875  1
  Li  Li5  1  0.45794699  0.45585791  0.08859403  1
  Li  Li6  1  0.33440058  0.84778243  0.07209192  1
  Li  Li7  1  0.39036524  0.54595183  0.03733152  1
  Li  Li8  1  0.60504636  0.52252046  0.04945651  1
  Li  Li9  1  0.06754015  0.89045080  0.05613223  1
  Li  Li10  1  0.37087264  0.57961401  0.09348459  1
  Li  Li11  1  0.30896180  0.80305678  0.01122239  1
  Li  Li12  1  0.62914081  0.16466157  0.03599445  1
  Li  Li13  1  0.13165581  0.26515963  0.04932074  1
  Li  Li14  1  0.87316565  0.57713997  0.01503343  1
  Li  Li15  1  0.86607048  0.83256585  0.09079835  1
  Li  Li16  1  0.83785908  0.54313461  0.06827796  1
  Li  Li17  1  0.87359045  0.85633110  0.03440194  1
  Li  Li18  1  0.36646177  0.70730747  0.11784468  1
  Li  Li19  1  0.04888474  0.21392270  0.10733278  1
  Li  Li20  1  0.38956885  0.11323245  0.99774225  1
  Li  Li21  1  0.23522891  0.29014175  0.10237367  1
  Li  Li22  1  0.83146073  0.43145402  0.02167099  1
  Li  Li23  1  0.96565425  0.97017482  0.09062846  1
  Li  Li24  1  0.96909290  0.58401119  0.11404225  1
  Li  Li25  1  0.46712322  0.32780132  0.11384304  1
  Li  Li26  1  0.47277204  0.82779850  0.11368387  1
  Li  Li27  1  0.96230192  0.08717577  0.11370611  1
  Li  Li28  1  0.54489183  0.20041567  0.24560638  1
  Li  Li29  1  0.24860330  0.70752040  0.23172844  1
  Li  Li30  1  0.68402120  0.78836658  0.12645574  1
  Li  Li31  1  0.43554875  0.62410899  0.22556247  1
  Li  Li32  1  0.98395521  0.46615934  0.14251980  1
  Li  Li33  1  0.13883757  0.95383456  0.21025404  1
  Li  Li34  1  0.02729921  0.37110315  0.19502323  1
  Li  Li35  1  0.09293771  0.03670558  0.16252044  1
  Li  Li36  1  0.32081937  0.00919003  0.17177743  1
  Li  Li37  1  0.82242340  0.40275722  0.17368357  1
  Li  Li38  1  0.04347407  0.07999266  0.22205207  1
  Li  Li39  1  0.03897923  0.33524791  0.13999782  1
  Li  Li40  1  0.31934778  0.65519838  0.17335447  1
  Li  Li41  1  0.81953470  0.75615731  0.17352946  1
  Li  Li42  1  0.54126177  0.07914081  0.13645685  1
  Li  Li43  1  0.54562256  0.32884930  0.22197348  1
  Li  Li44  1  0.52657639  0.04108013  0.19336881  1
  Li  Li45  1  0.59194861  0.37482763  0.16372184  1
  Li  Li46  1  0.04640661  0.20846201  0.24600206  1
  Li  Li47  1  0.74912262  0.70559820  0.23163572  1
  Li  Li48  1  0.18409004  0.62035137  0.12683058  1
  Li  Li49  1  0.93348769  0.78923945  0.22505873  1
  Li  Li50  1  0.48122399  0.94861217  0.14018318  1
  Li  Li51  1  0.63970012  0.45726485  0.21213145  1
  Li  Li52  1  0.65042435  0.08035149  0.23818037  1
  Li  Li53  1  0.14846909  0.83052753  0.23849710  1
  Li  Li54  1  0.15129603  0.32988992  0.23965201  1
  Li  Li55  1  0.64866758  0.58117714  0.23903467  1
  Li  Li56  1  0.23421997  0.70380374  0.37083477  1
  Li  Li57  1  0.93573006  0.20868497  0.35699142  1
  Li  Li58  1  0.35965299  0.28780943  0.25254882  1
  Li  Li59  1  0.12279300  0.12148818  0.35097415  1
  Li  Li60  1  0.66382943  0.96070771  0.26597601  1
  Li  Li61  1  0.81984603  0.45322612  0.33620061  1
  Li  Li62  1  0.70977541  0.87213825  0.31702582  1
  Li  Li63  1  0.77277674  0.53874517  0.28645357  1
  Li  Li64  1  0.99305690  0.50890508  0.30039120  1
  Li  Li65  1  0.49824608  0.90270601  0.29884886  1
  Li  Li66  1  0.73671447  0.58081270  0.34516088  1
  Li  Li67  1  0.73732156  0.83112378  0.25938622  1
  Li  Li68  1  0.98888514  0.15322893  0.30196276  1
  Li  Li69  1  0.48755157  0.25684041  0.30290082  1
  Li  Li70  1  0.24305396  0.58136178  0.25826697  1
  Li  Li71  1  0.24320854  0.83020536  0.34444051  1
  Li  Li72  1  0.20991070  0.53907229  0.31658745  1
  Li  Li73  1  0.27406965  0.87241111  0.28604981  1
  Li  Li74  1  0.73222511  0.70802135  0.37093552  1
  Li  Li75  1  0.43525322  0.19885586  0.35821706  1
  Li  Li76  1  0.85913724  0.12141242  0.25211778  1
  Li  Li77  1  0.62489035  0.28728159  0.35008335  1
  Li  Li78  1  0.16324654  0.45306333  0.26638610  1
  Li  Li79  1  0.32201917  0.95697082  0.33579473  1
  Li  Li80  1  0.33338334  0.58033566  0.36380999  1
  Li  Li81  1  0.83148244  0.33000972  0.36312422  1
  Li  Li82  1  0.83386946  0.83084442  0.36428559  1
  Li  Li83  1  0.33151900  0.07945898  0.36449308  1
  Li  Li84  1  0.93348935  0.21378616  0.49510941  1
  Li  Li85  1  0.61579144  0.70695660  0.48479914  1
  Li  Li86  1  0.04784230  0.78852943  0.37739618  1
  Li  Li87  1  0.79660052  0.62012626  0.47630378  1
  Li  Li88  1  0.34147695  0.45667870  0.39045284  1
  Li  Li89  1  0.50085768  0.94843792  0.46270002  1
  Li  Li90  1  0.39088195  0.37485801  0.43842163  1
  Li  Li91  1  0.45511521  0.04104023  0.40947406  1
  Li  Li92  1  0.66140155  0.00908544  0.43073164  1
  Li  Li93  1  0.15957429  0.40233158  0.42910689  1
  Li  Li94  1  0.44139422  0.07895621  0.46646939  1
  Li  Li95  1  0.43991473  0.32863187  0.37939321  1
  Li  Li96  1  0.66310793  0.65575484  0.42916956  1
  Li  Li97  1  0.16198632  0.75555649  0.42876521  1
  Li  Li98  1  0.93897834  0.07953144  0.38084761  1
  Li  Li99  1  0.94431303  0.33484300  0.46263682  1
  Li  Li100  1  0.89047885  0.03622072  0.44011157  1
  Li  Li101  1  0.95373891  0.37070636  0.40806245  1
  Li  Li102  1  0.42960225  0.20505142  0.49996870  1
  Li  Li103  1  0.11545929  0.70481033  0.48583155  1
  Li  Li104  1  0.54508242  0.62448490  0.37706988  1
  Li  Li105  1  0.29675628  0.78830778  0.47667821  1
  Li  Li106  1  0.84358075  0.95434011  0.39313024  1
  Li  Li107  1  0.99804094  0.46595930  0.46017212  1
  Li  Li108  1  0.01955328  0.08729429  0.48918365  1
  Li  Li109  1  0.50902072  0.82756171  0.48890535  1
  Li  Li110  1  0.51409769  0.32758165  0.48909098  1
  Li  Li111  1  0.01159492  0.58409778  0.48877428  1
  Li  Li112  1  0.74840587  0.29027830  0.50023400  1
  Li  Li113  1  0.59238865  0.11407324  0.60537205  1
  Li  Li114  1  0.01561004  0.96979220  0.51216505  1
  Li  Li115  1  0.14967788  0.43174753  0.58064796  1
  Li  Li116  1  0.10837843  0.85580082  0.56874849  1
  Li  Li117  1  0.14320884  0.54318624  0.53416298  1
  Li  Li118  1  0.37489967  0.52374505  0.55394184  1
  Li  Li119  1  0.91393521  0.88998659  0.54683468  1
  Li  Li120  1  0.10912024  0.57708954  0.58757399  1
  Li  Li121  1  0.11667210  0.83289601  0.51246594  1
  Li  Li122  1  0.35219908  0.16516967  0.56668672  1
  Li  Li123  1  0.84935067  0.26494023  0.55362627  1
  Li  Li124  1  0.60962438  0.57909991  0.50928319  1
  Li  Li125  1  0.67327243  0.80342289  0.59126786  1
  Li  Li126  1  0.59016185  0.54572460  0.56574347  1
  Li  Li127  1  0.64778745  0.84791065  0.53037466  1
  Li  Li128  1  0.25369700  0.12613922  0.50757447  1
  Li  Li129  1  0.01786348  0.28675968  0.60239239  1
  Li  Li130  1  0.52291891  0.45595683  0.51405854  1
  Li  Li131  1  0.76973904  0.98187015  0.57276226  1
  La  La132  1  0.63070600  0.64347707  0.09542436  1
  La  La133  1  0.45032589  0.02219159  0.06941773  1
  La  La134  1  0.31635032  0.38716695  0.03847593  1
  La  La135  1  0.63501815  0.34514363  0.05425350  1
  La  La136  1  0.10965525  0.10471230  0.05103191  1
  La  La137  1  0.11095092  0.58754979  0.04800488  1
  La  La138  1  0.61336668  0.81230243  0.04965755  1
  La  La139  1  0.12209924  0.76088162  0.09424353  1
  La  La140  1  0.96689561  0.40081063  0.07331613  1
  La  La141  1  0.82153114  0.03229527  0.03809515  1
  La  La142  1  0.30741166  0.14027660  0.22252492  1
  La  La143  1  0.79381182  0.26892582  0.12940744  1
  La  La144  1  0.14697197  0.52090865  0.19315154  1
  La  La145  1  0.97150776  0.88899783  0.15894222  1
  La  La146  1  0.30703977  0.82897630  0.17571787  1
  La  La147  1  0.80959093  0.58334056  0.17714766  1
  La  La148  1  0.80365533  0.07891429  0.17412164  1
  La  La149  1  0.30463297  0.33185959  0.17604936  1
  La  La150  1  0.80713297  0.26947801  0.22255488  1
  La  La151  1  0.29146467  0.14294796  0.12885911  1
  La  La152  1  0.64664692  0.89092969  0.19135142  1
  La  La153  1  0.47386290  0.52353132  0.16175932  1
  La  La154  1  0.99519788  0.64157974  0.34770840  1
  La  La155  1  0.48520059  0.77037353  0.25453737  1
  La  La156  1  0.82974254  0.01876309  0.31753105  1
  La  La157  1  0.65328092  0.39021084  0.28541900  1
  La  La158  1  0.99094507  0.33068089  0.30134282  1
  La  La159  1  0.49111739  0.07946538  0.30145360  1
  La  La160  1  0.49083756  0.58115164  0.30133585  1
  La  La161  1  0.99118839  0.83027476  0.30136073  1
  La  La162  1  0.49624648  0.77137205  0.34807910  1
  La  La163  1  0.98594068  0.64214109  0.25495650  1
  La  La164  1  0.32805878  0.39073456  0.31718813  1
  La  La165  1  0.15300820  0.01924525  0.28553447  1
  La  La166  1  0.69092044  0.14266456  0.47396139  1
  La  La167  1  0.17589725  0.26948378  0.38028181  1
  La  La168  1  0.50776917  0.52376787  0.44076096  1
  La  La169  1  0.33580511  0.89084401  0.41156346  1
  La  La170  1  0.67478329  0.82909961  0.42701157  1
  La  La171  1  0.17178676  0.58307069  0.42560972  1
  La  La172  1  0.17899901  0.07869730  0.42881535  1
  La  La173  1  0.67742970  0.33160944  0.42674770  1
  La  La174  1  0.18880771  0.26879912  0.47349786  1
  La  La175  1  0.67515547  0.14001300  0.38027634  1
  La  La176  1  0.01087821  0.88846221  0.44387716  1
  La  La177  1  0.83484828  0.52081021  0.40970261  1
  La  La178  1  0.86021002  0.76068648  0.50849303  1
  La  La179  1  0.16029121  0.03237196  0.56476154  1
  La  La180  1  0.01454744  0.40059502  0.52930798  1
  La  La181  1  0.34637688  0.34541845  0.54870257  1
  La  La182  1  0.87194909  0.10460735  0.55178114  1
  La  La183  1  0.87076930  0.58728168  0.55486833  1
  La  La184  1  0.36877582  0.81220364  0.55313954  1
  La  La185  1  0.35121227  0.64335990  0.50724768  1
  La  La186  1  0.66482542  0.38726212  0.56433124  1
  La  La187  1  0.53185758  0.02212473  0.53354466  1
  Zr  Zr188  1  0.71618437  0.46080382  0.11597406  1
  Zr  Zr189  1  0.37194216  0.69314482  0.04811002  1
  Zr  Zr190  1  0.36974783  0.20853065  0.04896269  1
  Zr  Zr191  1  0.71522518  0.95548076  0.10978319  1
  Zr  Zr192  1  0.87305364  0.70920111  0.04542279  1
  Zr  Zr193  1  0.86056089  0.21570643  0.04790837  1
  Zr  Zr194  1  0.22067249  0.45680283  0.11396857  1
  Zr  Zr195  1  0.21816860  0.95015302  0.11219061  1
  Zr  Zr196  1  0.39905479  0.95594126  0.23838754  1
  Zr  Zr197  1  0.05254207  0.20628142  0.17683778  1
  Zr  Zr198  1  0.06043781  0.70465385  0.17614899  1
  Zr  Zr199  1  0.39996332  0.45576610  0.23901527  1
  Zr  Zr200  1  0.55120739  0.20482136  0.17502677  1
  Zr  Zr201  1  0.56051392  0.70749824  0.17603963  1
  Zr  Zr202  1  0.89960637  0.95465039  0.23783720  1
  Zr  Zr203  1  0.89924059  0.45559561  0.23928533  1
  Zr  Zr204  1  0.08187554  0.45545510  0.36343324  1
  Zr  Zr205  1  0.74045938  0.70597250  0.30131320  1
  Zr  Zr206  1  0.74052857  0.20449710  0.30098529  1
  Zr  Zr207  1  0.08359810  0.95448129  0.36502210  1
  Zr  Zr208  1  0.24111711  0.70589567  0.30146896  1
  Zr  Zr209  1  0.24099109  0.20438943  0.30163797  1
  Zr  Zr210  1  0.58223444  0.45540242  0.36363110  1
  Zr  Zr211  1  0.58257280  0.95551473  0.36434597  1
  Zr  Zr212  1  0.76388147  0.95018223  0.49054625  1
  Zr  Zr213  1  0.43140672  0.20487879  0.42790166  1
  Zr  Zr214  1  0.42098659  0.70761907  0.42664294  1
  Zr  Zr215  1  0.76071986  0.45652028  0.48881062  1
  Zr  Zr216  1  0.93007206  0.20597040  0.42588356  1
  Zr  Zr217  1  0.92103780  0.70438277  0.42652449  1
  Zr  Zr218  1  0.26691874  0.95548339  0.49317017  1
  Zr  Zr219  1  0.26578796  0.46064431  0.48672367  1
  Zr  Zr220  1  0.10906008  0.70888200  0.55741430  1
  Zr  Zr221  1  0.12085916  0.21574829  0.55489148  1
  Zr  Zr222  1  0.60995319  0.69296090  0.55461595  1
  Zr  Zr223  1  0.61178816  0.20867219  0.55384819  1
  O  O224  1  0.55425911  0.90943174  0.09291380  1
  O  O225  1  0.43512970  0.30060393  0.06862235  1
  O  O226  1  0.29642716  0.07524693  0.02888822  1
  O  O227  1  0.28370827  0.61750336  0.02209880  1
  O  O228  1  0.48544288  0.74606741  0.08520913  1
  O  O229  1  0.63147212  0.35828410  0.11087622  1
  O  O230  1  0.80536332  0.55719111  0.11749430  1
  O  O231  1  0.26711945  0.27572406  0.02195986  1
  O  O232  1  0.43894563  0.14107377  0.08653673  1
  O  O233  1  0.66479822  0.04274272  0.07621394  1
  O  O234  1  0.87264735  0.39765658  0.12564839  1
  O  O235  1  0.56103568  0.51733987  0.10879773  1
  O  O236  1  0.24422797  0.78018800  0.04962659  1
  O  O237  1  0.48940271  0.60765629  0.05835947  1
  O  O238  1  0.50294394  0.43739276  0.03916888  1
  O  O239  1  0.28383628  0.94248749  0.06499920  1
  O  O240  1  0.30418725  0.49433751  0.07257118  1
  O  O241  1  0.69552171  0.22427615  0.07336576  1
  O  O242  1  0.01963049  0.21159139  0.02475519  1
  O  O243  1  0.97859230  0.65149352  0.01703832  1
  O  O244  1  0.75241934  0.75068814  0.08592348  1
  O  O245  1  0.75024623  0.44987591  0.06545465  1
  O  O246  1  0.02913570  0.98994640  0.03832201  1
  O  O247  1  0.25908471  0.65705227  0.08724611  1
  O  O248  1  0.45700201  0.76949641  0.01931362  1
  O  O249  1  0.48550414  0.17522456  0.01723862  1
  O  O250  1  0.20807734  0.19958024  0.07889292  1
  O  O251  1  0.95695572  0.49217477  0.03266041  1
  O  O252  1  0.80869955  0.92005660  0.06848018  1
  O  O253  1  0.75937188  0.61742368  0.04840045  1
  O  O254  1  0.97779187  0.80128071  0.05724607  1
  O  O255  1  0.77605883  0.14264070  0.01877573  1
  O  O256  1  0.93903520  0.27375179  0.08736939  1
  O  O257  1  0.17098708  0.36732847  0.07936788  1
  O  O258  1  0.37276154  0.01610657  0.12219530  1
  O  O259  1  0.06151065  0.89558996  0.10432262  1
  O  O260  1  0.98571435  0.66224165  0.08439547  1
  O  O261  1  0.77364569  0.78405903  0.02051312  1
  O  O262  1  0.83787956  0.32378473  0.02639071  1
  O  O263  1  0.90690096  0.11789421  0.07227440  1
  O  O264  1  0.05802914  0.50099433  0.10014834  1
  O  O265  1  0.30505661  0.85092441  0.11868781  1
  O  O266  1  0.13029397  0.05338833  0.10696311  1
  O  O267  1  0.87138363  0.00678443  0.12703533  1
  O  O268  1  0.23893220  0.40949754  0.22260137  1
  O  O269  1  0.10110782  0.80641805  0.19588964  1
  O  O270  1  0.01950712  0.60271111  0.15691448  1
  O  O271  1  0.93563324  0.16317144  0.14240137  1
  O  O272  1  0.16978540  0.25240331  0.21011297  1
  O  O273  1  0.31354990  0.85624240  0.23610606  1
  O  O274  1  0.48387600  0.05749753  0.24131208  1
  O  O275  1  0.96348770  0.76454630  0.14250513  1
  O  O276  1  0.14189600  0.64358517  0.21331835  1
  O  O277  1  0.76843301  0.87028530  0.13838788  1
  O  O278  1  0.35073499  0.54462451  0.21053328  1
  O  O279  1  0.55417097  0.89601976  0.24828893  1
  O  O280  1  0.24235819  0.01748036  0.23069372  1
  O  O281  1  0.93582802  0.29742149  0.17489098  1
  O  O282  1  0.17013128  0.11851261  0.17732406  1
  O  O283  1  0.18427526  0.94577732  0.16211899  1
  O  O284  1  0.94005744  0.46618681  0.19030959  1
  O  O285  1  0.98273975  0.00017876  0.19670037  1
  O  O286  1  0.13563494  0.41071543  0.15484757  1
  O  O287  1  0.39921341  0.71798619  0.20341413  1
  O  O288  1  0.71742891  0.69587376  0.14949217  1
  O  O289  1  0.65712300  0.16121179  0.13705700  1
  O  O290  1  0.44294584  0.24845206  0.21157648  1
  O  O291  1  0.43893645  0.94623945  0.18906758  1
  O  O292  1  0.68425591  0.46654328  0.16512722  1
  O  O293  1  0.94236729  0.16105964  0.21213283  1
  O  O294  1  0.15615395  0.25418371  0.14027840  1
  O  O295  1  0.21547800  0.71389327  0.14951339  1
  O  O296  1  0.89853594  0.69443082  0.20376240  1
  O  O297  1  0.63228187  0.00012247  0.15117321  1
  O  O298  1  0.48199781  0.41021207  0.19793411  1
  O  O299  1  0.43608738  0.11374213  0.17311240  1
  O  O300  1  0.66917041  0.29217996  0.17770291  1
  O  O301  1  0.46469894  0.64705814  0.14298446  1
  O  O302  1  0.64203482  0.76938371  0.21301297  1
  O  O303  1  0.27021230  0.54187703  0.14254959  1
  O  O304  1  0.85135788  0.86739356  0.20780665  1
  O  O305  1  0.05343382  0.51678498  0.24883392  1
  O  O306  1  0.74436777  0.39259087  0.23104623  1
  O  O307  1  0.66878609  0.15574316  0.20751366  1
  O  O308  1  0.43155532  0.24971673  0.14145180  1
  O  O309  1  0.52485165  0.80943434  0.15591047  1
  O  O310  1  0.60070036  0.60683553  0.19678676  1
  O  O311  1  0.73886486  0.00131034  0.22075946  1
  O  O312  1  0.37401971  0.40412318  0.12881387  1
  O  O313  1  0.98559838  0.35452167  0.24221946  1
  O  O314  1  0.81302634  0.55534029  0.23627902  1
  O  O315  1  0.55956497  0.50120669  0.25534715  1
  O  O316  1  0.92552364  0.90872357  0.34753949  1
  O  O317  1  0.78001754  0.30550767  0.32112432  1
  O  O318  1  0.70050094  0.10376029  0.28054123  1
  O  O319  1  0.62357418  0.65950915  0.26776706  1
  O  O320  1  0.85684621  0.75281930  0.33491894  1
  O  O321  1  0.99605468  0.35458004  0.36041847  1
  O  O322  1  0.16903669  0.55495646  0.36648424  1
  O  O323  1  0.65217637  0.26456401  0.26501585  1
  O  O324  1  0.83104685  0.14429220  0.33651046  1
  O  O325  1  0.44978377  0.36578608  0.26709456  1
  O  O326  1  0.03223830  0.04385666  0.33659103  1
  O  O327  1  0.23715080  0.39224317  0.37150802  1
  O  O328  1  0.92785567  0.51693134  0.35437197  1
  O  O329  1  0.62465823  0.79612131  0.29881625  1
  O  O330  1  0.85686058  0.61710710  0.30337040  1
  O  O331  1  0.86349881  0.44463626  0.28885271  1
  O  O332  1  0.61903412  0.96676408  0.31446444  1
  O  O333  1  0.66530782  0.49984671  0.32270584  1
  O  O334  1  0.81569032  0.91198527  0.27916604  1
  O  O335  1  0.08355736  0.21556882  0.32880537  1
  O  O336  1  0.39874151  0.19416569  0.27430151  1
  O  O337  1  0.35147439  0.66120292  0.26545903  1
  O  O338  1  0.13086502  0.75124975  0.33728349  1
  O  O339  1  0.11881827  0.44466923  0.31385282  1
  O  O340  1  0.36504214  0.96637931  0.28836822  1
  O  O341  1  0.62984154  0.66145844  0.33718970  1
  O  O342  1  0.85057665  0.75178271  0.26544920  1
  O  O343  1  0.89888757  0.21551164  0.27406814  1
  O  O344  1  0.58392857  0.19368417  0.32874206  1
  O  O345  1  0.31664433  0.50022535  0.27990742  1
  O  O346  1  0.16785396  0.91162949  0.32374177  1
  O  O347  1  0.12472272  0.61670283  0.29922260  1
  O  O348  1  0.35735206  0.79525223  0.30385746  1
  O  O349  1  0.15253503  0.14428072  0.26592588  1
  O  O350  1  0.33233169  0.26412130  0.33740182  1
  O  O351  1  0.95064224  0.04400339  0.26634404  1
  O  O352  1  0.53187708  0.36481072  0.33581493  1
  O  O353  1  0.73985562  0.01731854  0.37227857  1
  O  O354  1  0.42743833  0.89520558  0.35594532  1
  O  O355  1  0.35717597  0.65871804  0.33493647  1
  O  O356  1  0.12456520  0.75246120  0.26776256  1
  O  O357  1  0.20150489  0.30553920  0.28166935  1
  O  O358  1  0.28133164  0.10361850  0.32209070  1
  O  O359  1  0.42225942  0.50066159  0.34713694  1
  O  O360  1  0.05741183  0.90878704  0.25511813  1
  O  O361  1  0.66862128  0.85607502  0.36639624  1
  O  O362  1  0.49808790  0.05716076  0.36144187  1
  O  O363  1  0.24271199  0.00160758  0.38257604  1
  O  O364  1  0.60776510  0.40356093  0.47387086  1
  O  O365  1  0.45709028  0.80951515  0.44672791  1
  O  O366  1  0.38080620  0.60690426  0.40584987  1
  O  O367  1  0.31476738  0.15599024  0.39503783  1
  O  O368  1  0.55063382  0.24949121  0.46149342  1
  O  O369  1  0.67631410  0.85125454  0.48393299  1
  O  O370  1  0.85186935  0.05326398  0.49587338  1
  O  O371  1  0.33884696  0.76883166  0.38968688  1
  O  O372  1  0.51727092  0.64699424  0.45959109  1
  O  O373  1  0.13094782  0.86674257  0.39479558  1
  O  O374  1  0.71116275  0.54156552  0.46020084  1
  O  O375  1  0.92032817  0.89503655  0.49843667  1
  O  O376  1  0.60922722  0.01608385  0.48071812  1
  O  O377  1  0.31256829  0.29182810  0.42535540  1
  O  O378  1  0.54636450  0.11354886  0.42965982  1
  O  O379  1  0.54392929  0.94611989  0.41380460  1
  O  O380  1  0.29777535  0.46622315  0.43755789  1
  O  O381  1  0.35004202  0.00000276  0.45178030  1
  O  O382  1  0.49975909  0.41000625  0.40455915  1
  O  O383  1  0.76643002  0.71386663  0.45338935  1
  O  O384  1  0.08266644  0.69374478  0.39881972  1
  O  O385  1  0.04041117  0.16070222  0.39068214  1
  O  O386  1  0.82630230  0.25397223  0.46238117  1
  O  O387  1  0.79824852  0.94580617  0.44069175  1
  O  O388  1  0.04193751  0.46593599  0.41247959  1
  O  O389  1  0.32517556  0.16099518  0.46575522  1
  O  O390  1  0.53980619  0.24829073  0.39135405  1
  O  O391  1  0.58235320  0.71822645  0.39927233  1
  O  O392  1  0.26430527  0.69583677  0.45334015  1
  O  O393  1  0.99970053  0.99972559  0.40616694  1
  O  O394  1  0.84646572  0.41023686  0.44797176  1
  O  O395  1  0.81256275  0.11825315  0.42540160  1
  O  O396  1  0.04675673  0.29723022  0.42773772  1
  O  O397  1  0.83885255  0.64369779  0.38943907  1
  O  O398  1  0.01848905  0.76418764  0.46005969  1
  O  O399  1  0.63104827  0.54476327  0.39177848  1
  O  O400  1  0.21329849  0.87030221  0.46472961  1
  O  O401  1  0.42094716  0.51754345  0.49366505  1
  O  O402  1  0.10947656  0.39740817  0.47700885  1
  O  O403  1  0.04639514  0.16311888  0.46044923  1
  O  O404  1  0.81295071  0.25198253  0.39248805  1
  O  O405  1  0.88060607  0.80626768  0.40684551  1
  O  O406  1  0.96201762  0.60239397  0.44573466  1
  O  O407  1  0.11077527  0.00682955  0.47587175  1
  O  O408  1  0.74283703  0.40917754  0.38027433  1
  O  O409  1  0.35032202  0.35829582  0.49221389  1
  O  O410  1  0.17588609  0.55684936  0.48525483  1
  O  O411  1  0.92335587  0.50086122  0.50256292  1
  O  O412  1  0.14273137  0.32397130  0.57627325  1
  O  O413  1  0.07488169  0.11783452  0.53060142  1
  O  O414  1  0.99633355  0.66206130  0.51840721  1
  O  O415  1  0.20857616  0.78343363  0.58234772  1
  O  O416  1  0.04267369  0.27365238  0.51532124  1
  O  O417  1  0.20562629  0.14294496  0.58404431  1
  O  O418  1  0.81049362  0.36727525  0.52350378  1
  O  O419  1  0.00443510  0.80103521  0.54566350  1
  O  O420  1  0.22282315  0.61673950  0.55445260  1
  O  O421  1  0.23098104  0.44998159  0.53725226  1
  O  O422  1  0.95298734  0.98973034  0.56441791  1
  O  O423  1  0.02389627  0.49227954  0.56995082  1
  O  O424  1  0.17409637  0.91987604  0.53462221  1
  O  O425  1  0.49594639  0.17530571  0.58552426  1
  O  O426  1  0.77357431  0.19963120  0.52387897  1
  O  O427  1  0.72234964  0.65677796  0.51554714  1
  O  O428  1  0.52531832  0.76964418  0.58336682  1
  O  O429  1  0.47823178  0.43784420  0.56385243  1
  O  O430  1  0.69863774  0.94253790  0.53778321  1
  O  O431  1  0.00338562  0.65121383  0.58576249  1
  O  O432  1  0.22947500  0.75046748  0.51697015  1
  O  O433  1  0.28604229  0.22426384  0.52940766  1
  O  O434  1  0.96160304  0.21136554  0.57800021  1
  O  O435  1  0.67687813  0.49410997  0.53014705  1
  O  O436  1  0.49189188  0.60770617  0.54454172  1
  O  O437  1  0.73782085  0.78021379  0.55292600  1
  O  O438  1  0.54330871  0.14088247  0.51633929  1
  O  O439  1  0.71434062  0.27578246  0.58090958  1
  O  O440  1  0.31741910  0.04275903  0.52670220  1
  O  O441  1  0.69780828  0.61736654  0.58070245  1
  O  O442  1  0.49622965  0.74578828  0.51746154  1
  O  O443  1  0.54589779  0.30076062  0.53438149  1
  O  O444  1  0.68559692  0.07522540  0.57424553  1
  O  O445  1  0.42797144  0.90928742  0.50995377  1
