# generated using pymatgen
data_Li40La18Zr10O67
_symmetry_space_group_name_H-M   'P 1'
_cell_length_a   11.27162600
_cell_length_b   11.27162572
_cell_length_c   45.65416700
_cell_angle_alpha   90.00000000
_cell_angle_beta   90.00000000
_cell_angle_gamma   108.34782046
_symmetry_Int_Tables_number   1
_chemical_formula_structural   Li40La18Zr10O67
_chemical_formula_sum   'Li80 La36 Zr20 O134'
_cell_volume   5505.46986988
_cell_formula_units_Z   2
loop_
 _symmetry_equiv_pos_site_id
 _symmetry_equiv_pos_as_xyz
  1  'x, y, z'
loop_
 _atom_site_type_symbol
 _atom_site_label
 _atom_site_symmetry_multiplicity
 _atom_site_fract_x
 _atom_site_fract_y
 _atom_site_fract_z
 _atom_site_occupancy
  Li  Li0  1  0.63941766  0.74756125  0.02279296  1
  Li  Li1  1  0.89790152  0.82641863  0.13788191  1
  Li  Li2  1  0.48546808  0.91784230  0.03627987  1
  Li  Li3  1  0.06079113  0.67989400  0.12574847  1
  Li  Li4  1  0.47457714  0.28613515  0.16117367  1
  Li  Li5  1  0.50511685  0.24783235  0.10567678  1
  Li  Li6  1  0.06772270  0.36308467  0.06349221  1
  Li  Li7  1  0.08597547  0.16218380  0.04161511  1
  Li  Li8  1  0.47480255  0.46693732  0.12039135  1
  Li  Li9  1  0.93030434  0.35949276  0.02648318  1
  Li  Li10  1  0.69433117  0.25338582  0.14459892  1
  Li  Li11  1  0.08981604  0.83837629  0.16711060  1
  Li  Li12  1  0.92785220  0.28882774  0.18851455  1
  Li  Li13  1  0.06511634  0.87580743  0.09990373  1
  Li  Li14  1  0.51337555  0.71443984  0.07225357  1
  Li  Li15  1  0.03007314  0.91951274  0.04140208  1
  Li  Li16  1  0.56257012  0.70295850  0.12830917  1
  Li  Li17  1  0.62485966  0.24564512  0.02870368  1
  Li  Li18  1  0.92668831  0.33534388  0.13392688  1
  Li  Li19  1  0.71672356  0.44058959  0.00422785  1
  Li  Li20  1  0.80140425  0.09824485  0.16125798  1
  Li  Li21  1  0.24268721  0.03549814  0.06500537  1
  Li  Li22  1  0.33201803  0.58944315  0.10818288  1
  Li  Li23  1  0.85678600  0.78017343  0.00855534  1
  Li  Li24  1  0.71129233  0.86952836  0.15770352  1
  Li  Li25  1  0.47283685  0.10709175  0.05928053  1
  Li  Li26  1  0.09233598  0.49105250  0.10746012  1
  Li  Li27  1  0.12713810  0.28411830  0.22688458  1
  Li  Li28  1  0.39717120  0.35754686  0.33977915  1
  Li  Li29  1  0.98864836  0.42220621  0.23827704  1
  Li  Li30  1  0.53558136  0.22167167  0.32850504  1
  Li  Li31  1  0.93864066  0.79728746  0.36196695  1
  Li  Li32  1  0.58426534  0.84595881  0.20430634  1
  Li  Li33  1  0.97664915  0.76085270  0.30359328  1
  Li  Li34  1  0.54685936  0.88210405  0.26310623  1
  Li  Li35  1  0.55632885  0.67000064  0.24231922  1
  Li  Li36  1  0.96507495  0.97310008  0.32403038  1
  Li  Li37  1  0.37724039  0.85660541  0.22546628  1
  Li  Li38  1  0.14600779  0.78669582  0.34110105  1
  Li  Li39  1  0.59638212  0.35395411  0.37869870  1
  Li  Li40  1  0.43215048  0.80452026  0.39950459  1
  Li  Li41  1  0.53144757  0.41071739  0.29127203  1
  Li  Li42  1  0.99069848  0.23266247  0.27506051  1
  Li  Li43  1  0.48390587  0.42440956  0.23728768  1
  Li  Li44  1  0.03895759  0.21804867  0.32917828  1
  Li  Li45  1  0.12839471  0.78519425  0.22645689  1
  Li  Li46  1  0.39540344  0.85689566  0.34018035  1
  Li  Li47  1  0.24117772  0.00384061  0.20587059  1
  Li  Li48  1  0.28165050  0.64081261  0.36082263  1
  Li  Li49  1  0.71206632  0.54355456  0.26068403  1
  Li  Li50  1  0.81079255  0.09893632  0.30620382  1
  Li  Li51  1  0.33264725  0.24942655  0.20804669  1
  Li  Li52  1  0.19133273  0.39433551  0.35860408  1
  Li  Li53  1  0.95314147  0.62863396  0.25736647  1
  Li  Li54  1  0.57039920  0.01440582  0.30923473  1
  Li  Li55  1  0.62429647  0.81608135  0.42868521  1
  Li  Li56  1  0.88398310  0.89598468  0.54422658  1
  Li  Li57  1  0.46389546  0.96277355  0.44060442  1
  Li  Li58  1  0.03815686  0.72455130  0.53001532  1
  Li  Li59  1  0.04982427  0.35652075  0.40570854  1
  Li  Li60  1  0.45640151  0.28070654  0.50304597  1
  Li  Li61  1  0.01870274  0.39376916  0.46112592  1
  Li  Li62  1  0.04760119  0.17370737  0.44677506  1
  Li  Li63  1  0.43754314  0.48277674  0.52499888  1
  Li  Li64  1  0.83088928  0.38753117  0.42219343  1
  Li  Li65  1  0.59290294  0.28457594  0.54027562  1
  Li  Li66  1  0.01047168  0.92900273  0.49463001  1
  Li  Li67  1  0.45804894  0.76714449  0.46683211  1
  Li  Li68  1  0.96083817  0.93934515  0.43829098  1
  Li  Li69  1  0.49411665  0.72566126  0.52564540  1
  Li  Li70  1  0.59655749  0.30654545  0.43300198  1
  Li  Li71  1  0.89996641  0.39836638  0.53779009  1
  Li  Li72  1  0.72248085  0.54406682  0.40581079  1
  Li  Li73  1  0.80536034  0.20557152  0.56286017  1
  Li  Li74  1  0.19210889  0.05456256  0.45857458  1
  Li  Li75  1  0.28231594  0.60904893  0.50184339  1
  Li  Li76  1  0.81080486  0.77280458  0.40901155  1
  Li  Li77  1  0.66680095  0.86414631  0.55847528  1
  Li  Li78  1  0.43066195  0.15103343  0.45945261  1
  Li  Li79  1  0.05121636  0.53514480  0.50712547  1
  La  La80  1  0.77883133  0.02946480  0.03307363  1
  La  La81  1  0.77391585  0.54529059  0.13047739  1
  La  La82  1  0.27806617  0.05798506  0.13519684  1
  La  La83  1  0.28452757  0.55499580  0.03988207  1
  La  La84  1  0.35506445  0.22480572  0.01440515  1
  La  La85  1  0.21067329  0.37104285  0.15915188  1
  La  La86  1  0.97652721  0.62607449  0.05298983  1
  La  La87  1  0.59417945  0.99007354  0.10760423  1
  La  La88  1  0.58561154  0.48603276  0.05576845  1
  La  La89  1  0.96643357  0.10516156  0.10678565  1
  La  La90  1  0.22211440  0.88076897  0.01154031  1
  La  La91  1  0.33798580  0.75176339  0.16017115  1
  La  La92  1  0.26843840  0.56747228  0.23324656  1
  La  La93  1  0.25458874  0.07524702  0.33339275  1
  La  La94  1  0.74965829  0.57132427  0.33316366  1
  La  La95  1  0.77314584  0.07136762  0.23361476  1
  La  La96  1  0.83140054  0.74951503  0.20784907  1
  La  La97  1  0.69153951  0.89335362  0.35887522  1
  La  La98  1  0.45374643  0.13324460  0.25841897  1
  La  La99  1  0.06936005  0.50973224  0.30831758  1
  La  La100  1  0.07445360  0.00445420  0.25886209  1
  La  La101  1  0.44825690  0.63791638  0.30781734  1
  La  La102  1  0.70905741  0.37627027  0.20734877  1
  La  La103  1  0.81456306  0.26692877  0.35933984  1
  La  La104  1  0.74954203  0.09731446  0.43619053  1
  La  La105  1  0.74459560  0.61428443  0.53363052  1
  La  La106  1  0.23895715  0.08864176  0.52697757  1
  La  La107  1  0.24509110  0.58508314  0.43159666  1
  La  La108  1  0.31262274  0.27198798  0.40760489  1
  La  La109  1  0.16834976  0.41850207  0.55230518  1
  La  La110  1  0.92927220  0.65294426  0.45910197  1
  La  La111  1  0.54661715  0.01744484  0.51371648  1
  La  La112  1  0.55699823  0.53796891  0.45992646  1
  La  La113  1  0.93713614  0.15698081  0.51124365  1
  La  La114  1  0.18524067  0.89149811  0.40652358  1
  La  La115  1  0.30083879  0.76293045  0.55519548  1
  Zr  Zr116  1  0.52452734  0.56348313  0.18275596  1
  Zr  Zr117  1  0.78633396  0.30111561  0.07881464  1
  Zr  Zr118  1  0.02022755  0.05726967  0.18313676  1
  Zr  Zr119  1  0.28548316  0.80862988  0.08483774  1
  Zr  Zr120  1  0.77721876  0.79281112  0.08093809  1
  Zr  Zr121  1  0.02083362  0.55865223  0.18213989  1
  Zr  Zr122  1  0.52652770  0.06452989  0.18328999  1
  Zr  Zr123  1  0.27794263  0.30091995  0.08585843  1
  Zr  Zr124  1  0.99880972  0.07973943  0.38388433  1
  Zr  Zr125  1  0.26169905  0.82147215  0.28329440  1
  Zr  Zr126  1  0.50263365  0.58544660  0.38357200  1
  Zr  Zr127  1  0.76170837  0.32148019  0.28334601  1
  Zr  Zr128  1  0.26138417  0.32138259  0.28331463  1
  Zr  Zr129  1  0.50237592  0.08423262  0.38447421  1
  Zr  Zr130  1  0.99667373  0.57858383  0.38346247  1
  Zr  Zr131  1  0.76129195  0.82117986  0.28332109  1
  Zr  Zr132  1  0.73729012  0.34236590  0.48784868  1
  Zr  Zr133  1  0.23812475  0.83507177  0.48184417  1
  Zr  Zr134  1  0.74607954  0.85049607  0.48575701  1
  Zr  Zr135  1  0.24546840  0.34196694  0.48090402  1
  O  O136  1  0.19168730  0.61867271  0.08314358  1
  O  O137  1  0.39161449  0.99858821  0.08943467  1
  O  O138  1  0.82791796  0.95769078  0.18700513  1
  O  O139  1  0.21135052  0.16019985  0.17956107  1
  O  O140  1  0.91835769  0.45459958  0.09771752  1
  O  O141  1  0.64827553  0.13919314  0.06096224  1
  O  O142  1  0.68181277  0.69862908  0.16517673  1
  O  O143  1  0.75644216  0.88236548  0.00273848  1
  O  O144  1  0.49668418  0.61398968  0.03236720  1
  O  O145  1  0.04204836  0.97164006  0.14260289  1
  O  O146  1  0.34034797  0.78401838  0.04099993  1
  O  O147  1  0.20077167  0.82789555  0.12558816  1
  O  O148  1  0.60391797  0.43527245  0.16337153  1
  O  O149  1  0.65730232  0.37409885  0.09839463  1
  O  O150  1  0.92471309  0.22675185  0.05603447  1
  O  O151  1  0.21382238  0.32021157  0.04333972  1
  O  O152  1  0.36229452  0.29362482  0.12715535  1
  O  O153  1  0.06745319  0.49609406  0.03056327  1
  O  O154  1  0.51935591  0.14600601  0.14174913  1
  O  O155  1  0.95134310  0.69053617  0.16163522  1
  O  O156  1  0.91487762  0.73222183  0.10118115  1
  O  O157  1  0.63816512  0.86965443  0.06202508  1
  O  O158  1  0.16454592  0.05451590  0.02276976  1
  O  O159  1  0.41196132  0.56822185  0.14634519  1
  O  O160  1  0.78221021  0.39292887  0.03806799  1
  O  O161  1  0.78788664  0.18719947  0.11638672  1
  O  O162  1  0.55333126  0.35718441  0.00918836  1
  O  O163  1  0.98189471  0.19959451  0.15839942  1
  O  O164  1  0.14528181  0.85752880  0.06359003  1
  O  O165  1  0.43561020  0.77069912  0.10711644  1
  O  O166  1  0.91038911  0.95836098  0.06407967  1
  O  O167  1  0.64032077  0.63801150  0.09867615  1
  O  O168  1  0.18452251  0.69182475  0.19929161  1
  O  O169  1  0.86323202  0.41517960  0.16501747  1
  O  O170  1  0.33772593  0.95513313  0.17813193  1
  O  O171  1  0.71795330  0.17371221  0.18713543  1
  O  O172  1  0.17007385  0.11049572  0.09199933  1
  O  O173  1  0.38746382  0.48632745  0.08303741  1
  O  O174  1  0.77451292  0.67558739  0.04454218  1
  O  O175  1  0.77416937  0.90915567  0.11815015  1
  O  O176  1  0.42064070  0.04974858  0.01929719  1
  O  O177  1  0.13596525  0.55287798  0.14632053  1
  O  O178  1  0.01809404  0.76870779  0.01283610  1
  O  O179  1  0.56420003  0.91637132  0.16087493  1
  O  O180  1  0.41884047  0.24909762  0.06374640  1
  O  O181  1  0.12366634  0.33411691  0.10609836  1
  O  O182  1  0.65990604  0.12980395  0.27986241  1
  O  O183  1  0.86333045  0.51322211  0.28680927  1
  O  O184  1  0.31155080  0.48255770  0.38727731  1
  O  O185  1  0.69490096  0.68506226  0.37971250  1
  O  O186  1  0.39550109  0.98232649  0.30088341  1
  O  O187  1  0.12794348  0.66074029  0.26563758  1
  O  O188  1  0.15896195  0.21654695  0.36583389  1
  O  O189  1  0.36412920  0.42658950  0.20076439  1
  O  O190  1  0.99820376  0.13239526  0.22449858  1
  O  O191  1  0.52460092  0.51029127  0.34223897  1
  O  O192  1  0.83771041  0.29518489  0.24228490  1
  O  O193  1  0.68633400  0.34785333  0.32446931  1
  O  O194  1  0.07372449  0.94833417  0.36317223  1
  O  O195  1  0.44958142  0.69487404  0.20352341  1
  O  O196  1  0.12901093  0.89449609  0.30318920  1
  O  O197  1  0.39432785  0.74824584  0.26351343  1
  O  O198  1  0.68318825  0.83277536  0.24161338  1
  O  O199  1  0.83970672  0.80998604  0.32501747  1
  O  O200  1  0.53675075  0.98602646  0.22526401  1
  O  O201  1  0.98634944  0.65719452  0.34148548  1
  O  O202  1  0.43782977  0.22541520  0.36484497  1
  O  O203  1  0.08572887  0.41764786  0.20186374  1
  O  O204  1  0.39968373  0.25753021  0.30367067  1
  O  O205  1  0.12340632  0.38547380  0.26296579  1
  O  O206  1  0.63314881  0.56183345  0.22076505  1
  O  O207  1  0.88973230  0.08100744  0.34590159  1
  O  O208  1  0.26082756  0.92948276  0.24527603  1
  O  O209  1  0.26214910  0.71351304  0.32134934  1
  O  O210  1  0.05689200  0.90742979  0.20580783  1
  O  O211  1  0.46592390  0.73533927  0.36084636  1
  O  O212  1  0.61439103  0.35832290  0.25945382  1
  O  O213  1  0.90897044  0.28453162  0.30724252  1
  O  O214  1  0.40121212  0.48275114  0.26735224  1
  O  O215  1  0.12200763  0.15977890  0.29922544  1
  O  O216  1  0.65999116  0.22731263  0.40172947  1
  O  O217  1  0.33884831  0.95086176  0.36732207  1
  O  O218  1  0.80545251  0.46895865  0.37971710  1
  O  O219  1  0.18555880  0.68840947  0.38867285  1
  O  O220  1  0.65054869  0.63116703  0.28869965  1
  O  O221  1  0.87235487  0.01138378  0.27811767  1
  O  O222  1  0.27096600  0.20709770  0.24723339  1
  O  O223  1  0.25205322  0.43624342  0.31928299  1
  O  O224  1  0.90646344  0.56469336  0.21841415  1
  O  O225  1  0.61688369  0.07825065  0.34825589  1
  O  O226  1  0.48874114  0.21334762  0.20546270  1
  O  O227  1  0.03479136  0.43036044  0.36112001  1
  O  O228  1  0.90874523  0.78111415  0.26083126  1
  O  O229  1  0.61414474  0.86174435  0.30579898  1
  O  O230  1  0.13221574  0.64510884  0.47737760  1
  O  O231  1  0.33153436  0.02494249  0.48375561  1
  O  O232  1  0.87549593  0.50457317  0.50558604  1
  O  O233  1  0.60490044  0.18852725  0.46910816  1
  O  O234  1  0.76621799  0.76093071  0.56408685  1
  O  O235  1  0.84128933  0.94438718  0.40146503  1
  O  O236  1  0.48077971  0.67124286  0.42410139  1
  O  O237  1  0.02658708  0.02962394  0.53461831  1
  O  O238  1  0.32269231  0.81548484  0.44113117  1
  O  O239  1  0.18277256  0.85943965  0.52570732  1
  O  O240  1  0.91931566  0.20819226  0.40326946  1
  O  O241  1  0.59892209  0.41708628  0.51055496  1
  O  O242  1  0.86583657  0.26880692  0.46825936  1
  O  O243  1  0.16098133  0.34866017  0.43966753  1
  O  O244  1  0.30979609  0.32368871  0.52344692  1
  O  O245  1  0.00493593  0.49691964  0.42496049  1
  O  O246  1  0.45613231  0.14751833  0.53624952  1
  O  O247  1  0.57157821  0.95196016  0.40497341  1
  O  O248  1  0.88507078  0.77389593  0.50471552  1
  O  O249  1  0.60851122  0.91089923  0.46539760  1
  O  O250  1  0.11130493  0.07493641  0.42032613  1
  O  O251  1  0.35866896  0.58966312  0.54390876  1
  O  O252  1  0.73579848  0.45569996  0.45017904  1
  O  O253  1  0.74144674  0.25140835  0.52869513  1
  O  O254  1  0.54100152  0.44343826  0.40842672  1
  O  O255  1  0.96968944  0.28655520  0.55772424  1
  O  O256  1  0.08794294  0.87270395  0.45960739  1
  O  O257  1  0.37864089  0.78673230  0.50317695  1
  O  O258  1  0.88322080  0.00528215  0.46796589  1
  O  O259  1  0.61267929  0.68529237  0.50265988  1
  O  O260  1  0.13605304  0.15636203  0.48390699  1
  O  O261  1  0.35320153  0.53247925  0.47478926  1
  O  O262  1  0.74871541  0.73353131  0.44860900  1
  O  O263  1  0.74866361  0.96776451  0.52216550  1
  O  O264  1  0.38746201  0.09002333  0.42037982  1
  O  O265  1  0.10265640  0.59299138  0.54727704  1
  O  O266  1  0.95854740  0.72627162  0.40597328  1
  O  O267  1  0.50515095  0.87497742  0.55396213  1
  O  O268  1  0.39951116  0.30849003  0.46065428  1
  O  O269  1  0.10364877  0.39283646  0.50294880  1
