# generated using pymatgen
data_Li29La11Zr7O45
_symmetry_space_group_name_H-M   'P 1'
_cell_length_a   11.27162600
_cell_length_b   18.66058700
_cell_length_c   41.87959700
_cell_angle_alpha   90.00000000
_cell_angle_beta   90.00000000
_cell_angle_gamma   89.99896220
_symmetry_Int_Tables_number   1
_chemical_formula_structural   Li29La11Zr7O45
_chemical_formula_sum   'Li116 La44 Zr28 O180'
_cell_volume   8808.75163541
_cell_formula_units_Z   4
loop_
 _symmetry_equiv_pos_site_id
 _symmetry_equiv_pos_as_xyz
  1  'x, y, z'
loop_
 _atom_site_type_symbol
 _atom_site_label
 _atom_site_symmetry_multiplicity
 _atom_site_fract_x
 _atom_site_fract_y
 _atom_site_fract_z
 _atom_site_occupancy
  Li  Li0  1  0.94996735  0.62695536  0.06811689  1
  Li  Li1  1  0.66634343  0.02408489  0.05796573  1
  Li  Li2  1  0.72721681  0.63963684  0.07956000  1
  Li  Li3  1  0.86997971  0.94387467  0.05920194  1
  Li  Li4  1  0.10960941  0.29186819  0.09476082  1
  Li  Li5  1  0.56732105  0.30732710  0.03877114  1
  Li  Li6  1  0.54534296  0.67197735  0.03907025  1
  Li  Li7  1  0.22696068  0.84642618  0.11374197  1
  Li  Li8  1  0.80430849  0.32939716  0.00120407  1
  Li  Li9  1  0.30350579  0.72255773  0.00104971  1
  Li  Li10  1  0.27236549  0.39263926  0.02631992  1
  Li  Li11  1  0.16759024  0.15372226  0.09010721  1
  Li  Li12  1  0.74631552  0.95456789  0.01922852  1
  Li  Li13  1  0.24521616  0.09672020  0.01942648  1
  Li  Li14  1  0.66795555  0.89737301  0.08997234  1
  Li  Li15  1  0.77245008  0.65794363  0.02599533  1
  Li  Li16  1  0.04629156  0.37899588  0.03947869  1
  Li  Li17  1  0.72641593  0.20517454  0.11389641  1
  Li  Li18  1  0.45100755  0.42318081  0.06792346  1
  Li  Li19  1  0.16514118  0.02719836  0.05817601  1
  Li  Li20  1  0.22791749  0.41190333  0.07989616  1
  Li  Li21  1  0.37033767  0.10715808  0.05897090  1
  Li  Li22  1  0.60954245  0.75879751  0.09423282  1
  Li  Li23  1  0.06751766  0.74254708  0.03906871  1
  Li  Li24  1  0.04499876  0.47584763  0.07504297  1
  Li  Li25  1  0.60644620  0.16371015  0.06960941  1
  Li  Li26  1  0.54622932  0.57455824  0.07496927  1
  Li  Li27  1  0.10824288  0.88692225  0.06913726  1
  Li  Li28  1  0.66071771  0.02584246  0.19884626  1
  Li  Li29  1  0.36288618  0.52294943  0.18594857  1
  Li  Li30  1  0.48091495  0.10745061  0.20644009  1
  Li  Li31  1  0.54339462  0.44308971  0.18057390  1
  Li  Li32  1  0.77416936  0.78136413  0.22209037  1
  Li  Li33  1  0.25102781  0.76829087  0.17087751  1
  Li  Li34  1  0.14526150  0.18614217  0.14902909  1
  Li  Li35  1  0.88582682  0.35657219  0.24120414  1
  Li  Li36  1  0.46311797  0.83763429  0.12137739  1
  Li  Li37  1  0.96148381  0.21404741  0.12132235  1
  Li  Li38  1  0.17425300  0.89890023  0.16869979  1
  Li  Li39  1  0.85544579  0.65284370  0.21431284  1
  Li  Li40  1  0.42110312  0.47289100  0.12300388  1
  Li  Li41  1  0.92000720  0.57838411  0.12360991  1
  Li  Li42  1  0.35588458  0.39843677  0.21434049  1
  Li  Li43  1  0.67551013  0.15268229  0.16835679  1
  Li  Li44  1  0.64493816  0.86489310  0.14904882  1
  Li  Li45  1  0.38468741  0.69464588  0.24140730  1
  Li  Li46  1  0.16098260  0.02578315  0.19901605  1
  Li  Li47  1  0.86300974  0.52856765  0.18619315  1
  Li  Li48  1  0.98101404  0.94395844  0.20643201  1
  Li  Li49  1  0.04353585  0.60817859  0.18044465  1
  Li  Li50  1  0.27357395  0.27066106  0.22239777  1
  Li  Li51  1  0.75224954  0.28370474  0.17107956  1
  Li  Li52  1  0.76402518  0.90434076  0.19414136  1
  Li  Li53  1  0.25992410  0.64742033  0.19414225  1
  Li  Li54  1  0.26482877  0.14721395  0.19419052  1
  Li  Li55  1  0.75968233  0.40404064  0.19423366  1
  Li  Li56  1  0.34588599  0.52732796  0.32679315  1
  Li  Li57  1  0.04716951  0.02744587  0.31475415  1
  Li  Li58  1  0.16392152  0.60754749  0.33228909  1
  Li  Li59  1  0.23067609  0.94345701  0.30669496  1
  Li  Li60  1  0.45449305  0.28318619  0.34161802  1
  Li  Li61  1  0.93536151  0.27159403  0.28984055  1
  Li  Li62  1  0.82361612  0.69502199  0.27234767  1
  Li  Li63  1  0.56331695  0.86581718  0.36363168  1
  Li  Li64  1  0.10552624  0.32591698  0.25569296  1
  Li  Li65  1  0.60727855  0.72591365  0.25529531  1
  Li  Li66  1  0.84661731  0.39833740  0.30046246  1
  Li  Li67  1  0.53520924  0.15229410  0.34407061  1
  Li  Li68  1  0.09852671  0.97360756  0.25903881  1
  Li  Li69  1  0.59774244  0.07781238  0.25909674  1
  Li  Li70  1  0.03472110  0.89912222  0.34401611  1
  Li  Li71  1  0.34787375  0.65270900  0.30041193  1
  Li  Li72  1  0.32288334  0.35652538  0.27230785  1
  Li  Li73  1  0.06391780  0.18587449  0.36415890  1
  Li  Li74  1  0.84654683  0.52455900  0.32641705  1
  Li  Li75  1  0.54836158  0.02433533  0.31479667  1
  Li  Li76  1  0.66363602  0.44412310  0.33243843  1
  Li  Li77  1  0.73084848  0.10824983  0.30681167  1
  Li  Li78  1  0.95401864  0.76843474  0.34168770  1
  Li  Li79  1  0.43524920  0.77878984  0.28960608  1
  Li  Li80  1  0.44914522  0.40359757  0.31874388  1
  Li  Li81  1  0.94262785  0.14809108  0.31871739  1
  Li  Li82  1  0.94955850  0.64812597  0.31878360  1
  Li  Li83  1  0.44279951  0.90372177  0.31850414  1
  Li  Li84  1  0.04224447  0.02707587  0.45509281  1
  Li  Li85  1  0.75754319  0.42446640  0.44470990  1
  Li  Li86  1  0.83898307  0.10711743  0.45366120  1
  Li  Li87  1  0.98007367  0.41211743  0.43290124  1
  Li  Li88  1  0.14227302  0.74382447  0.47329594  1
  Li  Li89  1  0.59947706  0.75854692  0.41807353  1
  Li  Li90  1  0.48302676  0.20533907  0.39829073  1
  Li  Li91  1  0.16306250  0.37926157  0.47392919  1
  Li  Li92  1  0.74578380  0.83791184  0.39137982  1
  Li  Li93  1  0.24655540  0.21478723  0.39160519  1
  Li  Li94  1  0.54191365  0.89716723  0.42276283  1
  Li  Li95  1  0.43662326  0.65830964  0.48608550  1
  Li  Li96  1  0.78939801  0.47272842  0.38865448  1
  Li  Li97  1  0.28907287  0.57814719  0.38876721  1
  Li  Li98  1  0.93645821  0.39349247  0.48647060  1
  Li  Li99  1  0.04154139  0.15381203  0.42304580  1
  Li  Li100  1  0.98235307  0.84630081  0.39862768  1
  Li  Li101  1  0.66261313  0.67241647  0.47336866  1
  Li  Li102  1  0.54314500  0.02418354  0.45484152  1
  Li  Li103  1  0.25791735  0.62743626  0.44433684  1
  Li  Li104  1  0.33814152  0.94434603  0.45397313  1
  Li  Li105  1  0.47986101  0.63967065  0.43261640  1
  Li  Li106  1  0.64086915  0.30752946  0.47330578  1
  Li  Li107  1  0.09893481  0.29275956  0.41845143  1
  Li  Li108  1  0.10093100  0.88693803  0.44334713  1
  Li  Li109  1  0.66315769  0.57571821  0.43762569  1
  Li  Li110  1  0.60072793  0.16457064  0.44332556  1
  Li  Li111  1  0.16290799  0.47540920  0.43802343  1
  Li  Li112  1  0.40596575  0.32872951  0.51146680  1
  Li  Li113  1  0.90622830  0.72285242  0.51091042  1
  Li  Li114  1  0.46421733  0.95453582  0.49346620  1
  Li  Li115  1  0.96139083  0.09723245  0.49364065  1
  La  La116  1  0.74336001  0.46929196  0.05621757  1
  La  La117  1  0.90845388  0.09503773  0.07280889  1
  La  La118  1  0.60009425  0.82811372  0.02593164  1
  La  La119  1  0.07962991  0.70978810  0.11965739  1
  La  La120  1  0.24311509  0.58168031  0.05618337  1
  La  La121  1  0.40907216  0.95639200  0.07264894  1
  La  La122  1  0.09985057  0.22312116  0.02606855  1
  La  La123  1  0.57978821  0.34136713  0.11978309  1
  La  La124  1  0.42228949  0.96139135  0.17498272  1
  La  La125  1  0.59638382  0.59148917  0.21037632  1
  La  La126  1  0.26075612  0.33702065  0.14852433  1
  La  La127  1  0.76698279  0.20757571  0.23983431  1
  La  La128  1  0.41756576  0.64938144  0.13053968  1
  La  La129  1  0.91752327  0.40178104  0.13064932  1
  La  La130  1  0.91758567  0.90426524  0.13064168  1
  La  La131  1  0.41734148  0.14692884  0.13064528  1
  La  La132  1  0.92242774  0.08985767  0.17494551  1
  La  La133  1  0.09670584  0.46001651  0.21037530  1
  La  La134  1  0.76054314  0.71435897  0.14840784  1
  La  La135  1  0.26709064  0.84380139  0.23980466  1
  La  La136  1  0.11041052  0.45950349  0.30235587  1
  La  La137  1  0.28702803  0.08968940  0.33801267  1
  La  La138  1  0.94024326  0.84340537  0.27283550  1
  La  La139  1  0.44780204  0.71502425  0.36432876  1
  La  La140  1  0.10379614  0.14840867  0.25640165  1
  La  La141  1  0.60378830  0.90309244  0.25639898  1
  La  La142  1  0.60389237  0.39995555  0.25638802  1
  La  La143  1  0.10379699  0.65146476  0.25632578  1
  La  La144  1  0.61060396  0.59202745  0.30229672  1
  La  La145  1  0.78722285  0.96195248  0.33795761  1
  La  La146  1  0.44017030  0.20814722  0.27288212  1
  La  La147  1  0.94789384  0.33654540  0.36445229  1
  La  La148  1  0.80002285  0.95633419  0.44014087  1
  La  La149  1  0.96568993  0.58191984  0.45654312  1
  La  La150  1  0.62861820  0.34189514  0.39294965  1
  La  La151  1  0.10856357  0.22337944  0.48691082  1
  La  La152  1  0.79096050  0.64954097  0.38206043  1
  La  La153  1  0.29070704  0.40180773  0.38219762  1
  La  La154  1  0.29138506  0.90435467  0.38242182  1
  La  La155  1  0.79135230  0.14715153  0.38245847  1
  La  La156  1  0.29994549  0.09522475  0.44028349  1
  La  La157  1  0.46553956  0.46977152  0.45662890  1
  La  La158  1  0.12867749  0.70977615  0.39285600  1
  La  La159  1  0.60904196  0.82798065  0.48675403  1
  Zr  Zr160  1  0.84583306  0.28893335  0.06271909  1
  Zr  Zr161  1  0.85042918  0.77343827  0.06644811  1
  Zr  Zr162  1  0.35008312  0.27739979  0.06663744  1
  Zr  Zr163  1  0.34632159  0.76206399  0.06269127  1
  Zr  Zr164  1  0.51109704  0.77808069  0.19296423  1
  Zr  Zr165  1  0.16998445  0.02414959  0.12754260  1
  Zr  Zr166  1  0.16683774  0.52258148  0.13284674  1
  Zr  Zr167  1  0.51309650  0.27306036  0.19520218  1
  Zr  Zr168  1  0.66983835  0.02694148  0.12750085  1
  Zr  Zr169  1  0.66710025  0.52865111  0.13290232  1
  Zr  Zr170  1  0.01279536  0.77819492  0.19512703  1
  Zr  Zr171  1  0.01134497  0.27309378  0.19293751  1
  Zr  Zr172  1  0.19610749  0.27282815  0.31983981  1
  Zr  Zr173  1  0.85385797  0.52558139  0.25648158  1
  Zr  Zr174  1  0.85359250  0.02607672  0.25630554  1
  Zr  Zr175  1  0.19467430  0.77872760  0.31758755  1
  Zr  Zr176  1  0.35391128  0.52575598  0.25653521  1
  Zr  Zr177  1  0.35362130  0.02542068  0.25630426  1
  Zr  Zr178  1  0.69464909  0.27283855  0.31763661  1
  Zr  Zr179  1  0.69625637  0.77879325  0.31981811  1
  Zr  Zr180  1  0.86250027  0.76230072  0.44970141  1
  Zr  Zr181  1  0.53922379  0.02726655  0.38555016  1
  Zr  Zr182  1  0.54152995  0.52914541  0.37999551  1
  Zr  Zr183  1  0.85828291  0.27791825  0.44637147  1
  Zr  Zr184  1  0.03947378  0.02415369  0.38556671  1
  Zr  Zr185  1  0.04152612  0.52236296  0.38004921  1
  Zr  Zr186  1  0.35879972  0.77394559  0.44619701  1
  Zr  Zr187  1  0.36245570  0.28918518  0.45003938  1
  O  O188  1  0.01619870  0.80663346  0.08165959  1
  O  O189  1  0.68349201  0.72821868  0.05265767  1
  O  O190  1  0.11850634  0.42370950  0.11262712  1
  O  O191  1  0.06259823  0.97439891  0.09116537  1
  O  O192  1  0.76336795  0.19268371  0.06513054  1
  O  O193  1  0.92190992  0.39912320  0.06951117  1
  O  O194  1  0.07629839  0.58027857  0.09179079  1
  O  O195  1  0.58843093  0.94297797  0.04081226  1
  O  O196  1  0.87456331  0.67896290  0.10138209  1
  O  O197  1  0.80722696  0.85953291  0.03788744  1
  O  O198  1  0.99841896  0.22930093  0.07583124  1
  O  O199  1  0.71419710  0.34726197  0.03652219  1
  O  O200  1  0.29238980  0.74693856  0.11100544  1
  O  O201  1  0.44063991  0.75255151  0.01716208  1
  O  O202  1  0.42240708  0.35403234  0.03650944  1
  O  O203  1  0.26269709  0.23369800  0.10857149  1
  O  O204  1  0.82116516  0.02866143  0.03714654  1
  O  O205  1  0.81744781  0.51387455  0.10428400  1
  O  O206  1  0.78455674  0.97444575  0.09688635  1
  O  O207  1  0.67972588  0.58001622  0.04186580  1
  O  O208  1  0.94057203  0.29851579  0.01727988  1
  O  O209  1  0.79259849  0.30417749  0.11104482  1
  O  O210  1  0.17966856  0.47078472  0.04201237  1
  O  O211  1  0.28439766  0.07669916  0.09687975  1
  O  O212  1  0.31712058  0.53730685  0.10423589  1
  O  O213  1  0.32042830  0.02241733  0.03709904  1
  O  O214  1  0.76320767  0.81728343  0.10836374  1
  O  O215  1  0.92236642  0.69606012  0.03654849  1
  O  O216  1  0.57638730  0.47087314  0.09178515  1
  O  O217  1  0.08775916  0.10833465  0.04098513  1
  O  O218  1  0.37480927  0.37228540  0.10136628  1
  O  O219  1  0.30686881  0.19144921  0.03800169  1
  O  O220  1  0.49903174  0.82199193  0.07574013  1
  O  O221  1  0.21471950  0.70380740  0.03650987  1
  O  O222  1  0.56203941  0.07600692  0.09104211  1
  O  O223  1  0.61879111  0.62742906  0.11254330  1
  O  O224  1  0.18350122  0.32276175  0.05295741  1
  O  O225  1  0.51538671  0.24391116  0.08212061  1
  O  O226  1  0.42222043  0.65195517  0.06947127  1
  O  O227  1  0.26464616  0.85853757  0.06509819  1
  O  O228  1  0.67217497  0.32208967  0.21105757  1
  O  O229  1  0.35625969  0.22531582  0.17689355  1
  O  O230  1  0.20151505  0.62466153  0.15205101  1
  O  O231  1  0.81117248  0.92501435  0.23676712  1
  O  O232  1  0.73558578  0.48074972  0.22308345  1
  O  O233  1  0.28315067  0.07064397  0.16354727  1
  O  O234  1  0.42330871  0.67744543  0.18978004  1
  O  O235  1  0.59777233  0.87826519  0.19585123  1
  O  O236  1  0.76972978  0.08540909  0.21981317  1
  O  O237  1  0.24863338  0.46332339  0.16797709  1
  O  O238  1  0.56118078  0.18582404  0.22342949  1
  O  O239  1  0.46101133  0.36209729  0.16707959  1
  O  O240  1  0.66550988  0.71608645  0.20399054  1
  O  O241  1  0.35471539  0.83811567  0.18538182  1
  O  O242  1  0.05408999  0.11673521  0.12623261  1
  O  O243  1  0.28042469  0.93398552  0.13216502  1
  O  O244  1  0.97716778  0.26350525  0.24293016  1
  O  O245  1  0.05484832  0.28261925  0.14402968  1
  O  O246  1  0.10354761  0.81375797  0.15276078  1
  O  O247  1  0.92839164  0.73271513  0.23522628  1
  O  O248  1  0.50410735  0.53340167  0.15736809  1
  O  O249  1  0.51347572  0.01642868  0.22884180  1
  O  O250  1  0.46295122  0.48052572  0.22043359  1
  O  O251  1  0.55641994  0.07173647  0.16416464  1
  O  O252  1  0.55501744  0.76868503  0.14408144  1
  O  O253  1  0.47699402  0.78768877  0.24296346  1
  O  O254  1  0.05617965  0.97964313  0.16425432  1
  O  O255  1  0.96296276  0.57100219  0.22045132  1
  O  O256  1  0.01367705  0.03522696  0.22890317  1
  O  O257  1  0.00393564  0.51781350  0.15749177  1
  O  O258  1  0.42845396  0.31869904  0.23528567  1
  O  O259  1  0.60448731  0.23782064  0.15290914  1
  O  O260  1  0.55434785  0.93435832  0.12626021  1
  O  O261  1  0.78040395  0.11729041  0.13192278  1
  O  O262  1  0.26967123  0.96600392  0.21979883  1
  O  O263  1  0.74880745  0.58798603  0.16800202  1
  O  O264  1  0.06129367  0.86553125  0.22328607  1
  O  O265  1  0.96091929  0.68915009  0.16699721  1
  O  O266  1  0.16544278  0.33549604  0.20386854  1
  O  O267  1  0.85483105  0.21306044  0.18534565  1
  O  O268  1  0.78306287  0.98073518  0.16349963  1
  O  O269  1  0.23550494  0.57082113  0.22316420  1
  O  O270  1  0.31097736  0.12658448  0.23683871  1
  O  O271  1  0.70159581  0.42642733  0.15205512  1
  O  O272  1  0.85552530  0.82586744  0.17695763  1
  O  O273  1  0.17208023  0.72928509  0.21089859  1
  O  O274  1  0.09819956  0.17308453  0.19581997  1
  O  O275  1  0.92270366  0.37346105  0.18981284  1
  O  O276  1  0.35088836  0.82659034  0.33632587  1
  O  O277  1  0.03536972  0.72995675  0.30171926  1
  O  O278  1  0.89515356  0.12705069  0.27621606  1
  O  O279  1  0.50710405  0.42701655  0.36077152  1
  O  O280  1  0.42626425  0.98098420  0.34927242  1
  O  O281  1  0.97182955  0.57072641  0.29003347  1
  O  O282  1  0.10927635  0.17306304  0.31709387  1
  O  O283  1  0.28617721  0.37281321  0.32306266  1
  O  O284  1  0.45833545  0.58808964  0.34495462  1
  O  O285  1  0.94392483  0.96698140  0.29203712  1
  O  O286  1  0.24740597  0.68891218  0.34527531  1
  O  O287  1  0.14647727  0.86635604  0.28962118  1
  O  O288  1  0.35299117  0.21221945  0.32725446  1
  O  O289  1  0.04250147  0.33536407  0.30936224  1
  O  O290  1  0.73833750  0.61609208  0.25469729  1
  O  O291  1  0.97068866  0.43593290  0.25803691  1
  O  O292  1  0.65335780  0.76932591  0.36873665  1
  O  O293  1  0.73154585  0.78831151  0.26990360  1
  O  O294  1  0.77959431  0.31869859  0.27771580  1
  O  O295  1  0.60319705  0.23819746  0.36002252  1
  O  O296  1  0.19684256  0.03535259  0.28474970  1
  O  O297  1  0.20422070  0.51725693  0.35537671  1
  O  O298  1  0.15329102  0.97972162  0.34899926  1
  O  O299  1  0.24457551  0.57037693  0.29258643  1
  O  O300  1  0.23108335  0.26346004  0.26989467  1
  O  O301  1  0.15363678  0.28258346  0.36883696  1
  O  O302  1  0.74451034  0.48097960  0.29251587  1
  O  O303  1  0.65331453  0.07195098  0.34901618  1
  O  O304  1  0.70427974  0.53429958  0.35534595  1
  O  O305  1  0.69686644  0.01618753  0.28477025  1
  O  O306  1  0.10330794  0.81340489  0.35994739  1
  O  O307  1  0.27950157  0.73245215  0.27770122  1
  O  O308  1  0.23816665  0.43538672  0.25469356  1
  O  O309  1  0.47051059  0.61547576  0.25812865  1
  O  O310  1  0.95830888  0.46336322  0.34502638  1
  O  O311  1  0.44420559  0.08437058  0.29198817  1
  O  O312  1  0.74765784  0.36270192  0.34532605  1
  O  O313  1  0.64624637  0.18520350  0.28975396  1
  O  O314  1  0.85308022  0.83947894  0.32725293  1
  O  O315  1  0.54270485  0.71604752  0.30943304  1
  O  O316  1  0.47225525  0.48066438  0.28994088  1
  O  O317  1  0.92626941  0.07044939  0.34926690  1
  O  O318  1  0.00712834  0.62448382  0.36076164  1
  O  O319  1  0.39524432  0.92443376  0.27607244  1
  O  O320  1  0.53545569  0.32166621  0.30179577  1
  O  O321  1  0.85072625  0.22497483  0.33642090  1
  O  O322  1  0.78650861  0.67888040  0.32304606  1
  O  O323  1  0.60944780  0.87868718  0.31696007  1
  O  O324  1  0.02502049  0.32319429  0.46014569  1
  O  O325  1  0.69272091  0.24457950  0.43088068  1
  O  O326  1  0.58994387  0.62823939  0.40009324  1
  O  O327  1  0.64658744  0.07663952  0.42194469  1
  O  O328  1  0.78670207  0.65233550  0.44305420  1
  O  O329  1  0.94440096  0.85877258  0.44748986  1
  O  O330  1  0.12010505  0.10859409  0.47199773  1
  O  O331  1  0.63171040  0.47115455  0.42091248  1
  O  O332  1  0.90117265  0.19183615  0.47496710  1
  O  O333  1  0.83351217  0.37242513  0.41131100  1
  O  O334  1  0.99526452  0.70429608  0.47562953  1
  O  O335  1  0.70969367  0.82209331  0.43684119  1
  O  O336  1  0.42909466  0.11739026  0.38066054  1
  O  O337  1  0.65523517  0.93476456  0.38654669  1
  O  O338  1  0.26840639  0.29858366  0.49563537  1
  O  O339  1  0.41553613  0.30428950  0.40165959  1
  O  O340  1  0.44591037  0.81767486  0.40437409  1
  O  O341  1  0.28671136  0.69658999  0.47598658  1
  O  O342  1  0.89119305  0.53689846  0.40866166  1
  O  O343  1  0.88755682  0.02264611  0.47583226  1
  O  O344  1  0.02967889  0.47125276  0.47089889  1
  O  O345  1  0.92452378  0.07682726  0.41602730  1
  O  O346  1  0.91579123  0.74728560  0.40142259  1
  O  O347  1  0.76849794  0.75253162  0.49528531  1
  O  O348  1  0.42462489  0.97450059  0.41605013  1
  O  O349  1  0.52982154  0.58054437  0.47067129  1
  O  O350  1  0.38852127  0.02888823  0.47579460  1
  O  O351  1  0.39131297  0.51449348  0.40867328  1
  O  O352  1  0.78600113  0.35502290  0.47619688  1
  O  O353  1  0.94615839  0.23396317  0.40456157  1
  O  O354  1  0.92903665  0.93415589  0.38073889  1
  O  O355  1  0.15540997  0.11669520  0.38666420  1
  O  O356  1  0.62106389  0.94288040  0.47191977  1
  O  O357  1  0.13201091  0.58023976  0.42089387  1
  O  O358  1  0.40205347  0.85974860  0.47491139  1
  O  O359  1  0.33362901  0.67922834  0.41114267  1
  O  O360  1  0.49456930  0.34740477  0.47604965  1
  O  O361  1  0.20965780  0.22943451  0.43706808  1
  O  O362  1  0.14645214  0.97503931  0.42207253  1
  O  O363  1  0.08984766  0.42336127  0.40025826  1
  O  O364  1  0.19317929  0.80727176  0.43084248  1
  O  O365  1  0.52533640  0.72853259  0.45981347  1
  O  O366  1  0.44435008  0.19277201  0.44769965  1
  O  O367  1  0.28646325  0.39922824  0.44339249  1
