# generated using pymatgen
data_Li7La3Zr2O12
_symmetry_space_group_name_H-M   'P 1'
_cell_length_a   13.20454200
_cell_length_b   21.22125973
_cell_length_c   28.63594200
_cell_angle_alpha   90.00000000
_cell_angle_beta   90.00000000
_cell_angle_gamma   108.12648040
_symmetry_Int_Tables_number   1
_chemical_formula_structural   Li7La3Zr2O12
_chemical_formula_sum   'Li112 La48 Zr32 O192'
_cell_volume   7626.04968023
_cell_formula_units_Z   16
loop_
 _symmetry_equiv_pos_site_id
 _symmetry_equiv_pos_as_xyz
  1  'x, y, z'
loop_
 _atom_site_type_symbol
 _atom_site_label
 _atom_site_symmetry_multiplicity
 _atom_site_fract_x
 _atom_site_fract_y
 _atom_site_fract_z
 _atom_site_occupancy
  Li  Li0  1  0.64978365  0.11563542  0.08455519  1
  Li  Li1  1  0.45875957  0.47471130  0.08355963  1
  Li  Li2  1  0.74398064  0.54576085  0.04110038  1
  Li  Li3  1  0.32792223  0.81488516  0.08354185  1
  Li  Li4  1  0.72051891  0.27992009  0.10160990  1
  Li  Li5  1  0.57224594  0.62098939  0.08536173  1
  Li  Li6  1  0.22515403  0.09424564  0.09522404  1
  Li  Li7  1  0.61868149  0.53200310  0.11381150  1
  Li  Li8  1  0.19204729  0.70400588  0.10849550  1
  Li  Li9  1  0.52019135  0.20751486  0.11571714  1
  Li  Li10  1  0.69578252  0.04399946  0.13582978  1
  Li  Li11  1  0.08080916  0.98147155  0.11982167  1
  Li  Li12  1  0.94913395  0.33756807  0.08248391  1
  Li  Li13  1  0.75483622  0.69211992  0.07823773  1
  Li  Li14  1  0.91285010  0.86268134  0.08768652  1
  Li  Li15  1  0.34283971  0.18609367  0.15806864  1
  Li  Li16  1  0.79392900  0.58814577  0.12083656  1
  Li  Li17  1  0.39834895  0.47801584  0.17185054  1
  Li  Li18  1  0.05497791  0.29229394  0.16607519  1
  Li  Li19  1  0.23704284  0.79988354  0.16653622  1
  Li  Li20  1  0.90959837  0.96584309  0.17123315  1
  Li  Li21  1  0.85882424  0.37906994  0.16094798  1
  Li  Li22  1  0.75214080  0.75530853  0.15017228  1
  Li  Li23  1  0.21260460  0.23214126  0.18722909  1
  Li  Li24  1  0.27264552  0.69127803  0.19577618  1
  Li  Li25  1  0.03637723  0.90334731  0.18541758  1
  Li  Li26  1  0.77999115  0.03164058  0.19856041  1
  Li  Li27  1  0.23501812  0.35765935  0.20373186  1
  Li  Li28  1  0.35471035  0.56150800  0.22968686  1
  Li  Li29  1  0.19480974  0.88567625  0.23031313  1
  Li  Li30  1  0.59142603  0.00739896  0.24074526  1
  Li  Li31  1  0.03732481  0.20833175  0.23842904  1
  Li  Li32  1  0.42877614  0.68220611  0.24758095  1
  Li  Li33  1  0.42596518  0.17535856  0.23768887  1
  Li  Li34  1  0.86368358  0.47556455  0.21311293  1
  Li  Li35  1  0.39177994  0.94501583  0.25471045  1
  Li  Li36  1  0.88682890  0.10891451  0.25896705  1
  Li  Li37  1  0.21772262  0.61365239  0.26391448  1
  Li  Li38  1  0.38564448  0.44571781  0.25786862  1
  Li  Li39  1  0.77089687  0.39059541  0.27007498  1
  Li  Li40  1  0.62546977  0.73454376  0.26655137  1
  Li  Li41  1  0.46781571  0.06953742  0.27324074  1
  Li  Li42  1  0.54928497  0.24575731  0.30407080  1
  Li  Li43  1  0.03389107  0.58516764  0.30205775  1
  Li  Li44  1  0.53093496  0.91804016  0.31171889  1
  Li  Li45  1  0.11683709  0.88217020  0.30994308  1
  Li  Li46  1  0.77599380  0.71255815  0.31720876  1
  Li  Li47  1  0.94442900  0.21440040  0.31520158  1
  Li  Li48  1  0.60553234  0.37909264  0.31698066  1
  Li  Li49  1  0.57336731  0.80982518  0.33174676  1
  Li  Li50  1  0.40360826  0.14561442  0.33506979  1
  Li  Li51  1  0.90684292  0.65334748  0.33257734  1
  Li  Li52  1  0.97888770  0.09638913  0.33736693  1
  Li  Li53  1  0.74238758  0.31221724  0.33537498  1
  Li  Li54  1  0.47236365  0.43906741  0.34257370  1
  Li  Li55  1  0.97048598  0.78851341  0.34512156  1
  Li  Li56  1  0.04844208  0.94077277  0.37542973  1
  Li  Li57  1  0.89780912  0.28958190  0.37644109  1
  Li  Li58  1  0.30128758  0.41780112  0.38647924  1
  Li  Li59  1  0.73760908  0.61762520  0.38856278  1
  Li  Li60  1  0.12393121  0.07648358  0.38808312  1
  Li  Li61  1  0.12655142  0.58269411  0.38316635  1
  Li  Li62  1  0.62467534  0.91655024  0.39083073  1
  Li  Li63  1  0.08724250  0.34538422  0.40247766  1
  Li  Li64  1  0.58633659  0.51301506  0.40617511  1
  Li  Li65  1  0.92591495  0.01398013  0.40563738  1
  Li  Li66  1  0.10286318  0.84740620  0.40661339  1
  Li  Li67  1  0.46530550  0.79421280  0.41516590  1
  Li  Li68  1  0.31697738  0.14391840  0.41765760  1
  Li  Li69  1  0.16378378  0.46666009  0.42027753  1
  Li  Li70  1  0.26908166  0.67001108  0.44582263  1
  Li  Li71  1  0.75478077  0.99488747  0.45325465  1
  Li  Li72  1  0.24324329  0.33886357  0.45154789  1
  Li  Li73  1  0.80755706  0.28317408  0.45884359  1
  Li  Li74  1  0.47116353  0.11349438  0.46061388  1
  Li  Li75  1  0.65088397  0.62726925  0.46952338  1
  Li  Li76  1  0.29335477  0.79350846  0.46198922  1
  Li  Li77  1  0.25131339  0.25068311  0.50660587  1
  Li  Li78  1  0.11990560  0.55467816  0.47136504  1
  Li  Li79  1  0.60953970  0.04753715  0.47206707  1
  Li  Li80  1  0.69333389  0.52079209  0.48117862  1
  Li  Li81  1  0.44644290  0.71778405  0.48446563  1
  Li  Li82  1  0.16040176  0.84507022  0.48982896  1
  Li  Li83  1  0.65960013  0.16779666  0.49028662  1
  Li  Li84  1  0.74200054  0.35338932  0.52037346  1
  Li  Li85  1  0.61223125  0.70248692  0.52324547  1
  Li  Li86  1  0.92217226  0.80498967  0.55177103  1
  Li  Li87  1  0.44001831  0.02381191  0.53062311  1
  Li  Li88  1  0.84497953  0.49142673  0.53245007  1
  Li  Li89  1  0.86013521  0.96940015  0.56899100  1
  Li  Li90  1  0.34501912  0.34188222  0.55714459  1
  Li  Li91  1  0.70043924  0.67907965  0.61849069  1
  Li  Li92  1  0.28602176  0.92395257  0.54731525  1
  Li  Li93  1  0.64522211  0.43276802  0.55293077  1
  Li  Li94  1  0.78396208  0.25153416  0.54830420  1
  Li  Li95  1  0.06889613  0.14006432  0.60000126  1
  Li  Li96  1  0.03603128  0.54116240  0.56251693  1
  Li  Li97  1  0.90347881  0.85971838  0.63475978  1
  Li  Li98  1  0.81343603  0.10890118  0.63494713  1
  Li  Li99  1  0.47761158  0.36921107  0.64172590  1
  Li  Li100  1  0.94782078  0.72501961  0.60918813  1
  Li  Li101  1  0.51425991  0.68731720  0.59177338  1
  Li  Li102  1  0.19374641  0.51252255  0.61218948  1
  Li  Li103  1  0.35091642  0.02909617  0.61049612  1
  Li  Li104  1  0.95090651  0.19829807  0.60711519  1
  Li  Li105  1  0.98191323  0.61256437  0.60904517  1
  Li  Li106  1  0.91908821  0.03505197  0.63847334  1
  Li  Li107  1  0.33287449  0.44034321  0.60792034  1
  Li  Li108  1  0.40757322  0.93317364  0.61733333  1
  Li  Li109  1  0.05648475  0.18102215  0.68003388  1
  Li  Li110  1  0.84445591  0.25700704  0.63666617  1
  Li  Li111  1  0.41385376  0.60118742  0.63542275  1
  La  La112  1  0.89963097  0.05163077  0.07857394  1
  La  La113  1  0.12335667  0.22300246  0.09197063  1
  La  La114  1  0.97675042  0.49458976  0.08969270  1
  La  La115  1  0.41693224  0.33247703  0.12564006  1
  La  La116  1  0.29428003  0.59151747  0.12827880  1
  La  La117  1  0.99185064  0.76304215  0.13866551  1
  La  La118  1  0.49915343  0.75432022  0.14832272  1
  La  La119  1  0.46851854  0.93321681  0.14661448  1
  La  La120  1  0.84141542  0.18742247  0.15437636  1
  La  La121  1  0.27791743  0.03558673  0.19291345  1
  La  La122  1  0.63922388  0.28397084  0.20049737  1
  La  La123  1  0.10307026  0.46776943  0.22223102  1
  La  La124  1  0.60960801  0.46430908  0.22014350  1
  La  La125  1  0.82051650  0.63412259  0.22871277  1
  La  La126  1  0.69373245  0.88219800  0.23774648  1
  La  La127  1  0.11804253  0.73768298  0.26779152  1
  La  La128  1  0.99729032  0.98369529  0.27172378  1
  La  La129  1  0.70685483  0.16411487  0.28683605  1
  La  La130  1  0.20816562  0.16152247  0.28806390  1
  La  La131  1  0.16777988  0.33662200  0.30426495  1
  La  La132  1  0.54655889  0.58800018  0.30818860  1
  La  La133  1  0.96816722  0.43890365  0.34252380  1
  La  La134  1  0.34814753  0.69120193  0.34333246  1
  La  La135  1  0.81231766  0.86505213  0.36037138  1
  La  La136  1  0.31272869  0.86512814  0.35840574  1
  La  La137  1  0.51960338  0.03988676  0.37534095  1
  La  La138  1  0.39382990  0.29056738  0.37907941  1
  La  La139  1  0.82335824  0.14142113  0.41238314  1
  La  La140  1  0.69252868  0.39357848  0.41771424  1
  La  La141  1  0.40649419  0.56727414  0.43419524  1
  La  La142  1  0.91116267  0.56691888  0.43098330  1
  La  La143  1  0.87612082  0.74491713  0.45026951  1
  La  La144  1  0.24585333  0.99281515  0.45025635  1
  La  La145  1  0.68531333  0.84665759  0.48282966  1
  La  La146  1  0.05015930  0.09529641  0.49079311  1
  La  La147  1  0.50128676  0.26350944  0.50037161  1
  La  La148  1  0.01036848  0.26551116  0.50007126  1
  La  La149  1  0.21817616  0.44279335  0.52214581  1
  La  La150  1  0.09591046  0.69532900  0.51929403  1
  La  La151  1  0.53415091  0.55394725  0.56170076  1
  La  La152  1  0.40239797  0.80198691  0.56439639  1
  La  La153  1  0.09012993  0.96830259  0.57931394  1
  La  La154  1  0.61766252  0.97498924  0.56903762  1
  La  La155  1  0.56568934  0.13957678  0.59134889  1
  La  La156  1  0.94405087  0.39724587  0.59578044  1
  La  La157  1  0.34041929  0.22676060  0.63204088  1
  La  La158  1  0.77691299  0.50872524  0.62823253  1
  La  La159  1  0.21953710  0.68084306  0.64541366  1
  Zr  Zr160  1  0.70139234  0.40813569  0.10907742  1
  Zr  Zr161  1  0.21509387  0.90680730  0.10867231  1
  Zr  Zr162  1  0.69910983  0.89270378  0.11604094  1
  Zr  Zr163  1  0.20523734  0.40550227  0.10662520  1
  Zr  Zr164  1  0.55607455  0.10730609  0.17349633  1
  Zr  Zr165  1  0.55958676  0.61121563  0.18133069  1
  Zr  Zr166  1  0.05197960  0.61236864  0.17647830  1
  Zr  Zr167  1  0.05997332  0.10062194  0.17930178  1
  Zr  Zr168  1  0.40532189  0.81348024  0.24997233  1
  Zr  Zr169  1  0.90822226  0.31171509  0.24878628  1
  Zr  Zr170  1  0.40542089  0.31238193  0.25103081  1
  Zr  Zr171  1  0.90309410  0.80973670  0.24949939  1
  Zr  Zr172  1  0.25956238  0.51341446  0.32586991  1
  Zr  Zr173  1  0.26054281  0.01411004  0.32207032  1
  Zr  Zr174  1  0.75650477  0.01384707  0.32419013  1
  Zr  Zr175  1  0.76069577  0.51440465  0.32461413  1
  Zr  Zr176  1  0.11258705  0.21351725  0.39538485  1
  Zr  Zr177  1  0.60924724  0.71575186  0.39721980  1
  Zr  Zr178  1  0.11053827  0.71468581  0.39422833  1
  Zr  Zr179  1  0.60864454  0.21632129  0.39615933  1
  Zr  Zr180  1  0.96369985  0.91883686  0.47020283  1
  Zr  Zr181  1  0.95770178  0.41635501  0.46903812  1
  Zr  Zr182  1  0.45948004  0.41871480  0.47466023  1
  Zr  Zr183  1  0.45473980  0.91677527  0.46791813  1
  Zr  Zr184  1  0.81983484  0.62735841  0.54168022  1
  Zr  Zr185  1  0.30398066  0.11605571  0.54274440  1
  Zr  Zr186  1  0.81435610  0.11907159  0.53874260  1
  Zr  Zr187  1  0.31154707  0.61645495  0.54791241  1
  Zr  Zr188  1  0.66410460  0.33413705  0.61686579  1
  Zr  Zr189  1  0.66232244  0.83016187  0.60432888  1
  Zr  Zr190  1  0.16456993  0.82290886  0.60835375  1
  Zr  Zr191  1  0.15925990  0.31876069  0.61165566  1
  O  O192  1  0.69448198  0.60157091  0.07032239  1
  O  O193  1  0.33516177  0.40755125  0.07383455  1
  O  O194  1  0.78542683  0.10502782  0.08882203  1
  O  O195  1  0.82794630  0.37047860  0.09468664  1
  O  O196  1  0.35751263  0.90811118  0.08384196  1
  O  O197  1  0.85473528  0.77027984  0.09615626  1
  O  O198  1  0.97628397  0.25857594  0.10105001  1
  O  O199  1  0.79997597  0.49598970  0.07947207  1
  O  O200  1  0.29757047  0.22841596  0.10533186  1
  O  O201  1  0.54873006  0.85660951  0.09825910  1
  O  O202  1  0.17921254  0.80061122  0.10441252  1
  O  O203  1  0.08101056  0.10452453  0.09901037  1
  O  O204  1  0.33575220  0.69895688  0.10955862  1
  O  O205  1  0.22528854  0.00776275  0.10965712  1
  O  O206  1  0.11129430  0.59650563  0.10763124  1
  O  O207  1  0.84671411  0.93706704  0.08621283  1
  O  O208  1  0.59533516  0.30938443  0.11191133  1
  O  O209  1  0.47274980  0.55095854  0.12252615  1
  O  O210  1  0.56013953  0.04356525  0.12076683  1
  O  O211  1  0.56497051  0.43679393  0.10990274  1
  O  O212  1  0.04762406  0.88706741  0.11894162  1
  O  O213  1  0.61322680  0.68654509  0.13349987  1
  O  O214  1  0.07384861  0.41849191  0.07805503  1
  O  O215  1  0.65398483  0.18983216  0.12910265  1
  O  O216  1  0.19808489  0.32246052  0.14097131  1
  O  O217  1  0.42297017  0.12929226  0.15381720  1
  O  O218  1  0.69415381  0.82629491  0.16226017  1
  O  O219  1  0.92137065  0.63507927  0.15325534  1
  O  O220  1  0.90023602  0.05726473  0.15786059  1
  O  O221  1  0.24565025  0.47042343  0.15789254  1
  O  O222  1  0.68298459  0.95770256  0.16195243  1
  O  O223  1  0.05858493  0.19908071  0.17089761  1
  O  O224  1  0.68039316  0.56523277  0.17395781  1
  O  O225  1  0.27172647  0.91826512  0.17343083  1
  O  O226  1  0.97811873  0.49981570  0.16869758  1
  O  O227  1  0.38171397  0.81275753  0.17831660  1
  O  O228  1  0.73309755  0.40969138  0.17709516  1
  O  O229  1  0.14423582  0.70963697  0.17929725  1
  O  O230  1  0.41984413  0.64147042  0.18842392  1
  O  O231  1  0.83183553  0.29242592  0.18224558  1
  O  O232  1  0.06599450  0.00428924  0.18426662  1
  O  O233  1  0.43576684  0.26133951  0.19203956  1
  O  O234  1  0.84731903  0.74169624  0.19775515  1
  O  O235  1  0.19363444  0.58582912  0.19987049  1
  O  O236  1  0.22114669  0.13791802  0.19519880  1
  O  O237  1  0.40387959  0.38955522  0.20165981  1
  O  O238  1  0.70770563  0.09890861  0.19804372  1
  O  O239  1  0.89426241  0.89692774  0.21706295  1
  O  O240  1  0.46190289  0.02586971  0.21251912  1
  O  O241  1  0.05595389  0.82285620  0.22002845  1
  O  O242  1  0.47653152  0.52733212  0.22686311  1
  O  O243  1  0.53139023  0.77557495  0.23584254  1
  O  O244  1  0.06649027  0.34332890  0.22301783  1
  O  O245  1  0.57212792  0.17562309  0.23339775  1
  O  O246  1  0.63461789  0.65199047  0.24272479  1
  O  O247  1  0.51500398  0.90995751  0.24455449  1
  O  O248  1  0.00633433  0.62469423  0.24463226  1
  O  O249  1  0.23690038  0.27574328  0.24449457  1
  O  O250  1  0.89373827  0.20863907  0.24817701  1
  O  O251  1  0.78126388  0.51154992  0.25275077  1
  O  O252  1  0.02751783  0.10747249  0.24880137  1
  O  O253  1  0.92033748  0.41335881  0.25252019  1
  O  O254  1  0.80309257  0.00184314  0.25598111  1
  O  O255  1  0.57591116  0.35148868  0.25430833  1
  O  O256  1  0.30068791  0.71340391  0.25978887  1
  O  O257  1  0.18065419  0.96157630  0.26400387  1
  O  O258  1  0.24885913  0.44994927  0.26716810  1
  O  O259  1  0.27375718  0.84449380  0.26960753  1
  O  O260  1  0.74599852  0.28936130  0.27178578  1
  O  O261  1  0.33748412  0.09412775  0.27666054  1
  O  O262  1  0.75537908  0.80373043  0.28264324  1
  O  O263  1  0.35366214  0.59825749  0.28962483  1
  O  O264  1  0.92249774  0.72969105  0.29015867  1
  O  O265  1  0.11572621  0.52349686  0.29769762  1
  O  O266  1  0.40047657  0.23288226  0.29580839  1
  O  O267  1  0.62371536  0.04458822  0.30214105  1
  O  O268  1  0.59612918  0.48117226  0.30657394  1
  O  O269  1  0.96970616  0.87502925  0.31009143  1
  O  O270  1  0.37927057  0.36442955  0.30966628  1
  O  O271  1  0.75520894  0.61202965  0.31984415  1
  O  O272  1  0.39291616  0.97797779  0.31685701  1
  O  O273  1  0.97094291  0.32140627  0.31745338  1
  O  O274  1  0.67124099  0.91102382  0.32405984  1
  O  O275  1  0.08584798  0.21602841  0.32102167  1
  O  O276  1  0.43368771  0.81315403  0.32404261  1
  O  O277  1  0.84635847  0.11731794  0.32513982  1
  O  O278  1  0.13124231  0.05428136  0.32508031  1
  O  O279  1  0.54673419  0.70450018  0.32837166  1
  O  O280  1  0.76351969  0.41402863  0.33399048  1
  O  O281  1  0.13824908  0.66220797  0.33595168  1
  O  O282  1  0.55047390  0.15682305  0.33682028  1
  O  O283  1  0.89609839  0.99035520  0.34254089  1
  O  O284  1  0.92201588  0.54370898  0.34582410  1
  O  O285  1  0.11875687  0.79500251  0.34956674  1
  O  O286  1  0.39939433  0.50304423  0.35510238  1
  O  O287  1  0.59318806  0.30055678  0.35935034  1
  O  O288  1  0.16080388  0.42758427  0.36091676  1
  O  O289  1  0.75974823  0.22661784  0.36710335  1
  O  O290  1  0.18817147  0.93409591  0.36790060  1
  O  O291  1  0.24412433  0.18459444  0.37468339  1
  O  O292  1  0.77163922  0.74428640  0.37828456  1
  O  O293  1  0.26461766  0.57641757  0.38366723  1
  O  O294  1  0.33973832  0.06708805  0.38201001  1
  O  O295  1  0.21656679  0.31466403  0.38736372  1
  O  O296  1  0.70721182  0.02607375  0.39288103  1
  O  O297  1  0.94463733  0.67728138  0.39393860  1
  O  O298  1  0.58933283  0.61236611  0.39656146  1
  O  O299  1  0.48408693  0.92041409  0.39530677  1
  O  O300  1  0.72878571  0.51431554  0.39828939  1
  O  O301  1  0.62102949  0.81818242  0.39908078  1
  O  O302  1  0.50871427  0.40751135  0.40403528  1
  O  O303  1  0.28088992  0.75233102  0.40219573  1
  O  O304  1  0.00968737  0.11655479  0.40216142  1
  O  O305  1  0.88228565  0.36454791  0.41001356  1
  O  O306  1  0.96448730  0.85504437  0.41022115  1
  O  O307  1  0.98111050  0.24797313  0.41249088  1
  O  O308  1  0.44442279  0.69009462  0.42012070  1
  O  O309  1  0.03762830  0.49546118  0.42330964  1
  O  O310  1  0.45673464  0.20807079  0.42473776  1
  O  O311  1  0.05975072  0.00008640  0.42925440  1
  O  O312  1  0.61732501  0.13086399  0.43122062  1
  O  O313  1  0.82001593  0.92727298  0.43701950  1
  O  O314  1  0.11010339  0.63626087  0.44188012  1
  O  O315  1  0.32031820  0.44281190  0.45037185  1
  O  O316  1  0.29114371  0.88548852  0.45010642  1
  O  O317  1  0.66563370  0.28127572  0.45365558  1
  O  O318  1  0.09027287  0.76780589  0.45434839  1
  O  O319  1  0.45092192  0.01593436  0.46222474  1
  O  O320  1  0.09317235  0.37954171  0.46394599  1
  O  O321  1  0.66787678  0.72846242  0.46474277  1
  O  O322  1  0.36981568  0.31746429  0.47142886  1
  O  O323  1  0.79082984  0.61860100  0.46744636  1
  O  O324  1  0.13395151  0.21653784  0.46717784  1
  O  O325  1  0.54704725  0.52207941  0.47308639  1
  O  O326  1  0.83144598  0.45728843  0.47168718  1
  O  O327  1  0.24764772  0.10430170  0.47473495  1
  O  O328  1  0.45437580  0.81793501  0.47933318  1
  O  O329  1  0.84791000  0.07676595  0.47805367  1
  O  O330  1  0.25491952  0.55376795  0.49148368  1
  O  O331  1  0.58969886  0.38824781  0.49617265  1
  O  O332  1  0.61906491  0.95170109  0.48398301  1
  O  O333  1  0.81393943  0.20093611  0.49257942  1
  O  O334  1  0.10642125  0.91498902  0.50039870  1
  O  O335  1  0.29299608  0.69951402  0.51296707  1
  O  O336  1  0.86103524  0.83429702  0.49995327  1
  O  O337  1  0.46429630  0.63478067  0.52124846  1
  O  O338  1  0.88405184  0.33661279  0.51546410  1
  O  O339  1  0.95593094  0.59055416  0.52835188  1
  O  O340  1  0.47552051  0.14706750  0.52209445  1
  O  O341  1  0.96928689  0.98712044  0.52222422  1
  O  O342  1  0.03918054  0.46516885  0.52937134  1
  O  O343  1  0.92992067  0.72014505  0.53336807  1
  O  O344  1  0.40350023  0.43384147  0.54176123  1
  O  O345  1  0.64546586  0.08826751  0.53151361  1
  O  O346  1  0.29664863  0.01847704  0.54170535  1
  O  O347  1  0.18577380  0.31765862  0.54306718  1
  O  O348  1  0.42797579  0.91831047  0.54188092  1
  O  O349  1  0.33963799  0.22599156  0.55167279  1
  O  O350  1  0.21228495  0.81224069  0.54423185  1
  O  O351  1  0.98000588  0.16503241  0.54644229  1
  O  O352  1  0.72115744  0.52522326  0.55088112  1
  O  O353  1  0.57316892  0.76897545  0.55721935  1
  O  O354  1  0.64709915  0.27217245  0.56062328  1
  O  O355  1  0.68454734  0.65013640  0.54703337  1
  O  O356  1  0.14928594  0.09241392  0.56664956  1
  O  O357  1  0.72993343  0.89922477  0.55930150  1
  O  O358  1  0.16804129  0.59808588  0.58800983  1
  O  O359  1  0.77514458  0.41038681  0.57427258  1
  O  O360  1  0.33677235  0.53755728  0.58963759  1
  O  O361  1  0.51614051  0.28592193  0.64478251  1
  O  O362  1  0.79326723  0.04215506  0.58666329  1
  O  O363  1  0.01502658  0.82929176  0.60663560  1
  O  O364  1  0.99360713  0.29410627  0.61072765  1
  O  O365  1  0.37228157  0.68062495  0.60834119  1
  O  O366  1  0.78456722  0.17937630  0.59752416  1
  O  O367  1  0.16638296  0.41822195  0.60937602  1
  O  O368  1  0.76095761  0.78794581  0.63158143  1
  O  O369  1  0.37539135  0.12605251  0.61187474  1
  O  O370  1  0.08449890  0.70880320  0.61244693  1
  O  O371  1  0.49781077  0.02792946  0.60643203  1
  O  O372  1  0.84505405  0.62690569  0.61420422  1
  O  O373  1  0.24662566  0.92050256  0.61359313  1
  O  O374  1  0.54340213  0.87159680  0.61720126  1
  O  O375  1  0.94590873  0.50932302  0.61983531  1
  O  O376  1  0.16160079  0.22968553  0.64165363  1
  O  O377  1  0.61564255  0.42027085  0.62551132  1
  O  O378  1  0.94769832  0.95584195  0.62231899  1
  O  O379  1  0.28555453  0.78986761  0.63628514  1
  O  O380  1  0.32836511  0.34744733  0.62451636  1
  O  O381  1  0.55388514  0.61950979  0.62487571  1
  O  O382  1  0.79403785  0.32800389  0.64743208  1
  O  O383  1  0.95342911  0.12550809  0.64961070  1
