# generated using pymatgen
data_Li7La3Zr2O12
_symmetry_space_group_name_H-M   'P 1'
_cell_length_a   12.70453900
_cell_length_b   13.20454200
_cell_length_c   31.80681200
_cell_angle_alpha   90.00000000
_cell_angle_beta   90.00000000
_cell_angle_gamma   90.00000000
_symmetry_Int_Tables_number   1
_chemical_formula_structural   Li7La3Zr2O12
_chemical_formula_sum   'Li84 La36 Zr24 O144'
_cell_volume   5335.83504325
_cell_formula_units_Z   12
loop_
 _symmetry_equiv_pos_site_id
 _symmetry_equiv_pos_as_xyz
  1  'x, y, z'
loop_
 _atom_site_type_symbol
 _atom_site_label
 _atom_site_symmetry_multiplicity
 _atom_site_fract_x
 _atom_site_fract_y
 _atom_site_fract_z
 _atom_site_occupancy
  Li  Li0  1  0.91434797  0.91444276  0.09080216  1
  Li  Li1  1  0.57900776  0.06958902  0.08596085  1
  Li  Li2  1  0.08152660  0.43802399  0.07618368  1
  Li  Li3  1  0.29399138  0.60578024  0.05409649  1
  Li  Li4  1  0.48262438  0.62361749  0.07613442  1
  Li  Li5  1  0.93345561  0.34344675  0.11537179  1
  Li  Li6  1  0.09372832  0.83919207  0.09612431  1
  Li  Li7  1  0.42768706  0.16610874  0.11654837  1
  Li  Li8  1  0.70391758  0.90810901  0.12195650  1
  Li  Li9  1  0.80018797  0.06226700  0.12791305  1
  Li  Li10  1  0.05226126  0.62916611  0.08975610  1
  Li  Li11  1  0.23284266  0.52051513  0.11928638  1
  Li  Li12  1  0.86858078  0.23720790  0.16554697  1
  Li  Li13  1  0.63171280  0.72428771  0.14425436  1
  Li  Li14  1  0.37452857  0.27277044  0.16667920  1
  Li  Li15  1  0.12535243  0.75057532  0.16955629  1
  Li  Li16  1  0.32897229  0.10416754  0.19592612  1
  Li  Li17  1  0.20797781  0.91161356  0.19721814  1
  Li  Li18  1  0.81349587  0.41042781  0.19997545  1
  Li  Li19  1  0.70696269  0.59208948  0.20419863  1
  Li  Li20  1  0.44611129  0.35090547  0.24130472  1
  Li  Li21  1  0.05896180  0.66295659  0.23748485  1
  Li  Li22  1  0.95860859  0.17218407  0.23567725  1
  Li  Li23  1  0.57537778  0.82334850  0.21102097  1
  Li  Li24  1  0.40618674  0.91836923  0.23740228  1
  Li  Li25  1  0.14898223  0.07958967  0.23538734  1
  Li  Li26  1  0.62400608  0.44104375  0.23846166  1
  Li  Li27  1  0.88849828  0.56301250  0.24157007  1
  Li  Li28  1  0.34822669  0.43580787  0.30577824  1
  Li  Li29  1  0.14711183  0.57124115  0.30342994  1
  Li  Li30  1  0.61770006  0.92252818  0.29337864  1
  Li  Li31  1  0.89293954  0.07837620  0.29867396  1
  Li  Li32  1  0.06504980  0.17036134  0.30572899  1
  Li  Li33  1  0.44385900  0.83432805  0.30630698  1
  Li  Li34  1  0.55268977  0.33229118  0.30743669  1
  Li  Li35  1  0.94462678  0.66675421  0.30655918  1
  Li  Li36  1  0.18593368  0.41204951  0.34464497  1
  Li  Li37  1  0.30759291  0.59021613  0.34747519  1
  Li  Li38  1  0.69668249  0.08565868  0.33625795  1
  Li  Li39  1  0.80020530  0.91878842  0.33397442  1
  Li  Li40  1  0.37512434  0.74999662  0.37443716  1
  Li  Li41  1  0.12428748  0.25021502  0.37453455  1
  Li  Li42  1  0.87187613  0.75001387  0.37410183  1
  Li  Li43  1  0.62561986  0.25008577  0.37455574  1
  Li  Li44  1  0.80015757  0.58185148  0.41462615  1
  Li  Li45  1  0.69832703  0.41565612  0.41223668  1
  Li  Li46  1  0.30691198  0.90991585  0.40054416  1
  Li  Li47  1  0.18513923  0.08906325  0.40356748  1
  Li  Li48  1  0.94351393  0.83302473  0.44165726  1
  Li  Li49  1  0.55314205  0.16662077  0.44113824  1
  Li  Li50  1  0.44307555  0.66574726  0.44191823  1
  Li  Li51  1  0.06592809  0.33035387  0.44309603  1
  Li  Li52  1  0.89482222  0.42198939  0.44981105  1
  Li  Li53  1  0.61695322  0.57767204  0.45542111  1
  Li  Li54  1  0.14624238  0.92826352  0.44483596  1
  Li  Li55  1  0.34927811  0.06356760  0.44257625  1
  Li  Li56  1  0.88871817  0.93734364  0.50752432  1
  Li  Li57  1  0.62416064  0.05821599  0.50982435  1
  Li  Li58  1  0.14911050  0.42127673  0.51279286  1
  Li  Li59  1  0.40673448  0.58132226  0.51162125  1
  Li  Li60  1  0.57574092  0.67656430  0.53785245  1
  Li  Li61  1  0.95835102  0.32717791  0.51348491  1
  Li  Li62  1  0.05827857  0.83749947  0.51058520  1
  Li  Li63  1  0.44680260  0.14876739  0.50723050  1
  Li  Li64  1  0.70782165  0.90923465  0.54399658  1
  Li  Li65  1  0.81537534  0.09117648  0.54856003  1
  Li  Li66  1  0.20792738  0.58864478  0.55182995  1
  Li  Li67  1  0.32949295  0.39502639  0.55253999  1
  Li  Li68  1  0.86847756  0.26299607  0.58329875  1
  Li  Li69  1  0.63174312  0.77581180  0.60530042  1
  Li  Li70  1  0.37491179  0.22577714  0.58130849  1
  Li  Li71  1  0.12611035  0.74985722  0.57873219  1
  Li  Li72  1  0.23233076  0.97856350  0.62903019  1
  Li  Li73  1  0.05275389  0.87107935  0.65889713  1
  Li  Li74  1  0.80143857  0.43918882  0.62059468  1
  Li  Li75  1  0.70409300  0.59194645  0.62629675  1
  Li  Li76  1  0.42732327  0.33206508  0.63189467  1
  Li  Li77  1  0.09464112  0.66123800  0.65189811  1
  Li  Li78  1  0.93308312  0.15753642  0.63324322  1
  Li  Li79  1  0.48076269  0.87556805  0.67232904  1
  Li  Li80  1  0.29343578  0.89547266  0.69441761  1
  Li  Li81  1  0.08070284  0.06276858  0.67241000  1
  Li  Li82  1  0.57939919  0.43002061  0.66278594  1
  Li  Li83  1  0.91623165  0.58595574  0.65794413  1
  La  La84  1  0.99573180  0.14452289  0.06970481  1
  La  La85  1  0.47954285  0.37400304  0.05776983  1
  La  La86  1  0.25681771  0.00785344  0.11797078  1
  La  La87  1  0.74924778  0.50331383  0.11639607  1
  La  La88  1  0.88044144  0.74474624  0.17151317  1
  La  La89  1  0.36587359  0.74945666  0.14258257  1
  La  La90  1  0.62487041  0.25334710  0.16917912  1
  La  La91  1  0.13690985  0.26641977  0.16287265  1
  La  La92  1  0.75145029  0.01224643  0.21805043  1
  La  La93  1  0.24827304  0.51121892  0.21765680  1
  La  La94  1  0.50043197  0.12602697  0.26796475  1
  La  La95  1  0.00340943  0.38133321  0.27348876  1
  La  La96  1  0.49451900  0.62356280  0.27910781  1
  La  La97  1  0.00071764  0.87683030  0.26881362  1
  La  La98  1  0.74840973  0.49861630  0.32321193  1
  La  La99  1  0.24977312  0.00121204  0.31722010  1
  La  La100  1  0.37332370  0.24991407  0.37421247  1
  La  La101  1  0.87708642  0.25011469  0.37418440  1
  La  La102  1  0.12483640  0.74994282  0.37413983  1
  La  La103  1  0.62715015  0.74993554  0.37424352  1
  La  La104  1  0.25020277  0.49906340  0.43118800  1
  La  La105  1  0.74869733  0.00137921  0.42517855  1
  La  La106  1  0.00102129  0.62352736  0.47958913  1
  La  La107  1  0.49449713  0.87619835  0.46930891  1
  La  La108  1  0.00369474  0.11872490  0.47471340  1
  La  La109  1  0.50070599  0.37368512  0.48029102  1
  La  La110  1  0.24827059  0.98887445  0.53059332  1
  La  La111  1  0.75188354  0.48754590  0.53030764  1
  La  La112  1  0.88070633  0.75544034  0.57696851  1
  La  La113  1  0.36606759  0.75012888  0.60557676  1
  La  La114  1  0.62535352  0.24622671  0.57914786  1
  La  La115  1  0.13690976  0.23373908  0.58547705  1
  La  La116  1  0.74943881  0.99662975  0.63208554  1
  La  La117  1  0.25735905  0.49153811  0.63045046  1
  La  La118  1  0.48015560  0.12486518  0.69074029  1
  La  La119  1  0.99585297  0.35585679  0.67888069  1
  Zr  Zr120  1  0.82046722  0.75715017  0.05695321  1
  Zr  Zr121  1  0.72581655  0.26825450  0.06425678  1
  Zr  Zr122  1  0.99841736  0.99497266  0.16576323  1
  Zr  Zr123  1  0.50867518  0.99116653  0.16167178  1
  Zr  Zr124  1  0.49127672  0.49353222  0.16207260  1
  Zr  Zr125  1  0.00089688  0.50385092  0.16457487  1
  Zr  Zr126  1  0.75132022  0.25586765  0.27054922  1
  Zr  Zr127  1  0.74368830  0.73984693  0.26998399  1
  Zr  Zr128  1  0.25277262  0.25864034  0.27006934  1
  Zr  Zr129  1  0.25186747  0.75174609  0.27024550  1
  Zr  Zr130  1  0.50209607  0.49629112  0.37854260  1
  Zr  Zr131  1  0.99677965  0.50284087  0.37624595  1
  Zr  Zr132  1  0.99663776  0.99726543  0.37201147  1
  Zr  Zr133  1  0.50196955  0.00364727  0.36986313  1
  Zr  Zr134  1  0.25189458  0.74816773  0.47822508  1
  Zr  Zr135  1  0.25322332  0.24123175  0.47837329  1
  Zr  Zr136  1  0.74364943  0.76027092  0.47856880  1
  Zr  Zr137  1  0.75182409  0.24407374  0.47784991  1
  Zr  Zr138  1  0.00129611  0.99645841  0.58410225  1
  Zr  Zr139  1  0.49136705  0.00604540  0.58638881  1
  Zr  Zr140  1  0.50944153  0.50806914  0.58702326  1
  Zr  Zr141  1  0.99890214  0.50534811  0.58266426  1
  Zr  Zr142  1  0.72600927  0.23138922  0.68432474  1
  Zr  Zr143  1  0.82112268  0.74273789  0.69158905  1
  O  O144  1  0.77441790  0.89045333  0.06456561  1
  O  O145  1  0.83947740  0.18455844  0.03970563  1
  O  O146  1  0.16326846  0.55269094  0.07145693  1
  O  O147  1  0.42483374  0.51368786  0.04793605  1
  O  O148  1  0.96256376  0.77521351  0.07363549  1
  O  O149  1  0.58703613  0.20792694  0.07575473  1
  O  O150  1  0.37655189  0.71642434  0.07974011  1
  O  O151  1  0.06144053  0.28607554  0.09243037  1
  O  O152  1  0.44360014  0.02964871  0.10428348  1
  O  O153  1  0.05081318  0.98164740  0.09810441  1
  O  O154  1  0.66827244  0.40721980  0.05301128  1
  O  O155  1  0.93139287  0.48277268  0.10456297  1
  O  O156  1  0.20914756  0.84176145  0.13406394  1
  O  O157  1  0.28497764  0.18449722  0.13308259  1
  O  O158  1  0.76256779  0.69222325  0.10613645  1
  O  O159  1  0.77816047  0.30341051  0.12063714  1
  O  O160  1  0.54910652  0.84441924  0.15029921  1
  O  O161  1  0.93180185  0.12825742  0.13728872  1
  O  O162  1  0.02753542  0.65314751  0.15053221  1
  O  O163  1  0.47198427  0.35699875  0.13298749  1
  O  O164  1  0.84782476  0.92806906  0.14863381  1
  O  O165  1  0.65789526  0.04959580  0.14172192  1
  O  O166  1  0.15127833  0.44325368  0.15805164  1
  O  O167  1  0.34951503  0.56133486  0.15611983  1
  O  O168  1  0.35575213  0.96022218  0.18087560  1
  O  O169  1  0.14575623  0.05197640  0.17775036  1
  O  O170  1  0.65340943  0.43729942  0.17754878  1
  O  O171  1  0.84213197  0.55267990  0.18178394  1
  O  O172  1  0.47759047  0.15339379  0.18416413  1
  O  O173  1  0.02541634  0.85346327  0.19231720  1
  O  O174  1  0.95635153  0.35010970  0.17943342  1
  O  O175  1  0.57025397  0.59624892  0.12861276  1
  O  O176  1  0.77578272  0.19942006  0.20815910  1
  O  O177  1  0.70351557  0.74488658  0.20453751  1
  O  O178  1  0.30064465  0.32161547  0.21267988  1
  O  O179  1  0.20309209  0.69009620  0.21459664  1
  O  O180  1  0.94090620  0.03260633  0.22558922  1
  O  O181  1  0.56391734  0.96936563  0.22594694  1
  O  O182  1  0.04185956  0.52274255  0.22962705  1
  O  O183  1  0.46837091  0.49104269  0.22564016  1
  O  O184  1  0.10228993  0.22188257  0.24535958  1
  O  O185  1  0.40509126  0.77730210  0.25093493  1
  O  O186  1  0.59570411  0.29238104  0.24815655  1
  O  O187  1  0.90177790  0.71054815  0.24914498  1
  O  O188  1  0.30363692  0.11037597  0.25558931  1
  O  O189  1  0.19382443  0.89944047  0.25788079  1
  O  O190  1  0.80882271  0.40145067  0.25884707  1
  O  O191  1  0.68429738  0.58856918  0.26218843  1
  O  O192  1  0.19670932  0.40658014  0.28496801  1
  O  O193  1  0.30210392  0.59836239  0.28678861  1
  O  O194  1  0.69461080  0.10524779  0.27856368  1
  O  O195  1  0.79155240  0.89383648  0.27376940  1
  O  O196  1  0.40227263  0.29348896  0.29556380  1
  O  O197  1  0.09714327  0.71431061  0.29612008  1
  O  O198  1  0.90630480  0.21914414  0.29143308  1
  O  O199  1  0.59693616  0.77781705  0.29658220  1
  O  O200  1  0.94087364  0.52562519  0.31462356  1
  O  O201  1  0.55178178  0.47098063  0.31731185  1
  O  O202  1  0.04767963  0.02947522  0.30942232  1
  O  O203  1  0.44844059  0.97613132  0.30649360  1
  O  O204  1  0.71817147  0.30388681  0.33155779  1
  O  O205  1  0.78263682  0.69162889  0.33085065  1
  O  O206  1  0.21336458  0.19841671  0.33041601  1
  O  O207  1  0.28447658  0.81085851  0.33278379  1
  O  O208  1  0.03359959  0.35411051  0.35299488  1
  O  O209  1  0.46549193  0.64395982  0.35597140  1
  O  O210  1  0.53438881  0.15087865  0.34806099  1
  O  O211  1  0.95939148  0.85348419  0.34910844  1
  O  O212  1  0.34485072  0.44574431  0.36511135  1
  O  O213  1  0.15080701  0.55379197  0.36315576  1
  O  O214  1  0.65371328  0.94749441  0.35567883  1
  O  O215  1  0.84601845  0.05773554  0.35602022  1
  O  O216  1  0.84627840  0.44250430  0.39245197  1
  O  O217  1  0.65377495  0.55274321  0.39277411  1
  O  O218  1  0.15069507  0.94647267  0.38505354  1
  O  O219  1  0.34492347  0.05446484  0.38321831  1
  O  O220  1  0.95946153  0.64656590  0.39914755  1
  O  O221  1  0.53409124  0.34913505  0.40043363  1
  O  O222  1  0.46569574  0.85595990  0.39247587  1
  O  O223  1  0.03355731  0.14596658  0.39536088  1
  O  O224  1  0.28469688  0.68873199  0.41577425  1
  O  O225  1  0.21366235  0.30190753  0.41816657  1
  O  O226  1  0.78291772  0.80822954  0.41760192  1
  O  O227  1  0.71837933  0.19570386  0.41694990  1
  O  O228  1  0.44888489  0.52395292  0.44188090  1
  O  O229  1  0.04813738  0.47091430  0.43890512  1
  O  O230  1  0.55149678  0.02867039  0.43112753  1
  O  O231  1  0.94121804  0.97424579  0.43360268  1
  O  O232  1  0.59698757  0.72229825  0.45187250  1
  O  O233  1  0.90675866  0.28096447  0.45701082  1
  O  O234  1  0.09697020  0.78545559  0.45215878  1
  O  O235  1  0.40279551  0.20642194  0.45287884  1
  O  O236  1  0.79179570  0.60633185  0.47471259  1
  O  O237  1  0.69486067  0.39469072  0.46989003  1
  O  O238  1  0.30213004  0.90146679  0.46141587  1
  O  O239  1  0.19671607  0.09361976  0.46328129  1
  O  O240  1  0.68443668  0.91173954  0.48614176  1
  O  O241  1  0.80932639  0.09850744  0.48960248  1
  O  O242  1  0.19375810  0.60051198  0.49071383  1
  O  O243  1  0.30424168  0.38955131  0.49286515  1
  O  O244  1  0.90181003  0.78977588  0.49938484  1
  O  O245  1  0.59628773  0.20728701  0.50031001  1
  O  O246  1  0.40501453  0.72255071  0.49759817  1
  O  O247  1  0.10277049  0.27814456  0.50318668  1
  O  O248  1  0.46872401  0.00860661  0.52277452  1
  O  O249  1  0.04169026  0.97768753  0.51886516  1
  O  O250  1  0.56428410  0.53065409  0.52269368  1
  O  O251  1  0.94142405  0.46733739  0.52288535  1
  O  O252  1  0.20287781  0.81032306  0.53367316  1
  O  O253  1  0.30127461  0.17771800  0.53553072  1
  O  O254  1  0.70379139  0.75543242  0.54391954  1
  O  O255  1  0.77670155  0.30024007  0.54022568  1
  O  O256  1  0.56963602  0.90369210  0.62027258  1
  O  O257  1  0.95650540  0.15048351  0.56922636  1
  O  O258  1  0.02573391  0.64683793  0.55614400  1
  O  O259  1  0.47830718  0.34611178  0.56427651  1
  O  O260  1  0.84265754  0.94786118  0.56680964  1
  O  O261  1  0.65345861  0.06202658  0.57096590  1
  O  O262  1  0.14603866  0.44802363  0.57067205  1
  O  O263  1  0.35654718  0.53955213  0.56781742  1
  O  O264  1  0.34948035  0.93828126  0.59214965  1
  O  O265  1  0.15167376  0.05689528  0.59028383  1
  O  O266  1  0.65881424  0.45015038  0.60686887  1
  O  O267  1  0.84852308  0.57253549  0.59984956  1
  O  O268  1  0.47204332  0.14257189  0.61551468  1
  O  O269  1  0.02799267  0.84714409  0.59810128  1
  O  O270  1  0.93191581  0.37229370  0.61128439  1
  O  O271  1  0.55015777  0.65490828  0.59864331  1
  O  O272  1  0.77800241  0.19664531  0.62782540  1
  O  O273  1  0.76280093  0.80778764  0.64248044  1
  O  O274  1  0.28521387  0.31505380  0.61498685  1
  O  O275  1  0.20948350  0.65776751  0.61382275  1
  O  O276  1  0.93148369  0.01796823  0.64398840  1
  O  O277  1  0.66877518  0.09216491  0.69544820  1
  O  O278  1  0.05178744  0.51853801  0.65040251  1
  O  O279  1  0.44400796  0.46894790  0.64425898  1
  O  O280  1  0.06147077  0.21460242  0.65600776  1
  O  O281  1  0.37456620  0.78343835  0.66843026  1
  O  O282  1  0.58710518  0.29159478  0.67316872  1
  O  O283  1  0.96330575  0.72511534  0.67491988  1
  O  O284  1  0.42436161  0.98562136  0.70086790  1
  O  O285  1  0.16289682  0.94838736  0.67713117  1
  O  O286  1  0.83988645  0.31472634  0.70892403  1
  O  O287  1  0.77556146  0.60933712  0.68396306  1
