# generated using pymatgen
data_Li7La3Zr2O12
_symmetry_space_group_name_H-M   'P 1'
_cell_length_a   11.29297700
_cell_length_b   11.29297737
_cell_length_c   40.01105500
_cell_angle_alpha   90.00000000
_cell_angle_beta   90.00000000
_cell_angle_gamma   111.54263211
_symmetry_Int_Tables_number   1
_chemical_formula_structural   Li7La3Zr2O12
_chemical_formula_sum   'Li84 La36 Zr24 O144'
_cell_volume   4746.21466431
_cell_formula_units_Z   12
loop_
 _symmetry_equiv_pos_site_id
 _symmetry_equiv_pos_as_xyz
  1  'x, y, z'
loop_
 _atom_site_type_symbol
 _atom_site_label
 _atom_site_symmetry_multiplicity
 _atom_site_fract_x
 _atom_site_fract_y
 _atom_site_fract_z
 _atom_site_occupancy
  Li  Li0  1  0.56874460  0.91945361  0.05897709  1
  Li  Li1  1  0.84429924  0.59137076  0.05719977  1
  Li  Li2  1  0.40541520  0.56323704  0.07550916  1
  Li  Li3  1  0.59629898  0.54862541  0.09659786  1
  Li  Li4  1  0.41019840  0.94817916  0.09441631  1
  Li  Li5  1  0.28660929  0.36990029  0.10289781  1
  Li  Li6  1  0.21350368  0.98751065  0.09402581  1
  Li  Li7  1  0.76869779  0.49422684  0.10739751  1
  Li  Li8  1  0.66764118  0.06101221  0.10373567  1
  Li  Li9  1  0.18886271  0.18241782  0.13115520  1
  Li  Li10  1  0.80747137  0.30070945  0.13393321  1
  Li  Li11  1  0.01091593  0.24465127  0.14423210  1
  Li  Li12  1  0.76192325  0.60365253  0.16245588  1
  Li  Li13  1  0.22503146  0.39321152  0.16776767  1
  Li  Li14  1  0.22876638  0.93807222  0.15005235  1
  Li  Li15  1  0.77900660  0.10636240  0.16647781  1
  Li  Li16  1  0.95108960  0.71980159  0.19302239  1
  Li  Li17  1  0.78966720  0.81088530  0.20445564  1
  Li  Li18  1  0.18500234  0.78611884  0.19775247  1
  Li  Li19  1  0.67431850  0.56913437  0.22244302  1
  Li  Li20  1  0.74709747  0.00106991  0.22362306  1
  Li  Li21  1  0.24493392  0.50962068  0.22500896  1
  Li  Li22  1  0.34847106  0.95872465  0.22211842  1
  Li  Li23  1  0.44226827  0.44975905  0.24327540  1
  Li  Li24  1  0.56229791  0.05708471  0.24382434  1
  Li  Li25  1  0.49508263  0.24613905  0.26089549  1
  Li  Li26  1  0.85562326  0.02288341  0.27946646  1
  Li  Li27  1  0.63790663  0.47252429  0.28364228  1
  Li  Li28  1  0.13180231  0.46683067  0.28450909  1
  Li  Li29  1  0.35893011  0.02529114  0.28463372  1
  Li  Li30  1  0.98114748  0.22712515  0.30957880  1
  Li  Li31  1  0.06337378  0.05426348  0.32231764  1
  Li  Li32  1  0.94652234  0.44527078  0.32358663  1
  Li  Li33  1  0.83119091  0.94184579  0.33969312  1
  Li  Li34  1  0.74870184  0.50035112  0.34190709  1
  Li  Li35  1  0.24988165  0.00202265  0.34092030  1
  Li  Li36  1  0.19584590  0.59150680  0.34211439  1
  Li  Li37  1  0.69280452  0.69769158  0.35972805  1
  Li  Li38  1  0.30234156  0.81786765  0.36052575  1
  Li  Li39  1  0.47949905  0.73783843  0.37510185  1
  Li  Li40  1  0.27169058  0.10883171  0.39692000  1
  Li  Li41  1  0.71593186  0.88592862  0.39874436  1
  Li  Li42  1  0.71692455  0.38665896  0.40128689  1
  Li  Li43  1  0.27149612  0.60887982  0.40301080  1
  Li  Li44  1  0.47939057  0.23645016  0.42479850  1
  Li  Li45  1  0.30228074  0.31661917  0.43916554  1
  Li  Li46  1  0.69345133  0.19709567  0.44055436  1
  Li  Li47  1  0.19583988  0.09165295  0.45799573  1
  Li  Li48  1  0.24991640  0.50151123  0.45920996  1
  Li  Li49  1  0.74833214  0.99988374  0.45808860  1
  Li  Li50  1  0.83221504  0.44247091  0.46068684  1
  Li  Li51  1  0.94543283  0.94518117  0.47639658  1
  Li  Li52  1  0.06416420  0.55414672  0.47767191  1
  Li  Li53  1  0.98086876  0.72633763  0.49027986  1
  Li  Li54  1  0.35877995  0.52552977  0.51552795  1
  Li  Li55  1  0.13125200  0.96630652  0.51532372  1
  Li  Li56  1  0.63798716  0.97296566  0.51623524  1
  Li  Li57  1  0.85426379  0.52205124  0.52081303  1
  Li  Li58  1  0.49615740  0.74730756  0.53907753  1
  Li  Li59  1  0.56226873  0.55710101  0.55603257  1
  Li  Li60  1  0.44255873  0.95061839  0.55693822  1
  Li  Li61  1  0.34810521  0.45896806  0.57771884  1
  Li  Li62  1  0.24446673  0.00985107  0.57479829  1
  Li  Li63  1  0.74701728  0.50100187  0.57640136  1
  Li  Li64  1  0.67571533  0.06886955  0.57740132  1
  Li  Li65  1  0.18382303  0.28569406  0.60236393  1
  Li  Li66  1  0.78953987  0.30980609  0.59583784  1
  Li  Li67  1  0.95060228  0.21829631  0.60698338  1
  Li  Li68  1  0.77944593  0.60577168  0.63336153  1
  Li  Li69  1  0.22910993  0.43753873  0.64973379  1
  Li  Li70  1  0.22539367  0.89403341  0.63174735  1
  Li  Li71  1  0.76279521  0.10260829  0.63756780  1
  Li  Li72  1  0.01108671  0.74500700  0.65546568  1
  Li  Li73  1  0.80708879  0.79937589  0.66595377  1
  Li  Li74  1  0.18922562  0.68301261  0.66875575  1
  Li  Li75  1  0.66784293  0.56129724  0.69598547  1
  Li  Li76  1  0.76738591  0.99308158  0.69272819  1
  Li  Li77  1  0.21380831  0.48787932  0.70549009  1
  Li  Li78  1  0.28676133  0.87087669  0.69642326  1
  Li  Li79  1  0.41052706  0.44863402  0.70522848  1
  Li  Li80  1  0.59583227  0.04875543  0.70362334  1
  Li  Li81  1  0.40449306  0.06340526  0.72465702  1
  Li  Li82  1  0.84456251  0.09263437  0.74303840  1
  Li  Li83  1  0.56802490  0.41807010  0.74089207  1
  La  La84  1  0.95776057  0.06365870  0.08128688  1
  La  La85  1  0.05510000  0.44509793  0.08387351  1
  La  La86  1  0.99346713  0.75188115  0.11229738  1
  La  La87  1  0.50253962  0.27026400  0.10689994  1
  La  La88  1  0.68817745  0.81912398  0.12818044  1
  La  La89  1  0.31308492  0.68326760  0.13723852  1
  La  La90  1  0.31499018  0.19924142  0.19872078  1
  La  La91  1  0.68633583  0.30903453  0.19865906  1
  La  La92  1  0.99902192  0.24882723  0.22675652  1
  La  La93  1  0.49668637  0.75281344  0.22290285  1
  La  La94  1  0.06732325  0.93430124  0.25346687  1
  La  La95  1  0.93355976  0.56200523  0.25476727  1
  La  La96  1  0.43718395  0.56635378  0.31218165  1
  La  La97  1  0.56205328  0.93514836  0.31364050  1
  La  La98  1  0.49855885  0.25196057  0.34238804  1
  La  La99  1  0.99850091  0.75063953  0.34126734  1
  La  La100  1  0.18345850  0.31787017  0.36984096  1
  La  La101  1  0.81074938  0.18694882  0.37150906  1
  La  La102  1  0.81063920  0.68685921  0.42851991  1
  La  La103  1  0.18347656  0.81797868  0.43012944  1
  La  La104  1  0.49820303  0.75174363  0.45762495  1
  La  La105  1  0.99845058  0.25067180  0.45877538  1
  La  La106  1  0.56169392  0.43492877  0.48623311  1
  La  La107  1  0.43699563  0.06627497  0.48786064  1
  La  La108  1  0.93360264  0.06170796  0.54520908  1
  La  La109  1  0.06707569  0.43417656  0.54656504  1
  La  La110  1  0.99913893  0.74865394  0.57316948  1
  La  La111  1  0.49670696  0.25275352  0.57702575  1
  La  La112  1  0.68620081  0.80851904  0.60133243  1
  La  La113  1  0.31508626  0.69917639  0.60125683  1
  La  La114  1  0.31301318  0.18314893  0.66270093  1
  La  La115  1  0.68820290  0.31884973  0.67181952  1
  La  La116  1  0.99324510  0.25199080  0.68769268  1
  La  La117  1  0.50181983  0.77012019  0.69309730  1
  La  La118  1  0.05488278  0.94506777  0.71617701  1
  La  La119  1  0.95795760  0.56402042  0.71859884  1
  Zr  Zr120  1  0.72812686  0.25589864  0.04368337  1
  Zr  Zr121  1  0.21443908  0.77292044  0.05894581  1
  Zr  Zr122  1  0.00053822  0.00033711  0.16957446  1
  Zr  Zr123  1  0.49661058  0.50529280  0.16471427  1
  Zr  Zr124  1  0.50642404  0.00545139  0.16244229  1
  Zr  Zr125  1  0.00008514  0.49646970  0.17027359  1
  Zr  Zr126  1  0.25095773  0.25322682  0.28415877  1
  Zr  Zr127  1  0.74878911  0.74932345  0.28137890  1
  Zr  Zr128  1  0.24983443  0.75004243  0.28146805  1
  Zr  Zr129  1  0.74796984  0.24831691  0.28484703  1
  Zr  Zr130  1  0.49816153  0.50206367  0.39959367  1
  Zr  Zr131  1  0.99773293  0.00162136  0.39948096  1
  Zr  Zr132  1  0.99773767  0.50165513  0.40062104  1
  Zr  Zr133  1  0.49827401  0.00207124  0.40039647  1
  Zr  Zr134  1  0.74781601  0.74807170  0.51514908  1
  Zr  Zr135  1  0.24967227  0.25006069  0.51852870  1
  Zr  Zr136  1  0.74849036  0.24913172  0.51869183  1
  Zr  Zr137  1  0.25107679  0.75333918  0.51588631  1
  Zr  Zr138  1  0.99982979  0.99584281  0.62981974  1
  Zr  Zr139  1  0.50618305  0.50505426  0.63739531  1
  Zr  Zr140  1  0.49710616  0.00543453  0.63522757  1
  Zr  Zr141  1  0.00056430  0.50013912  0.63035767  1
  Zr  Zr142  1  0.21448063  0.27372306  0.74089876  1
  Zr  Zr143  1  0.72806679  0.75597081  0.75636456  1
  O  O144  1  0.11308855  0.89039125  0.05956531  1
  O  O145  1  0.02195385  0.62397491  0.06191326  1
  O  O146  1  0.44156723  0.40898718  0.07896392  1
  O  O147  1  0.39316467  0.87284454  0.04862796  1
  O  O148  1  0.73192284  0.41084146  0.06246345  1
  O  O149  1  0.59684868  0.13533606  0.06910014  1
  O  O150  1  0.25773403  0.60467479  0.07765877  1
  O  O151  1  0.74111376  0.94865484  0.07904896  1
  O  O152  1  0.10739787  0.25370948  0.09856080  1
  O  O153  1  0.88678810  0.24300271  0.05617206  1
  O  O154  1  0.78048418  0.66732068  0.09720796  1
  O  O155  1  0.23752698  0.82561811  0.10780320  1
  O  O156  1  0.09220258  0.99250856  0.12414873  1
  O  O157  1  0.90870130  0.47079401  0.12317900  1
  O  O158  1  0.49703439  0.62610844  0.12264629  1
  O  O159  1  0.52129134  0.90183749  0.12099834  1
  O  O160  1  0.14346500  0.47321198  0.14106071  1
  O  O161  1  0.88314949  0.05856322  0.13715089  1
  O  O162  1  0.35118041  0.33355288  0.14654729  1
  O  O163  1  0.63195182  0.44748096  0.13913448  1
  O  O164  1  0.37845837  0.07135624  0.13247611  1
  O  O165  1  0.65410652  0.16999265  0.14419560  1
  O  O166  1  0.88267602  0.80876077  0.16208322  1
  O  O167  1  0.08247094  0.69086018  0.16315080  1
  O  O168  1  0.11258083  0.19919322  0.17566960  1
  O  O169  1  0.89281033  0.29348676  0.17477847  1
  O  O170  1  0.63686861  0.66355090  0.18621480  1
  O  O171  1  0.36293172  0.56569640  0.18737211  1
  O  O172  1  0.63989805  0.94115883  0.18504375  1
  O  O173  1  0.36164383  0.84729260  0.18406685  1
  O  O174  1  0.84594778  0.53142613  0.19506882  1
  O  O175  1  0.15522893  0.96784060  0.19441824  1
  O  O176  1  0.51356241  0.39205589  0.20605571  1
  O  O177  1  0.48968255  0.11508091  0.20551694  1
  O  O178  1  0.91969595  0.01007882  0.21565284  1
  O  O179  1  0.06596402  0.47401204  0.21771323  1
  O  O180  1  0.24473050  0.33670338  0.23720231  1
  O  O181  1  0.75573852  0.16617560  0.23764443  1
  O  O182  1  0.86280278  0.74030228  0.23983131  1
  O  O183  1  0.12830187  0.75379228  0.24245881  1
  O  O184  1  0.71270807  0.38775790  0.25556184  1
  O  O185  1  0.29231432  0.11420641  0.25528733  1
  O  O186  1  0.58704538  0.60510219  0.26127186  1
  O  O187  1  0.68199355  0.88249167  0.25916823  1
  O  O188  1  0.32352652  0.61981223  0.26164026  1
  O  O189  1  0.41244862  0.89545602  0.26068742  1
  O  O190  1  0.05475735  0.14202477  0.27884818  1
  O  O191  1  0.94490144  0.35384235  0.28128578  1
  O  O192  1  0.44996211  0.35991685  0.28869672  1
  O  O193  1  0.54978187  0.13891256  0.28887555  1
  O  O194  1  0.91398290  0.89262293  0.30247149  1
  O  O195  1  0.81579840  0.61527295  0.30428699  1
  O  O196  1  0.18531509  0.88732332  0.30406663  1
  O  O197  1  0.08801087  0.60722160  0.30443006  1
  O  O198  1  0.78623358  0.10399212  0.31190537  1
  O  O199  1  0.22015666  0.39679398  0.31254035  1
  O  O200  1  0.63328528  0.75894280  0.32260162  1
  O  O201  1  0.36140128  0.74389532  0.32487099  1
  O  O202  1  0.26043513  0.17106233  0.33096253  1
  O  O203  1  0.73399943  0.32748230  0.33167218  1
  O  O204  1  0.57909372  0.48994973  0.35292513  1
  O  O205  1  0.41686989  0.01286684  0.35332497  1
  O  O206  1  0.98856334  0.11423431  0.35747164  1
  O  O207  1  0.00276983  0.38197038  0.36054197  1
  O  O208  1  0.64054894  0.97067989  0.37117139  1
  O  O209  1  0.35648924  0.54235033  0.37160822  1
  O  O210  1  0.85413698  0.83926865  0.37767459  1
  O  O211  1  0.13344832  0.93642786  0.37742185  1
  O  O212  1  0.86529962  0.56963357  0.37836005  1
  O  O213  1  0.14080078  0.66551485  0.37973116  1
  O  O214  1  0.38828070  0.30493201  0.39479250  1
  O  O215  1  0.60486644  0.20069995  0.39649738  1
  O  O216  1  0.60431517  0.70091841  0.40351929  1
  O  O217  1  0.38779105  0.80512496  0.40515025  1
  O  O218  1  0.14108408  0.16557145  0.42025407  1
  O  O219  1  0.86554279  0.06978983  0.42175036  1
  O  O220  1  0.13338832  0.43656558  0.42267516  1
  O  O221  1  0.85446842  0.33946181  0.42251872  1
  O  O222  1  0.35692580  0.04272300  0.42831900  1
  O  O223  1  0.64064460  0.47100794  0.42877423  1
  O  O224  1  0.00246018  0.88181088  0.43952513  1
  O  O225  1  0.98866042  0.61434538  0.44264442  1
  O  O226  1  0.41683179  0.51255379  0.44663510  1
  O  O227  1  0.57902688  0.98964804  0.44706072  1
  O  O228  1  0.73381309  0.82711921  0.46831275  1
  O  O229  1  0.26060802  0.67088646  0.46910911  1
  O  O230  1  0.36082479  0.24362304  0.47509921  1
  O  O231  1  0.63292235  0.25868149  0.47743896  1
  O  O232  1  0.22031907  0.89690230  0.48738745  1
  O  O233  1  0.78601636  0.60355879  0.48816357  1
  O  O234  1  0.08763111  0.10721329  0.49555760  1
  O  O235  1  0.18511900  0.38739626  0.49603088  1
  O  O236  1  0.81500752  0.11498737  0.49567479  1
  O  O237  1  0.91389454  0.39225452  0.49769533  1
  O  O238  1  0.54951200  0.63901838  0.51111016  1
  O  O239  1  0.44998941  0.86009803  0.51126636  1
  O  O240  1  0.94474376  0.85373007  0.51868720  1
  O  O241  1  0.05495992  0.64212671  0.52114090  1
  O  O242  1  0.41227966  0.39535990  0.53926082  1
  O  O243  1  0.32345887  0.11987535  0.53832156  1
  O  O244  1  0.68194475  0.38267658  0.54076324  1
  O  O245  1  0.58664617  0.10522605  0.53885798  1
  O  O246  1  0.29193062  0.61421728  0.54477426  1
  O  O247  1  0.71244019  0.88771926  0.54437237  1
  O  O248  1  0.12790349  0.25333620  0.55754634  1
  O  O249  1  0.86210071  0.23938777  0.56024912  1
  O  O250  1  0.75554217  0.66604774  0.56235469  1
  O  O251  1  0.24460049  0.83694327  0.56280808  1
  O  O252  1  0.06587786  0.97383346  0.58239024  1
  O  O253  1  0.91947750  0.50990929  0.58427301  1
  O  O254  1  0.48960596  0.61479910  0.59434786  1
  O  O255  1  0.51350616  0.89159420  0.59393428  1
  O  O256  1  0.15505091  0.46743297  0.60550745  1
  O  O257  1  0.84583953  0.03068077  0.60492406  1
  O  O258  1  0.36083607  0.34713014  0.61592271  1
  O  O259  1  0.63943311  0.44050955  0.61482017  1
  O  O260  1  0.36334748  0.06582462  0.61248112  1
  O  O261  1  0.63754934  0.16302244  0.61381141  1
  O  O262  1  0.89272689  0.79294757  0.62516617  1
  O  O263  1  0.11251745  0.69895621  0.62417092  1
  O  O264  1  0.08183990  0.19024258  0.63696020  1
  O  O265  1  0.88293015  0.30843440  0.63786621  1
  O  O266  1  0.65383741  0.66946922  0.65559994  1
  O  O267  1  0.37807973  0.57122621  0.66745682  1
  O  O268  1  0.63166552  0.94703088  0.66092573  1
  O  O269  1  0.35106389  0.83365594  0.65326740  1
  O  O270  1  0.88300375  0.55824608  0.66275580  1
  O  O271  1  0.14355484  0.97285957  0.65890463  1
  O  O272  1  0.52122162  0.40161290  0.67883881  1
  O  O273  1  0.49697667  0.12614130  0.67731707  1
  O  O274  1  0.90786409  0.96945353  0.67687597  1
  O  O275  1  0.09205352  0.49268126  0.67573014  1
  O  O276  1  0.23735162  0.32570015  0.69200628  1
  O  O277  1  0.78025772  0.16717477  0.70282466  1
  O  O278  1  0.88700785  0.74323793  0.74403983  1
  O  O279  1  0.10720621  0.75392442  0.70127505  1
  O  O280  1  0.74087610  0.44867142  0.72082262  1
  O  O281  1  0.25751043  0.10505432  0.72218867  1
  O  O282  1  0.59729128  0.63634363  0.73060106  1
  O  O283  1  0.73228738  0.91167975  0.73798715  1
  O  O284  1  0.39323942  0.37334976  0.75122815  1
  O  O285  1  0.44081661  0.90894064  0.72094838  1
  O  O286  1  0.02212221  0.12475086  0.73801638  1
  O  O287  1  0.11359734  0.39153836  0.74026103  1
