# generated using pymatgen
data_Li7La3Zr2O12
_symmetry_space_group_name_H-M   'P 1'
_cell_length_a   11.29297700
_cell_length_b   11.29297344
_cell_length_c   40.46538200
_cell_angle_alpha   90.00000000
_cell_angle_beta   90.00000000
_cell_angle_gamma   108.44555555
_symmetry_Int_Tables_number   1
_chemical_formula_structural   Li7La3Zr2O12
_chemical_formula_sum   'Li84 La36 Zr24 O144'
_cell_volume   4895.47505537
_cell_formula_units_Z   12
loop_
 _symmetry_equiv_pos_site_id
 _symmetry_equiv_pos_as_xyz
  1  'x, y, z'
loop_
 _atom_site_type_symbol
 _atom_site_label
 _atom_site_symmetry_multiplicity
 _atom_site_fract_x
 _atom_site_fract_y
 _atom_site_fract_z
 _atom_site_occupancy
  Li  Li0  1  0.13788285  0.55967257  0.06072553  1
  Li  Li1  1  0.15546491  0.07229047  0.05671075  1
  Li  Li2  1  0.86939335  0.04619779  0.06488466  1
  Li  Li3  1  0.89545801  0.57852558  0.07443601  1
  Li  Li4  1  0.01769057  0.81901898  0.07994199  1
  Li  Li5  1  0.66320909  0.00037849  0.09431824  1
  Li  Li6  1  0.31082233  0.55061580  0.09429315  1
  Li  Li7  1  0.12724323  0.99880183  0.11331219  1
  Li  Li8  1  0.79155466  0.55082335  0.12710900  1
  Li  Li9  1  0.45373482  0.70332569  0.13222555  1
  Li  Li10  1  0.52283838  0.96593923  0.13642459  1
  Li  Li11  1  0.59550690  0.56143128  0.15720421  1
  Li  Li12  1  0.29716189  0.00106188  0.15681509  1
  Li  Li13  1  0.33197952  0.48988980  0.15423370  1
  Li  Li14  1  0.68463672  0.14459293  0.16907261  1
  Li  Li15  1  0.18342174  0.15294346  0.16725393  1
  Li  Li16  1  0.75692538  0.39431987  0.17109436  1
  Li  Li17  1  0.15073294  0.34922876  0.19010176  1
  Li  Li18  1  0.89941373  0.25900414  0.19393590  1
  Li  Li19  1  0.75076230  0.59890920  0.19822949  1
  Li  Li20  1  0.18981595  0.94341340  0.21510854  1
  Li  Li21  1  0.73932274  0.10795818  0.23555003  1
  Li  Li22  1  0.18606483  0.48735894  0.24496531  1
  Li  Li23  1  0.00179298  0.81537292  0.24557936  1
  Li  Li24  1  0.77215132  0.72868209  0.24794445  1
  Li  Li25  1  0.16062746  0.71137040  0.25844592  1
  Li  Li26  1  0.24396902  0.94020698  0.27347317  1
  Li  Li27  1  0.73397592  0.92143421  0.26969029  1
  Li  Li28  1  0.58177742  0.06851354  0.28252870  1
  Li  Li29  1  0.60037894  0.57279035  0.27976030  1
  Li  Li30  1  0.36758569  0.48889991  0.29128380  1
  Li  Li31  1  0.39130002  0.10858389  0.30455701  1
  Li  Li32  1  0.47947273  0.33863675  0.30643467  1
  Li  Li33  1  0.14986645  0.52225923  0.30612561  1
  Li  Li34  1  0.77462324  0.08022995  0.31552581  1
  Li  Li35  1  0.61335702  0.52684565  0.34003929  1
  Li  Li36  1  0.26147516  0.08208228  0.35540164  1
  Li  Li37  1  0.92372848  0.24068679  0.35758831  1
  Li  Li38  1  0.01193668  0.48764299  0.36037495  1
  Li  Li39  1  0.05665309  0.08793100  0.38093663  1
  Li  Li40  1  0.80634656  0.52336586  0.38171674  1
  Li  Li41  1  0.80724070  0.02376039  0.38162752  1
  Li  Li42  1  0.16888657  0.66203333  0.39576581  1
  Li  Li43  1  0.66822879  0.66028005  0.39551138  1
  Li  Li44  1  0.23535641  0.91130906  0.39773409  1
  Li  Li45  1  0.63202395  0.86716850  0.41784287  1
  Li  Li46  1  0.38634160  0.77813938  0.42011061  1
  Li  Li47  1  0.22786353  0.11755967  0.42264766  1
  Li  Li48  1  0.67191556  0.46814595  0.43710273  1
  Li  Li49  1  0.22306675  0.63027701  0.46139964  1
  Li  Li50  1  0.66737890  0.00471448  0.47186415  1
  Li  Li51  1  0.48668975  0.33482120  0.47106052  1
  Li  Li52  1  0.25264476  0.24720674  0.47363289  1
  Li  Li53  1  0.63963020  0.21924828  0.48795704  1
  Li  Li54  1  0.71803297  0.45397587  0.49797183  1
  Li  Li55  1  0.21390452  0.44013644  0.49545267  1
  Li  Li56  1  0.06707665  0.59099400  0.50860793  1
  Li  Li57  1  0.08393609  0.09879799  0.50602268  1
  Li  Li58  1  0.85016940  0.01327421  0.51872377  1
  Li  Li59  1  0.87192936  0.62814806  0.52986496  1
  Li  Li60  1  0.96409337  0.86422335  0.53171622  1
  Li  Li61  1  0.62698537  0.03813016  0.53403672  1
  Li  Li62  1  0.25853725  0.59722394  0.54290391  1
  Li  Li63  1  0.09593791  0.04935316  0.56629405  1
  Li  Li64  1  0.73933106  0.59739973  0.58094932  1
  Li  Li65  1  0.40911432  0.76768556  0.58365927  1
  Li  Li66  1  0.48991558  0.00951816  0.58933017  1
  Li  Li67  1  0.53636929  0.61483897  0.60617603  1
  Li  Li68  1  0.28265058  0.04679372  0.61043960  1
  Li  Li69  1  0.29540393  0.54857747  0.60719310  1
  Li  Li70  1  0.64751867  0.19183958  0.62569743  1
  Li  Li71  1  0.12472927  0.18809954  0.62438006  1
  Li  Li72  1  0.73614887  0.43296326  0.62699812  1
  Li  Li73  1  0.12066368  0.39545694  0.64073784  1
  Li  Li74  1  0.89247664  0.31770823  0.64756527  1
  Li  Li75  1  0.71017592  0.63427134  0.64381753  1
  Li  Li76  1  0.11494117  0.99547625  0.65765981  1
  Li  Li77  1  0.72346506  0.20728706  0.68311781  1
  Li  Li78  1  0.12669339  0.53076242  0.69242747  1
  Li  Li79  1  0.93595141  0.86611054  0.69202703  1
  Li  Li80  1  0.70398648  0.74876827  0.70097746  1
  Li  Li81  1  0.10941132  0.76567952  0.70472475  1
  Li  Li82  1  0.19836413  0.00715763  0.71891587  1
  Li  Li83  1  0.69995725  0.99762219  0.71420645  1
  La  La84  1  0.49808207  0.78964987  0.05313133  1
  La  La85  1  0.41069500  0.10904557  0.08318668  1
  La  La86  1  0.55912283  0.46573136  0.08249651  1
  La  La87  1  0.91340984  0.10059752  0.13493223  1
  La  La88  1  0.03581168  0.46429448  0.13179468  1
  La  La89  1  0.46462038  0.27914031  0.16291056  1
  La  La90  1  0.96885362  0.79400266  0.16556048  1
  La  La91  1  0.65335453  0.84702866  0.19056422  1
  La  La92  1  0.27567122  0.72034319  0.18801013  1
  La  La93  1  0.64857725  0.34773864  0.24598352  1
  La  La94  1  0.27074048  0.22603308  0.24741897  1
  La  La95  1  0.45122267  0.78455969  0.27514103  1
  La  La96  1  0.95651890  0.29391858  0.27569934  1
  La  La97  1  0.89394670  0.60856367  0.30352761  1
  La  La98  1  0.01429414  0.98610462  0.30577723  1
  La  La99  1  0.38835359  0.61199391  0.36041060  1
  La  La100  1  0.51262986  0.98677908  0.36046784  1
  La  La101  1  0.94802477  0.80236089  0.38886649  1
  La  La102  1  0.45298321  0.30761176  0.38864927  1
  La  La103  1  0.13197388  0.36721453  0.41720784  1
  La  La104  1  0.75716791  0.24338400  0.41729814  1
  La  La105  1  0.13142044  0.87086643  0.47185515  1
  La  La106  1  0.75312266  0.74723047  0.47375120  1
  La  La107  1  0.93083705  0.30646828  0.50265903  1
  La  La108  1  0.43854419  0.81094612  0.50126846  1
  La  La109  1  0.37304926  0.12761933  0.53000693  1
  La  La110  1  0.49439827  0.50381337  0.53151655  1
  La  La111  1  0.86494226  0.12956808  0.58934121  1
  La  La112  1  0.99079859  0.50855701  0.58645614  1
  La  La113  1  0.42699924  0.32239692  0.61427745  1
  La  La114  1  0.93606029  0.82287768  0.61036044  1
  La  La115  1  0.61399524  0.89401841  0.64447712  1
  La  La116  1  0.23398021  0.76365729  0.64167251  1
  La  La117  1  0.61781410  0.42143738  0.69722532  1
  La  La118  1  0.23543997  0.26352466  0.69506473  1
  La  La119  1  0.40419739  0.80578276  0.72273374  1
  Zr  Zr120  1  0.72656086  0.27563774  0.10495712  1
  Zr  Zr121  1  0.20482208  0.27629887  0.09899961  1
  Zr  Zr122  1  0.73698104  0.78408072  0.10562082  1
  Zr  Zr123  1  0.23414246  0.77964666  0.09872827  1
  Zr  Zr124  1  0.96209356  0.04174759  0.22006889  1
  Zr  Zr125  1  0.96633149  0.53941303  0.21836024  1
  Zr  Zr126  1  0.45718568  0.03241526  0.21916394  1
  Zr  Zr127  1  0.46179496  0.53545314  0.21860682  1
  Zr  Zr128  1  0.20178010  0.79665233  0.33250381  1
  Zr  Zr129  1  0.70167912  0.79703102  0.33249946  1
  Zr  Zr130  1  0.20148482  0.29875608  0.33256425  1
  Zr  Zr131  1  0.70276537  0.29810002  0.33191468  1
  Zr  Zr132  1  0.44231977  0.55662390  0.44561897  1
  Zr  Zr133  1  0.44493208  0.05799477  0.44509857  1
  Zr  Zr134  1  0.94206016  0.55636800  0.44533842  1
  Zr  Zr135  1  0.94147033  0.05693663  0.44565781  1
  Zr  Zr136  1  0.68147403  0.31642803  0.55961730  1
  Zr  Zr137  1  0.17962679  0.31558535  0.55874141  1
  Zr  Zr138  1  0.68085365  0.81824022  0.55883899  1
  Zr  Zr139  1  0.18850917  0.82014534  0.55719259  1
  Zr  Zr140  1  0.91402421  0.09574030  0.67938175  1
  Zr  Zr141  1  0.92047168  0.58401075  0.67288693  1
  Zr  Zr142  1  0.41520767  0.07218672  0.67795103  1
  Zr  Zr143  1  0.41697226  0.56922479  0.67163009  1
  O  O144  1  0.70973453  0.88916054  0.06476444  1
  O  O145  1  0.29716950  0.67975511  0.06071375  1
  O  O146  1  0.59459230  0.28002960  0.06905793  1
  O  O147  1  0.29416324  0.22160725  0.06051014  1
  O  O148  1  0.19311636  0.92956091  0.07589820  1
  O  O149  1  0.75751069  0.62836585  0.08351531  1
  O  O150  1  0.79499881  0.14398703  0.08868471  1
  O  O151  1  0.15265321  0.42357936  0.08510300  1
  O  O152  1  0.86570676  0.43621499  0.09721933  1
  O  O153  1  0.05122348  0.11844708  0.08742852  1
  O  O154  1  0.53432182  0.67274886  0.09387823  1
  O  O155  1  0.43803732  0.90229779  0.09250030  1
  O  O156  1  0.06044494  0.66741649  0.08690883  1
  O  O157  1  0.92354931  0.87542129  0.11216272  1
  O  O158  1  0.38080320  0.40989892  0.11695321  1
  O  O159  1  0.56332850  0.14413042  0.12884906  1
  O  O160  1  0.63918915  0.41630361  0.13118814  1
  O  O161  1  0.28631601  0.14003615  0.12815346  1
  O  O162  1  0.68123493  0.92097926  0.13459759  1
  O  O163  1  0.27041457  0.63945511  0.13138350  1
  O  O164  1  0.10522614  0.28120994  0.14491811  1
  O  O165  1  0.82992881  0.27535667  0.15030089  1
  O  O166  1  0.18740331  0.84249234  0.14530114  1
  O  O167  1  0.73775496  0.70579686  0.15408454  1
  O  O168  1  0.88889308  0.55696422  0.17136441  1
  O  O169  1  0.03878688  0.01611794  0.17386099  1
  O  O170  1  0.46795904  0.63663256  0.17467319  1
  O  O171  1  0.45914619  0.91264311  0.17869350  1
  O  O172  1  0.81311299  0.07500986  0.19428205  1
  O  O173  1  0.11213660  0.50222303  0.19264656  1
  O  O174  1  0.31657996  0.09611437  0.19764340  1
  O  O175  1  0.59956496  0.46242021  0.19798353  1
  O  O176  1  0.32881407  0.37475629  0.19687309  1
  O  O177  1  0.59152553  0.19581641  0.20125420  1
  O  O178  1  0.07750381  0.73466144  0.21374855  1
  O  O179  1  0.86227205  0.84738158  0.21545670  1
  O  O180  1  0.06573410  0.23173580  0.22405567  1
  O  O181  1  0.85433439  0.35322950  0.22608828  1
  O  O182  1  0.31667687  0.87446098  0.23858404  1
  O  O183  1  0.59753764  0.69147796  0.23932320  1
  O  O184  1  0.59343544  0.96534454  0.24184759  1
  O  O185  1  0.33415589  0.61665899  0.23837159  1
  O  O186  1  0.82166472  0.58335937  0.24412396  1
  O  O187  1  0.10539435  0.00328599  0.24808360  1
  O  O188  1  0.45218993  0.14696776  0.26041957  1
  O  O189  1  0.46087198  0.42231383  0.26087963  1
  O  O190  1  0.87735241  0.06389600  0.26554111  1
  O  O191  1  0.04726132  0.53328534  0.26552132  1
  O  O192  1  0.19450279  0.38043701  0.28532952  1
  O  O193  1  0.72529991  0.21300103  0.28612401  1
  O  O194  1  0.09139116  0.80026282  0.29036005  1
  O  O195  1  0.81650280  0.79436467  0.29118219  1
  O  O196  1  0.66499096  0.44213165  0.30419164  1
  O  O197  1  0.24142638  0.15114728  0.30742750  1
  O  O198  1  0.28290674  0.66838887  0.31161104  1
  O  O199  1  0.63248211  0.93167577  0.30998595  1
  O  O200  1  0.35986530  0.93419251  0.31266656  1
  O  O201  1  0.54252080  0.65445796  0.31399204  1
  O  O202  1  0.01324164  0.19079006  0.32496401  1
  O  O203  1  0.89410665  0.40184790  0.32658120  1
  O  O204  1  0.51088778  0.19643121  0.33635512  1
  O  O205  1  0.39331103  0.40894218  0.33701171  1
  O  O206  1  0.86481811  0.93049678  0.35137587  1
  O  O207  1  0.04243258  0.66249120  0.35213789  1
  O  O208  1  0.12890131  0.92974519  0.35526712  1
  O  O209  1  0.76704621  0.65734311  0.35419776  1
  O  O210  1  0.16462142  0.44511671  0.35851165  1
  O  O211  1  0.74043745  0.15015235  0.35800722  1
  O  O212  1  0.58721125  0.80302038  0.37328307  1
  O  O213  1  0.31173677  0.79794605  0.37542684  1
  O  O214  1  0.67767173  0.37273877  0.37826279  1
  O  O215  1  0.21472358  0.21948308  0.37948785  1
  O  O216  1  0.36507882  0.07060751  0.39821206  1
  O  O217  1  0.51744345  0.53186021  0.39917728  1
  O  O218  1  0.94298939  0.16567376  0.40247554  1
  O  O219  1  0.94788633  0.44177137  0.40454237  1
  O  O220  1  0.29471277  0.59463818  0.41946891  1
  O  O221  1  0.59107219  0.02029747  0.41932298  1
  O  O222  1  0.80254314  0.62157759  0.42324390  1
  O  O223  1  0.07532376  0.98431977  0.42291841  1
  O  O224  1  0.80723989  0.89651396  0.42635092  1
  O  O225  1  0.07706171  0.71963225  0.42681948  1
  O  O226  1  0.55462911  0.24903543  0.44015776  1
  O  O227  1  0.34043831  0.36512626  0.44119864  1
  O  O228  1  0.54553821  0.74831161  0.45083540  1
  O  O229  1  0.33523930  0.86943303  0.45216125  1
  O  O230  1  0.80039682  0.39688697  0.46382711  1
  O  O231  1  0.07802065  0.21541076  0.46567828  1
  O  O232  1  0.07653360  0.48788452  0.46798823  1
  O  O233  1  0.81298643  0.13759963  0.46639997  1
  O  O234  1  0.29736006  0.09772415  0.47048674  1
  O  O235  1  0.58742212  0.51943669  0.47308282  1
  O  O236  1  0.93680503  0.67162285  0.48629591  1
  O  O237  1  0.94574855  0.94702526  0.48779609  1
  O  O238  1  0.35852701  0.58072975  0.49121471  1
  O  O239  1  0.52481388  0.04919543  0.49237012  1
  O  O240  1  0.67471332  0.89943037  0.51193902  1
  O  O241  1  0.21016076  0.73509589  0.51196825  1
  O  O242  1  0.56855515  0.31534806  0.51693221  1
  O  O243  1  0.29340671  0.30862803  0.51745780  1
  O  O244  1  0.15044593  0.96581462  0.53055575  1
  O  O245  1  0.72138766  0.67036630  0.53415444  1
  O  O246  1  0.75800935  0.18698889  0.53819430  1
  O  O247  1  0.11314171  0.45244437  0.53601632  1
  O  O248  1  0.83704652  0.45317007  0.53849575  1
  O  O249  1  0.02095344  0.17434936  0.54028502  1
  O  O250  1  0.49318411  0.70799764  0.55159507  1
  O  O251  1  0.37895949  0.92340340  0.55372525  1
  O  O252  1  0.99621724  0.71959895  0.56052397  1
  O  O253  1  0.87191382  0.92903817  0.56242163  1
  O  O254  1  0.34396694  0.45072805  0.57653432  1
  O  O255  1  0.52280691  0.18539334  0.58206656  1
  O  O256  1  0.60364598  0.44958911  0.58048068  1
  O  O257  1  0.24562968  0.17897291  0.58149634  1
  O  O258  1  0.63910295  0.96131407  0.58539864  1
  O  O259  1  0.22390900  0.67292567  0.58454603  1
  O  O260  1  0.06190480  0.32056555  0.59889914  1
  O  O261  1  0.79312454  0.32052257  0.60140946  1
  O  O262  1  0.16121504  0.89364935  0.60347397  1
  O  O263  1  0.69615470  0.74459077  0.60699315  1
  O  O264  1  0.84944585  0.59550356  0.62027116  1
  O  O265  1  0.98491929  0.03833088  0.62773133  1
  O  O266  1  0.42473403  0.68888120  0.62917657  1
  O  O267  1  0.42041933  0.95909563  0.63529502  1
  O  O268  1  0.76856192  0.11792129  0.64479641  1
  O  O269  1  0.06715357  0.54176594  0.64459713  1
  O  O270  1  0.27936157  0.13880687  0.65102820  1
  O  O271  1  0.55665673  0.50451591  0.64821968  1
  O  O272  1  0.29070427  0.41849536  0.64784919  1
  O  O273  1  0.55179046  0.23246681  0.66317637  1
  O  O274  1  0.02359696  0.78478430  0.66398378  1
  O  O275  1  0.78667971  0.90540153  0.68345709  1
  O  O276  1  0.04494585  0.26870903  0.67049332  1
  O  O277  1  0.79811466  0.39940743  0.67204815  1
  O  O278  1  0.26904891  0.89158667  0.69761435  1
  O  O279  1  0.53822701  0.73010432  0.69583445  1
  O  O280  1  0.53538085  0.98358036  0.69993086  1
  O  O281  1  0.28635190  0.64585271  0.69137386  1
  O  O282  1  0.76235461  0.62089245  0.69095176  1
  O  O283  1  0.05731933  0.03590504  0.70039131  1
  O  O284  1  0.34753942  0.14268067  0.71716770  1
  O  O285  1  0.41943598  0.44360645  0.70841246  1
  O  O286  1  0.81832530  0.14684526  0.71317750  1
  O  O287  1  0.02219529  0.60311381  0.71280029  1
