# generated using pymatgen
data_Na2S
_symmetry_space_group_name_H-M   'P 1'
_cell_length_a   9.26727300
_cell_length_b   9.26727339
_cell_length_c   41.61683400
_cell_angle_alpha   90.00000000
_cell_angle_beta   90.00000000
_cell_angle_gamma   59.99999781
_symmetry_Int_Tables_number   1
_chemical_formula_structural   Na2S
_chemical_formula_sum   'Na48 S24'
_cell_volume   3095.30601879
_cell_formula_units_Z   24
loop_
 _symmetry_equiv_pos_site_id
 _symmetry_equiv_pos_as_xyz
  1  'x, y, z'
loop_
 _atom_site_type_symbol
 _atom_site_label
 _atom_site_symmetry_multiplicity
 _atom_site_fract_x
 _atom_site_fract_y
 _atom_site_fract_z
 _atom_site_occupancy
  Na  Na0  1  0.91703431  0.04148083  0.05867781  1
  Na  Na1  1  0.41703423  0.54148086  0.05867792  1
  Na  Na2  1  0.41703430  0.04148091  0.05867792  1
  Na  Na3  1  0.91703437  0.54148085  0.05867785  1
  Na  Na4  1  0.58348994  0.70824998  0.14741184  1
  Na  Na5  1  0.25029574  0.37485427  0.10243690  1
  Na  Na6  1  0.75029574  0.87485428  0.10243687  1
  Na  Na7  1  0.08348992  0.20824998  0.14741184  1
  Na  Na8  1  0.08348998  0.70825004  0.14741184  1
  Na  Na9  1  0.75029571  0.37485422  0.10243686  1
  Na  Na10  1  0.25029569  0.87485424  0.10243689  1
  Na  Na11  1  0.58348997  0.20825005  0.14741185  1
  Na  Na12  1  0.24994384  0.37502622  0.23869217  1
  Na  Na13  1  0.91675337  0.04162474  0.19317198  1
  Na  Na14  1  0.41675334  0.54162474  0.19317199  1
  Na  Na15  1  0.74994385  0.87502622  0.23869217  1
  Na  Na16  1  0.74994386  0.37502621  0.23869219  1
  Na  Na17  1  0.41675330  0.04162474  0.19317198  1
  Na  Na18  1  0.91675333  0.54162473  0.19317197  1
  Na  Na19  1  0.24994384  0.87502621  0.23869218  1
  Na  Na20  1  0.91664186  0.04167608  0.32953596  1
  Na  Na21  1  0.58326301  0.70837128  0.28410024  1
  Na  Na22  1  0.08326302  0.20837124  0.28410024  1
  Na  Na23  1  0.41664179  0.54167613  0.32953596  1
  Na  Na24  1  0.41664182  0.04167609  0.32953596  1
  Na  Na25  1  0.08326305  0.70837130  0.28410023  1
  Na  Na26  1  0.58326308  0.20837126  0.28410024  1
  Na  Na27  1  0.91664188  0.54167609  0.32953597  1
  Na  Na28  1  0.58304433  0.70847466  0.42038655  1
  Na  Na29  1  0.24992544  0.37504049  0.37494999  1
  Na  Na30  1  0.74992548  0.87504050  0.37495001  1
  Na  Na31  1  0.08304442  0.20847458  0.42038657  1
  Na  Na32  1  0.08304439  0.70847465  0.42038659  1
  Na  Na33  1  0.74992547  0.37504045  0.37495002  1
  Na  Na34  1  0.24992541  0.87504051  0.37495000  1
  Na  Na35  1  0.58304434  0.20847466  0.42038656  1
  Na  Na36  1  0.24975653  0.37512107  0.51122138  1
  Na  Na37  1  0.91634534  0.04182997  0.46613880  1
  Na  Na38  1  0.41634532  0.54183002  0.46613881  1
  Na  Na39  1  0.74975672  0.87512091  0.51122135  1
  Na  Na40  1  0.74975665  0.37512085  0.51122138  1
  Na  Na41  1  0.41634532  0.04183002  0.46613882  1
  Na  Na42  1  0.91634535  0.54182999  0.46613881  1
  Na  Na43  1  0.24975650  0.87512094  0.51122138  1
  Na  Na44  1  0.58309602  0.70845577  0.55506873  1
  Na  Na45  1  0.08309597  0.20845580  0.55506883  1
  Na  Na46  1  0.08309594  0.70845573  0.55506885  1
  Na  Na47  1  0.58309601  0.20845569  0.55506871  1
  S  S48  1  0.58378502  0.70810697  0.07877546  1
  S  S49  1  0.08378524  0.70810706  0.07877547  1
  S  S50  1  0.58378507  0.20810717  0.07877548  1
  S  S51  1  0.08378507  0.20810693  0.07877544  1
  S  S52  1  0.25048041  0.37475885  0.17044247  1
  S  S53  1  0.75048040  0.37475880  0.17044244  1
  S  S54  1  0.25048036  0.87475876  0.17044241  1
  S  S55  1  0.75048047  0.87475879  0.17044248  1
  S  S56  1  0.91682916  0.04158546  0.26145309  1
  S  S57  1  0.41682920  0.04158554  0.26145309  1
  S  S58  1  0.91682914  0.54158572  0.26145307  1
  S  S59  1  0.41682902  0.54158568  0.26145312  1
  S  S60  1  0.58335406  0.70832305  0.35222353  1
  S  S61  1  0.08335429  0.70832306  0.35222353  1
  S  S62  1  0.58335424  0.20832301  0.35222353  1
  S  S63  1  0.08335427  0.20832286  0.35222355  1
  S  S64  1  0.24959809  0.37520068  0.44316441  1
  S  S65  1  0.74959812  0.37520076  0.44316436  1
  S  S66  1  0.24959813  0.87520079  0.44316435  1
  S  S67  1  0.74959808  0.87520073  0.44316441  1
  S  S68  1  0.91636330  0.04181948  0.53487660  1
  S  S69  1  0.41636321  0.04181966  0.53487657  1
  S  S70  1  0.91636338  0.54181955  0.53487659  1
  S  S71  1  0.41636316  0.54181958  0.53487658  1
