# generated using pymatgen
data_Na2S
_symmetry_space_group_name_H-M   'P 1'
_cell_length_a   9.26727300
_cell_length_b   9.26727339
_cell_length_c   41.61683400
_cell_angle_alpha   90.00000000
_cell_angle_beta   90.00000000
_cell_angle_gamma   59.99999781
_symmetry_Int_Tables_number   1
_chemical_formula_structural   Na2S
_chemical_formula_sum   'Na56 S28'
_cell_volume   3095.30601879
_cell_formula_units_Z   28
loop_
 _symmetry_equiv_pos_site_id
 _symmetry_equiv_pos_as_xyz
  1  'x, y, z'
loop_
 _atom_site_type_symbol
 _atom_site_label
 _atom_site_symmetry_multiplicity
 _atom_site_fract_x
 _atom_site_fract_y
 _atom_site_fract_z
 _atom_site_occupancy
  Na  Na0  1  0.66666916  0.16666915  0.02384417  1
  Na  Na1  1  0.00000042  0.50000048  0.06768544  1
  Na  Na2  1  0.50000032  0.00000036  0.06768539  1
  Na  Na3  1  0.16666922  0.66666915  0.02384412  1
  Na  Na4  1  0.16666944  0.16666943  0.02384409  1
  Na  Na5  1  0.50000045  0.50000069  0.06768563  1
  Na  Na6  1  0.00000062  0.00000050  0.06768560  1
  Na  Na7  1  0.66666946  0.66666939  0.02384409  1
  Na  Na8  1  0.33333548  0.83333558  0.11277760  1
  Na  Na9  1  0.66666456  0.16666453  0.15860626  1
  Na  Na10  1  0.16666447  0.66666448  0.15860629  1
  Na  Na11  1  0.83333548  0.33333564  0.11277756  1
  Na  Na12  1  0.83333557  0.83333566  0.11277781  1
  Na  Na13  1  0.16666475  0.16666496  0.15860619  1
  Na  Na14  1  0.66666498  0.66666473  0.15860619  1
  Na  Na15  1  0.33333555  0.33333564  0.11277779  1
  Na  Na16  1  0.00000233  0.50000231  0.20422637  1
  Na  Na17  1  0.33333138  0.83333144  0.24989676  1
  Na  Na18  1  0.83333165  0.33333173  0.24989691  1
  Na  Na19  1  0.50000232  0.00000236  0.20422634  1
  Na  Na20  1  0.50000239  0.50000228  0.20422623  1
  Na  Na21  1  0.83333178  0.83333159  0.24989692  1
  Na  Na22  1  0.33333148  0.33333188  0.24989689  1
  Na  Na23  1  0.00000225  0.00000241  0.20422623  1
  Na  Na24  1  0.66666905  0.16666904  0.29548395  1
  Na  Na25  1  0.99999905  0.49999909  0.34113713  1
  Na  Na26  1  0.49999905  0.99999914  0.34113707  1
  Na  Na27  1  0.16666914  0.66666907  0.29548407  1
  Na  Na28  1  0.16666908  0.16666890  0.29548403  1
  Na  Na29  1  0.49999896  0.49999901  0.34113709  1
  Na  Na30  1  0.99999896  0.99999901  0.34113709  1
  Na  Na31  1  0.66666892  0.66666904  0.29548403  1
  Na  Na32  1  0.33333397  0.83333400  0.38670870  1
  Na  Na33  1  0.66666441  0.16666453  0.43218584  1
  Na  Na34  1  0.16666443  0.66666438  0.43218591  1
  Na  Na35  1  0.83333392  0.33333390  0.38670870  1
  Na  Na36  1  0.83333413  0.83333403  0.38670874  1
  Na  Na37  1  0.16666420  0.16666425  0.43218575  1
  Na  Na38  1  0.66666424  0.66666420  0.43218577  1
  Na  Na39  1  0.33333404  0.33333410  0.38670875  1
  Na  Na40  1  0.00000063  0.50000042  0.47777265  1
  Na  Na41  1  0.33333063  0.83333061  0.52342762  1
  Na  Na42  1  0.83333059  0.33333067  0.52342755  1
  Na  Na43  1  0.50000076  0.00000066  0.47777265  1
  Na  Na44  1  0.50000076  0.49999995  0.47777256  1
  Na  Na45  1  0.83333050  0.83333059  0.52342760  1
  Na  Na46  1  0.33333058  0.33333051  0.52342756  1
  Na  Na47  1  0.00000013  0.00000064  0.47777255  1
  Na  Na48  1  0.66666901  0.16666903  0.56849727  1
  Na  Na49  1  0.99999628  0.49999628  0.61234547  1
  Na  Na50  1  0.49999650  0.99999651  0.61234568  1
  Na  Na51  1  0.16666908  0.66666905  0.56849722  1
  Na  Na52  1  0.16666913  0.16666845  0.56849724  1
  Na  Na53  1  0.49999674  0.49999590  0.61234576  1
  Na  Na54  1  0.99999598  0.99999667  0.61234577  1
  Na  Na55  1  0.66666860  0.66666897  0.56849726  1
  S  S56  1  0.33333437  0.83333437  0.04396839  1
  S  S57  1  0.83333446  0.83333440  0.04396842  1
  S  S58  1  0.33333440  0.33333446  0.04396842  1
  S  S59  1  0.83333439  0.33333440  0.04396836  1
  S  S60  1  0.00000013  0.50000013  0.13581702  1
  S  S61  1  0.50000008  0.50000014  0.13581706  1
  S  S62  1  0.00000013  0.00000012  0.13581706  1
  S  S63  1  0.50000009  0.00000013  0.13581699  1
  S  S64  1  0.66666689  0.16666691  0.22705283  1
  S  S65  1  0.16666681  0.16666695  0.22705282  1
  S  S66  1  0.66666694  0.66666684  0.22705283  1
  S  S67  1  0.16666682  0.66666691  0.22705284  1
  S  S68  1  0.33333367  0.83333369  0.31832853  1
  S  S69  1  0.83333363  0.83333366  0.31832854  1
  S  S70  1  0.33333365  0.33333363  0.31832854  1
  S  S71  1  0.83333368  0.33333365  0.31832854  1
  S  S72  1  0.99999946  0.49999944  0.40945905  1
  S  S73  1  0.49999945  0.49999942  0.40945902  1
  S  S74  1  0.99999941  0.99999945  0.40945902  1
  S  S75  1  0.49999951  0.99999949  0.40945905  1
  S  S76  1  0.66666605  0.16666598  0.50042034  1
  S  S77  1  0.16666605  0.16666591  0.50042031  1
  S  S78  1  0.66666594  0.66666605  0.50042032  1
  S  S79  1  0.16666607  0.66666607  0.50042030  1
  S  S80  1  0.33333270  0.83333262  0.59217739  1
  S  S81  1  0.83333275  0.83333275  0.59217735  1
  S  S82  1  0.33333276  0.33333275  0.59217735  1
  S  S83  1  0.83333272  0.33333269  0.59217739  1
