# generated using pymatgen
data_Na2S
_symmetry_space_group_name_H-M   'P 1'
_cell_length_a   6.55295200
_cell_length_b   14.65284600
_cell_length_c   46.88910700
_cell_angle_alpha   90.00000000
_cell_angle_beta   90.00000000
_cell_angle_gamma   90.00000000
_symmetry_Int_Tables_number   1
_chemical_formula_structural   Na2S
_chemical_formula_sum   'Na76 S38'
_cell_volume   4502.26375663
_cell_formula_units_Z   38
loop_
 _symmetry_equiv_pos_site_id
 _symmetry_equiv_pos_as_xyz
  1  'x, y, z'
loop_
 _atom_site_type_symbol
 _atom_site_label
 _atom_site_symmetry_multiplicity
 _atom_site_fract_x
 _atom_site_fract_y
 _atom_site_fract_z
 _atom_site_occupancy
  Na  Na0  1  0.76395043  0.77258831  0.06438291  1
  Na  Na1  1  0.24734438  0.06394565  0.04100696  1
  Na  Na2  1  0.26089839  0.46326504  0.10151007  1
  Na  Na3  1  0.73603237  0.27261145  0.06437371  1
  Na  Na4  1  0.23906573  0.96323273  0.10151033  1
  Na  Na5  1  0.25273248  0.56396800  0.04101711  1
  Na  Na6  1  0.70944060  0.06667379  0.04020675  1
  Na  Na7  1  0.76008872  0.46103048  0.10121724  1
  Na  Na8  1  0.17268593  0.31847694  0.01006318  1
  Na  Na9  1  0.25080366  0.76143437  0.07208698  1
  Na  Na10  1  0.73994250  0.96102159  0.10121536  1
  Na  Na11  1  0.79052219  0.56668138  0.04021063  1
  Na  Na12  1  0.24918531  0.26143824  0.07207707  1
  Na  Na13  1  0.32735450  0.81846714  0.01006592  1
  Na  Na14  1  0.74651091  0.16462712  0.13105970  1
  Na  Na15  1  0.75136320  0.56400776  0.19454876  1
  Na  Na16  1  0.24854936  0.86330888  0.16375424  1
  Na  Na17  1  0.24982670  0.26344043  0.22617404  1
  Na  Na18  1  0.74856316  0.06400256  0.19454298  1
  Na  Na19  1  0.75345327  0.66463454  0.13107447  1
  Na  Na20  1  0.25007485  0.76342829  0.22618509  1
  Na  Na21  1  0.25138792  0.36331636  0.16375319  1
  Na  Na22  1  0.74874030  0.86354425  0.16378065  1
  Na  Na23  1  0.75013942  0.26329994  0.22621823  1
  Na  Na24  1  0.24705947  0.16293431  0.13241962  1
  Na  Na25  1  0.25119065  0.56353601  0.19503628  1
  Na  Na26  1  0.74980166  0.76327589  0.22623067  1
  Na  Na27  1  0.75118719  0.36356471  0.16378017  1
  Na  Na28  1  0.24876407  0.06353430  0.19503076  1
  Na  Na29  1  0.25289393  0.66294237  0.13242604  1
  Na  Na30  1  0.74973018  0.96334756  0.25752607  1
  Na  Na31  1  0.74986084  0.36251739  0.32031139  1
  Na  Na32  1  0.24983940  0.66286402  0.28895934  1
  Na  Na33  1  0.25014022  0.06194729  0.35176603  1
  Na  Na34  1  0.75000707  0.86253068  0.32030952  1
  Na  Na35  1  0.75016763  0.46335928  0.25752652  1
  Na  Na36  1  0.24974748  0.56194416  0.35177109  1
  Na  Na37  1  0.25007115  0.16288129  0.28894914  1
  Na  Na38  1  0.75010929  0.66289269  0.28894065  1
  Na  Na39  1  0.75038307  0.06214546  0.35167117  1
  Na  Na40  1  0.24976128  0.96310802  0.25760982  1
  Na  Na41  1  0.24976261  0.36249664  0.32033505  1
  Na  Na42  1  0.74956707  0.56215516  0.35167715  1
  Na  Na43  1  0.74981629  0.16290871  0.28893355  1
  Na  Na44  1  0.25013049  0.86249672  0.32033254  1
  Na  Na45  1  0.25018394  0.46311575  0.25761292  1
  Na  Na46  1  0.75006003  0.76166011  0.38312984  1
  Na  Na47  1  0.75159738  0.16158552  0.44564923  1
  Na  Na48  1  0.24844187  0.46091042  0.41481178  1
  Na  Na49  1  0.25335462  0.86013836  0.47834129  1
  Na  Na50  1  0.74836278  0.66158001  0.44564563  1
  Na  Na51  1  0.74984032  0.26165371  0.38313598  1
  Na  Na52  1  0.24661622  0.36012960  0.47834994  1
  Na  Na53  1  0.25148381  0.96095933  0.41481063  1
  Na  Na54  1  0.74864805  0.46139961  0.41428870  1
  Na  Na55  1  0.75304151  0.86176770  0.47694663  1
  Na  Na56  1  0.24997779  0.76184287  0.38308197  1
  Na  Na57  1  0.25133699  0.16129941  0.44562952  1
  Na  Na58  1  0.74689279  0.36173902  0.47694850  1
  Na  Na59  1  0.75128458  0.96143596  0.41429011  1
  Na  Na60  1  0.24862955  0.66130876  0.44563268  1
  Na  Na61  1  0.24994157  0.26183095  0.38309162  1
  Na  Na62  1  0.73886935  0.56147501  0.50795740  1
  Na  Na63  1  0.75247795  0.96085249  0.56847602  1
  Na  Na64  1  0.23648159  0.25235886  0.54506139  1
  Na  Na65  1  0.74777722  0.46082221  0.56847248  1
  Na  Na66  1  0.76116436  0.06148072  0.50795621  1
  Na  Na67  1  0.26369800  0.75234076  0.54505323  1
  Na  Na68  1  0.74971049  0.26353938  0.53738978  1
  Na  Na69  1  0.82716271  0.70663518  0.59936039  1
  Na  Na70  1  0.23976641  0.56375021  0.50821987  1
  Na  Na71  1  0.29047058  0.95840774  0.56925254  1
  Na  Na72  1  0.67306300  0.20666518  0.59936670  1
  Na  Na73  1  0.75050936  0.76353144  0.53738554  1
  Na  Na74  1  0.20984128  0.45843168  0.56926110  1
  Na  Na75  1  0.26027550  0.06376358  0.50822879  1
  S  S76  1  0.01526931  0.41439573  0.05408883  1
  S  S77  1  0.99703005  0.81373640  0.11705205  1
  S  S78  1  0.98470005  0.11188548  0.08411151  1
  S  S79  1  0.03076431  0.70651084  0.02379964  1
  S  S80  1  0.50295174  0.31375175  0.11705425  1
  S  S81  1  0.48475820  0.91440823  0.05408943  1
  S  S82  1  0.46924704  0.20652073  0.02379611  1
  S  S83  1  0.51527693  0.61189306  0.08410902  1
  S  S84  1  0.99932124  0.21314501  0.17889652  1
  S  S85  1  0.00011928  0.61353726  0.24183313  1
  S  S86  1  0.99910460  0.91380295  0.21066185  1
  S  S87  1  0.00366416  0.51369978  0.14790634  1
  S  S88  1  0.49983396  0.11353896  0.24182981  1
  S  S89  1  0.50062203  0.71315248  0.17889732  1
  S  S90  1  0.49626806  0.01371377  0.14790260  1
  S  S91  1  0.50090431  0.41380427  0.21066070  1
  S  S92  1  0.00001036  0.01266271  0.30452899  1
  S  S93  1  0.99970577  0.41185512  0.36741168  1
  S  S94  1  0.99993343  0.71240950  0.33608282  1
  S  S95  1  0.99996362  0.31300079  0.27323902  1
  S  S96  1  0.50027115  0.91186467  0.36741245  1
  S  S97  1  0.49992665  0.51268816  0.30454781  1
  S  S98  1  0.49993937  0.81299635  0.27324212  1
  S  S99  1  0.49999604  0.21235057  0.33608362  1
  S  S100  1  0.00079812  0.81157469  0.43030985  1
  S  S101  1  0.00314798  0.21108824  0.49237729  1
  S  S102  1  0.99554935  0.51103079  0.46155623  1
  S  S103  1  0.00079464  0.11123269  0.39873313  1
  S  S104  1  0.49690963  0.71108333  0.49237239  1
  S  S105  1  0.49913448  0.31154408  0.43030307  1
  S  S106  1  0.49911985  0.61122066  0.39872817  1
  S  S107  1  0.50447086  0.01101457  0.46155103  1
  S  S108  1  0.98485142  0.61068369  0.55537535  1
  S  S109  1  0.97030754  0.31834934  0.58565514  1
  S  S110  1  0.01563482  0.91280720  0.52536045  1
  S  S111  1  0.51552230  0.11069872  0.55538891  1
  S  S112  1  0.48449282  0.41279758  0.52536328  1
  S  S113  1  0.53007563  0.81831044  0.58562754  1
