# generated using pymatgen
data_Na2S
_symmetry_space_group_name_H-M   'P 1'
_cell_length_a   14.65284600
_cell_length_b   14.65284558
_cell_length_c   42.80370200
_cell_angle_alpha   90.00000000
_cell_angle_beta   90.00000000
_cell_angle_gamma   78.46304143
_symmetry_Int_Tables_number   1
_chemical_formula_structural   Na2S
_chemical_formula_sum   'Na160 S80'
_cell_volume   9004.52704845
_cell_formula_units_Z   80
loop_
 _symmetry_equiv_pos_site_id
 _symmetry_equiv_pos_as_xyz
  1  'x, y, z'
loop_
 _atom_site_type_symbol
 _atom_site_label
 _atom_site_symmetry_multiplicity
 _atom_site_fract_x
 _atom_site_fract_y
 _atom_site_fract_z
 _atom_site_occupancy
  Na  Na0  1  0.57223055  0.57223238  0.05146137  1
  Na  Na1  1  0.07223083  0.07223212  0.05145988  1
  Na  Na2  1  0.98202398  0.48202568  0.10777887  1
  Na  Na3  1  0.48202288  0.98202251  0.10778014  1
  Na  Na4  1  0.81690464  0.81694136  0.04246566  1
  Na  Na5  1  0.31692144  0.31693466  0.04246837  1
  Na  Na6  1  0.22587599  0.72588137  0.10785344  1
  Na  Na7  1  0.72588774  0.22588613  0.10785749  1
  Na  Na8  1  0.47588470  0.47588973  0.10785726  1
  Na  Na9  1  0.97587883  0.97587987  0.10785332  1
  Na  Na10  1  0.06691315  0.56694461  0.04246475  1
  Na  Na11  1  0.56690976  0.06693500  0.04247075  1
  Na  Na12  1  0.73202486  0.73202415  0.10777896  1
  Na  Na13  1  0.23202371  0.23202519  0.10777908  1
  Na  Na14  1  0.32222939  0.82223247  0.05146122  1
  Na  Na15  1  0.82223336  0.32223228  0.05146029  1
  Na  Na16  1  0.85729657  0.60731965  0.01507642  1
  Na  Na17  1  0.35731475  0.10731935  0.01507730  1
  Na  Na18  1  0.26180128  0.51181125  0.07908501  1
  Na  Na19  1  0.76179647  0.01181330  0.07908176  1
  Na  Na20  1  0.52788503  0.77788824  0.07696557  1
  Na  Na21  1  0.02788719  0.27788978  0.07696480  1
  Na  Na22  1  0.08595022  0.83594414  0.01779098  1
  Na  Na23  1  0.58595649  0.33595123  0.01779289  1
  Na  Na24  1  0.77788834  0.52788986  0.07696518  1
  Na  Na25  1  0.27788447  0.02788807  0.07696451  1
  Na  Na26  1  0.33595419  0.58595213  0.01779305  1
  Na  Na27  1  0.83594790  0.08594528  0.01779138  1
  Na  Na28  1  0.60729736  0.85731783  0.01507567  1
  Na  Na29  1  0.10731447  0.35732328  0.01507902  1
  Na  Na30  1  0.01179112  0.76181365  0.07908213  1
  Na  Na31  1  0.51180939  0.26181549  0.07908448  1
  Na  Na32  1  0.39604012  0.39604176  0.17252314  1
  Na  Na33  1  0.89602828  0.89602841  0.17252154  1
  Na  Na34  1  0.81260070  0.31260182  0.23357219  1
  Na  Na35  1  0.31259573  0.81259545  0.23356905  1
  Na  Na36  1  0.64671067  0.64671086  0.17095390  1
  Na  Na37  1  0.14669691  0.14669952  0.17095295  1
  Na  Na38  1  0.06247776  0.56248010  0.23480186  1
  Na  Na39  1  0.56247865  0.06247931  0.23480187  1
  Na  Na40  1  0.31247810  0.31248028  0.23480179  1
  Na  Na41  1  0.81247857  0.81247932  0.23480188  1
  Na  Na42  1  0.89670914  0.39671196  0.17095396  1
  Na  Na43  1  0.39669780  0.89669799  0.17095317  1
  Na  Na44  1  0.56260149  0.56260131  0.23357210  1
  Na  Na45  1  0.06259503  0.06259714  0.23356911  1
  Na  Na46  1  0.14602653  0.64603055  0.17252154  1
  Na  Na47  1  0.64604104  0.14604027  0.17252307  1
  Na  Na48  1  0.68831137  0.43831286  0.13884467  1
  Na  Na49  1  0.18830152  0.93830220  0.13884371  1
  Na  Na50  1  0.10406511  0.35406729  0.20301127  1
  Na  Na51  1  0.60406556  0.85406665  0.20301128  1
  Na  Na52  1  0.35463978  0.60463652  0.20226957  1
  Na  Na53  1  0.85463808  0.10463831  0.20226955  1
  Na  Na54  1  0.93733496  0.68733843  0.14192820  1
  Na  Na55  1  0.43733385  0.18733543  0.14192941  1
  Na  Na56  1  0.60464365  0.35464231  0.20227023  1
  Na  Na57  1  0.10463353  0.85463489  0.20226954  1
  Na  Na58  1  0.18733331  0.43733813  0.14192875  1
  Na  Na59  1  0.68733570  0.93733615  0.14192880  1
  Na  Na60  1  0.43830529  0.68830880  0.13884452  1
  Na  Na61  1  0.93830749  0.18830628  0.13884394  1
  Na  Na62  1  0.85406537  0.60406676  0.20301136  1
  Na  Na63  1  0.35406545  0.10406657  0.20301134  1
  Na  Na64  1  0.22903736  0.22903920  0.29681455  1
  Na  Na65  1  0.72903782  0.72903902  0.29681426  1
  Na  Na66  1  0.64597717  0.14597842  0.35961830  1
  Na  Na67  1  0.14597698  0.64597837  0.35961829  1
  Na  Na68  1  0.47944348  0.47944481  0.29686273  1
  Na  Na69  1  0.97944317  0.97944482  0.29686290  1
  Na  Na70  1  0.89554946  0.39555116  0.35921476  1
  Na  Na71  1  0.39554961  0.89555092  0.35921481  1
  Na  Na72  1  0.14554937  0.14555105  0.35921481  1
  Na  Na73  1  0.64554960  0.64555102  0.35921473  1
  Na  Na74  1  0.72944338  0.22944486  0.29686275  1
  Na  Na75  1  0.22944332  0.72944447  0.29686290  1
  Na  Na76  1  0.39597701  0.39597853  0.35961824  1
  Na  Na77  1  0.89597713  0.89597842  0.35961828  1
  Na  Na78  1  0.97903753  0.47903930  0.29681423  1
  Na  Na79  1  0.47903766  0.97903875  0.29681453  1
  Na  Na80  1  0.52114802  0.27114974  0.26590188  1
  Na  Na81  1  0.02114717  0.77114878  0.26590169  1
  Na  Na82  1  0.93727790  0.18727911  0.32826198  1
  Na  Na83  1  0.43727781  0.68727933  0.32826196  1
  Na  Na84  1  0.18751451  0.43751611  0.32832771  1
  Na  Na85  1  0.68751479  0.93751573  0.32832772  1
  Na  Na86  1  0.77072250  0.52072376  0.26540083  1
  Na  Na87  1  0.27072229  0.02072347  0.26540131  1
  Na  Na88  1  0.43751457  0.18751606  0.32832772  1
  Na  Na89  1  0.93751453  0.68751587  0.32832768  1
  Na  Na90  1  0.02072170  0.27072424  0.26540109  1
  Na  Na91  1  0.52072268  0.77072325  0.26540112  1
  Na  Na92  1  0.27114741  0.52114949  0.26590170  1
  Na  Na93  1  0.77114796  0.02114899  0.26590170  1
  Na  Na94  1  0.68727784  0.43727928  0.32826189  1
  Na  Na95  1  0.18727786  0.93727941  0.32826210  1
  Na  Na96  1  0.06206152  0.06206286  0.42272938  1
  Na  Na97  1  0.56206157  0.56206295  0.42272938  1
  Na  Na98  1  0.47930619  0.97930367  0.48306956  1
  Na  Na99  1  0.97930620  0.47930373  0.48306955  1
  Na  Na100  1  0.31268207  0.31267929  0.42192870  1
  Na  Na101  1  0.81268216  0.81267914  0.42192868  1
  Na  Na102  1  0.72825617  0.22825307  0.48601622  1
  Na  Na103  1  0.22825611  0.72825316  0.48601623  1
  Na  Na104  1  0.97825617  0.97825312  0.48601620  1
  Na  Na105  1  0.47825617  0.47825315  0.48601623  1
  Na  Na106  1  0.56268223  0.06267906  0.42192866  1
  Na  Na107  1  0.06268209  0.56267911  0.42192868  1
  Na  Na108  1  0.22930629  0.22930369  0.48306957  1
  Na  Na109  1  0.72930623  0.72930365  0.48306959  1
  Na  Na110  1  0.81206158  0.31206298  0.42272936  1
  Na  Na111  1  0.31206146  0.81206294  0.42272940  1
  Na  Na112  1  0.35423257  0.10423402  0.39028972  1
  Na  Na113  1  0.85423266  0.60423400  0.39028970  1
  Na  Na114  1  0.76985823  0.01983441  0.45410380  1
  Na  Na115  1  0.26985824  0.51983435  0.45410381  1
  Na  Na116  1  0.02063414  0.27063553  0.45244945  1
  Na  Na117  1  0.52063421  0.77063552  0.45244946  1
  Na  Na118  1  0.60399915  0.35400090  0.39144624  1
  Na  Na119  1  0.10399909  0.85400075  0.39144627  1
  Na  Na120  1  0.27063419  0.02063546  0.45244947  1
  Na  Na121  1  0.77063421  0.52063552  0.45244945  1
  Na  Na122  1  0.85399917  0.10400074  0.39144626  1
  Na  Na123  1  0.35399903  0.60400079  0.39144627  1
  Na  Na124  1  0.10423254  0.35423408  0.39028971  1
  Na  Na125  1  0.60423252  0.85423409  0.39028970  1
  Na  Na126  1  0.51985820  0.26983439  0.45410382  1
  Na  Na127  1  0.01985831  0.76983448  0.45410379  1
  Na  Na128  1  0.88895447  0.88895191  0.54795448  1
  Na  Na129  1  0.38895445  0.38895170  0.54795451  1
  Na  Na130  1  0.33072845  0.83072904  0.60713403  1
  Na  Na131  1  0.83072851  0.33072909  0.60713399  1
  Na  Na132  1  0.15482846  0.15482951  0.54588467  1
  Na  Na133  1  0.65482843  0.65482969  0.54588471  1
  Na  Na134  1  0.55945184  0.05945298  0.60978951  1
  Na  Na135  1  0.05945178  0.55945275  0.60978946  1
  Na  Na136  1  0.80945180  0.80945286  0.60978947  1
  Na  Na137  1  0.30945180  0.30945289  0.60978953  1
  Na  Na138  1  0.40482859  0.90482967  0.54588468  1
  Na  Na139  1  0.90482839  0.40482965  0.54588472  1
  Na  Na140  1  0.08072838  0.08072887  0.60713408  1
  Na  Na141  1  0.58072850  0.58072895  0.60713403  1
  Na  Na142  1  0.63895438  0.13895174  0.54795452  1
  Na  Na143  1  0.13895452  0.63895176  0.54795453  1
  Na  Na144  1  0.19064327  0.94064410  0.51697820  1
  Na  Na145  1  0.69064318  0.44064406  0.51697823  1
  Na  Na146  1  0.59972109  0.84972242  0.58269840  1
  Na  Na147  1  0.09972073  0.34972254  0.58269827  1
  Na  Na148  1  0.84454639  0.09454773  0.57359751  1
  Na  Na149  1  0.34454635  0.59454783  0.57359750  1
  Na  Na150  1  0.43451873  0.18450174  0.51718714  1
  Na  Na151  1  0.93451874  0.68450181  0.51718725  1
  Na  Na152  1  0.09454641  0.84454778  0.57359754  1
  Na  Na153  1  0.59454624  0.34454761  0.57359747  1
  Na  Na154  1  0.68451880  0.93450170  0.51718714  1
  Na  Na155  1  0.18451883  0.43450177  0.51718720  1
  Na  Na156  1  0.94064321  0.19064408  0.51697820  1
  Na  Na157  1  0.44064331  0.69064417  0.51697820  1
  Na  Na158  1  0.34972099  0.09972251  0.58269830  1
  Na  Na159  1  0.84972100  0.59972231  0.58269838  1
  S  S160  1  0.35430852  0.35431099  0.11131999  1
  S  S161  1  0.85429839  0.85430708  0.11130214  1
  S  S162  1  0.93891188  0.43891785  0.04561330  1
  S  S163  1  0.43891099  0.93891623  0.04561431  1
  S  S164  1  0.64617464  0.39617577  0.07370755  1
  S  S165  1  0.14615782  0.89616054  0.07370059  1
  S  S166  1  0.22495084  0.47495961  0.01828696  1
  S  S167  1  0.72492550  0.97496377  0.01827452  1
  S  S168  1  0.39617587  0.64617451  0.07370695  1
  S  S169  1  0.89615808  0.14616040  0.07370130  1
  S  S170  1  0.97491708  0.72496190  0.01827549  1
  S  S171  1  0.47494943  0.22496410  0.01827691  1
  S  S172  1  0.68891020  0.68891873  0.04561328  1
  S  S173  1  0.18891373  0.18891703  0.04561396  1
  S  S174  1  0.10429923  0.60430685  0.11130283  1
  S  S175  1  0.60430732  0.10431177  0.11132001  1
  S  S176  1  0.18726104  0.18726236  0.23408284  1
  S  S177  1  0.68726458  0.68726601  0.23408426  1
  S  S178  1  0.77145358  0.27145373  0.17011253  1
  S  S179  1  0.27140584  0.77140690  0.17009420  1
  S  S180  1  0.47964397  0.22964480  0.20396449  1
  S  S181  1  0.97963893  0.72964109  0.20396500  1
  S  S182  1  0.06254703  0.31254432  0.13995006  1
  S  S183  1  0.56254374  0.81254810  0.13995032  1
  S  S184  1  0.22964309  0.47964127  0.20396461  1
  S  S185  1  0.72961837  0.97964158  0.20396072  1
  S  S186  1  0.81254791  0.56254965  0.13994956  1
  S  S187  1  0.31254162  0.06254361  0.13995075  1
  S  S188  1  0.52145352  0.52145348  0.17011251  1
  S  S189  1  0.02140599  0.02140673  0.17009397  1
  S  S190  1  0.93726473  0.43726569  0.23408423  1
  S  S191  1  0.43726099  0.93726254  0.23408285  1
  S  S192  1  0.02071500  0.02071632  0.35985441  1
  S  S193  1  0.52071487  0.52071628  0.35985434  1
  S  S194  1  0.60427493  0.10427624  0.29725834  1
  S  S195  1  0.10427536  0.60427647  0.29725855  1
  S  S196  1  0.31235716  0.06235852  0.32784234  1
  S  S197  1  0.81235693  0.56235831  0.32784242  1
  S  S198  1  0.89592769  0.14592713  0.26521804  1
  S  S199  1  0.39592611  0.64592880  0.26521811  1
  S  S200  1  0.06235710  0.31235829  0.32784237  1
  S  S201  1  0.56235691  0.81235847  0.32784239  1
  S  S202  1  0.64592687  0.39592773  0.26521880  1
  S  S203  1  0.14592709  0.89592849  0.26521748  1
  S  S204  1  0.35427503  0.35427623  0.29725841  1
  S  S205  1  0.85427517  0.85427663  0.29725855  1
  S  S206  1  0.77071517  0.27071617  0.35985437  1
  S  S207  1  0.27071489  0.77071628  0.35985442  1
  S  S208  1  0.85410785  0.85401540  0.48499198  1
  S  S209  1  0.35410783  0.35401552  0.48499197  1
  S  S210  1  0.43723427  0.93723592  0.42109269  1
  S  S211  1  0.93723420  0.43723593  0.42109272  1
  S  S212  1  0.14511294  0.89511174  0.45481620  1
  S  S213  1  0.64511300  0.39511184  0.45481614  1
  S  S214  1  0.72940024  0.97939934  0.39094185  1
  S  S215  1  0.22940033  0.47939925  0.39094179  1
  S  S216  1  0.89511298  0.14511176  0.45481615  1
  S  S217  1  0.39511289  0.64511177  0.45481619  1
  S  S218  1  0.47940023  0.22939923  0.39094180  1
  S  S219  1  0.97940031  0.72939915  0.39094187  1
  S  S220  1  0.18723425  0.18723594  0.42109272  1
  S  S221  1  0.68723418  0.68723591  0.42109276  1
  S  S222  1  0.60410791  0.10401556  0.48499197  1
  S  S223  1  0.10410796  0.60401544  0.48499204  1
  S  S224  1  0.69178058  0.69178160  0.60673948  1
  S  S225  1  0.19178072  0.19178187  0.60673945  1
  S  S226  1  0.27052465  0.77052590  0.55124749  1
  S  S227  1  0.77052448  0.27052615  0.55124752  1
  S  S228  1  0.97786901  0.72786745  0.57930845  1
  S  S229  1  0.47786892  0.22786762  0.57930843  1
  S  S230  1  0.56226200  0.81226088  0.51363788  1
  S  S231  1  0.06226194  0.31226107  0.51363789  1
  S  S232  1  0.72786899  0.97786761  0.57930844  1
  S  S233  1  0.22786887  0.47786766  0.57930844  1
  S  S234  1  0.31226192  0.06226106  0.51363787  1
  S  S235  1  0.81226189  0.56226109  0.51363787  1
  S  S236  1  0.02052453  0.02052601  0.55124753  1
  S  S237  1  0.52052439  0.52052606  0.55124752  1
  S  S238  1  0.44178050  0.94178186  0.60673950  1
  S  S239  1  0.94178064  0.44178182  0.60673946  1
