# generated using pymatgen
data_Na2S
_symmetry_space_group_name_H-M   'P 1'
_cell_length_a   6.55295200
_cell_length_b   6.55295200
_cell_length_c   45.87066300
_cell_angle_alpha   90.00000000
_cell_angle_beta   90.00000000
_cell_angle_gamma   90.00000000
_symmetry_Int_Tables_number   1
_chemical_formula_structural   Na2S
_chemical_formula_sum   'Na28 S14'
_cell_volume   1969.74039267
_cell_formula_units_Z   14
loop_
 _symmetry_equiv_pos_site_id
 _symmetry_equiv_pos_as_xyz
  1  'x, y, z'
loop_
 _atom_site_type_symbol
 _atom_site_label
 _atom_site_symmetry_multiplicity
 _atom_site_fract_x
 _atom_site_fract_y
 _atom_site_fract_z
 _atom_site_occupancy
  Na  Na0  1  0.75000011  0.74996701  0.08504720  1
  Na  Na1  1  0.24998059  0.24998632  0.08504717  1
  Na  Na2  1  0.74999174  0.24997641  0.09173737  1
  Na  Na3  1  0.24999885  0.74998234  0.02567842  1
  Na  Na4  1  0.74995794  0.24994127  0.02567497  1
  Na  Na5  1  0.24999132  0.74997470  0.09174022  1
  Na  Na6  1  0.25000639  0.24998400  0.15959336  1
  Na  Na7  1  0.75000857  0.74998790  0.23191171  1
  Na  Na8  1  0.25000809  0.24998800  0.23191186  1
  Na  Na9  1  0.75000497  0.74998628  0.15959344  1
  Na  Na10  1  0.75000500  0.24999025  0.23217646  1
  Na  Na11  1  0.25000603  0.74998878  0.16120089  1
  Na  Na12  1  0.75000407  0.24998634  0.16120016  1
  Na  Na13  1  0.25000483  0.74998981  0.23217670  1
  Na  Na14  1  0.25000608  0.24999117  0.30383238  1
  Na  Na15  1  0.75000647  0.74999046  0.37623260  1
  Na  Na16  1  0.25000393  0.24999253  0.37623311  1
  Na  Na17  1  0.75000606  0.74999129  0.30383239  1
  Na  Na18  1  0.75000572  0.24999247  0.37443415  1
  Na  Na19  1  0.25000597  0.74999180  0.30341054  1
  Na  Na20  1  0.75000597  0.24999180  0.30341044  1
  Na  Na21  1  0.25000367  0.74999077  0.37443113  1
  Na  Na22  1  0.24996274  0.25004865  0.45089175  1
  Na  Na23  1  0.74993455  0.75007698  0.45087600  1
  Na  Na24  1  0.75007103  0.25005987  0.50998506  1
  Na  Na25  1  0.24999064  0.75002032  0.44385239  1
  Na  Na26  1  0.74999243  0.25002178  0.44386546  1
  Na  Na27  1  0.25002021  0.75000989  0.50992384  1
  S  S28  1  0.00000318  0.99997067  0.12458822  1
  S  S29  1  0.49999201  0.99998354  0.05261167  1
  S  S30  1  0.00002522  0.50001557  0.05260196  1
  S  S31  1  0.50003945  0.49994797  0.12458956  1
  S  S32  1  0.00000274  0.99999403  0.26780592  1
  S  S33  1  0.50002749  0.99993411  0.19626656  1
  S  S34  1  0.00005151  0.49994439  0.19626329  1
  S  S35  1  0.50000419  0.49999271  0.26780594  1
  S  S36  1  0.00000538  0.00000940  0.41116875  1
  S  S37  1  0.50000570  0.99999672  0.33946777  1
  S  S38  1  0.99999938  0.49999285  0.33946759  1
  S  S39  1  0.49998552  0.50000531  0.41116885  1
  S  S40  1  0.50006807  0.00017486  0.48315041  1
  S  S41  1  0.99980616  0.50013867  0.48314235  1
