# generated using pymatgen
data_Na2S
_symmetry_space_group_name_H-M   'P 1'
_cell_length_a   6.55295200
_cell_length_b   9.26727300
_cell_length_c   46.33636700
_cell_angle_alpha   90.00000000
_cell_angle_beta   90.00000000
_cell_angle_gamma   90.00000000
_symmetry_Int_Tables_number   1
_chemical_formula_structural   Na2S
_chemical_formula_sum   'Na48 S24'
_cell_volume   2813.91466998
_cell_formula_units_Z   24
loop_
 _symmetry_equiv_pos_site_id
 _symmetry_equiv_pos_as_xyz
  1  'x, y, z'
loop_
 _atom_site_type_symbol
 _atom_site_label
 _atom_site_symmetry_multiplicity
 _atom_site_fract_x
 _atom_site_fract_y
 _atom_site_fract_z
 _atom_site_occupancy
  Na  Na0  1  0.72824296  0.62432808  0.02596524  1
  Na  Na1  1  0.27178941  0.12434541  0.02596561  1
  Na  Na2  1  0.74890462  0.37467226  0.07470892  1
  Na  Na3  1  0.25105640  0.87467521  0.07470881  1
  Na  Na4  1  0.72821592  0.12434522  0.02596459  1
  Na  Na5  1  0.27176238  0.62432814  0.02596633  1
  Na  Na6  1  0.74894271  0.87467519  0.07470890  1
  Na  Na7  1  0.25109507  0.37467227  0.07470887  1
  Na  Na8  1  0.74982789  0.12466273  0.12448457  1
  Na  Na9  1  0.25018004  0.62464322  0.12448373  1
  Na  Na10  1  0.74964865  0.87463558  0.17486591  1
  Na  Na11  1  0.25035164  0.37463450  0.17486397  1
  Na  Na12  1  0.74981973  0.62464332  0.12448372  1
  Na  Na13  1  0.25017189  0.12466267  0.12448455  1
  Na  Na14  1  0.74964830  0.37463456  0.17486407  1
  Na  Na15  1  0.25035123  0.87463559  0.17486580  1
  Na  Na16  1  0.75010036  0.62449834  0.22486939  1
  Na  Na17  1  0.24990027  0.12449860  0.22486947  1
  Na  Na18  1  0.74994050  0.37492998  0.27502662  1
  Na  Na19  1  0.25005907  0.87493196  0.27502651  1
  Na  Na20  1  0.75009947  0.12449861  0.22486945  1
  Na  Na21  1  0.24989937  0.62449834  0.22486941  1
  Na  Na22  1  0.74994085  0.87493195  0.27502656  1
  Na  Na23  1  0.25005938  0.37492996  0.27502656  1
  Na  Na24  1  0.75007671  0.12507199  0.32496506  1
  Na  Na25  1  0.24992369  0.62507185  0.32496527  1
  Na  Na26  1  0.74989511  0.87548210  0.37512398  1
  Na  Na27  1  0.25010530  0.37548221  0.37512405  1
  Na  Na28  1  0.75007630  0.62507198  0.32496524  1
  Na  Na29  1  0.24992325  0.12507205  0.32496512  1
  Na  Na30  1  0.74989458  0.37548216  0.37512405  1
  Na  Na31  1  0.25010494  0.87548210  0.37512392  1
  Na  Na32  1  0.75034453  0.62534642  0.42513654  1
  Na  Na33  1  0.24965652  0.12534783  0.42513647  1
  Na  Na34  1  0.75016590  0.37535349  0.47551473  1
  Na  Na35  1  0.24983753  0.87534908  0.47551574  1
  Na  Na36  1  0.75034336  0.12534755  0.42513630  1
  Na  Na37  1  0.24965530  0.62534652  0.42513666  1
  Na  Na38  1  0.75016241  0.87534904  0.47551574  1
  Na  Na39  1  0.24983531  0.37535405  0.47551487  1
  Na  Na40  1  0.75109777  0.12531982  0.52529976  1
  Na  Na41  1  0.24890341  0.62532632  0.52529744  1
  Na  Na42  1  0.77177890  0.87567481  0.57404710  1
  Na  Na43  1  0.22820290  0.37567636  0.57404504  1
  Na  Na44  1  0.75109579  0.62532603  0.52529728  1
  Na  Na45  1  0.24890214  0.12531982  0.52529983  1
  Na  Na46  1  0.77179317  0.37567682  0.57404584  1
  Na  Na47  1  0.22821735  0.87567433  0.57404609  1
  S  S48  1  0.00000007  0.62490125  0.07327579  1
  S  S49  1  0.00000007  0.12493676  0.07327181  1
  S  S50  1  0.50000100  0.87437642  0.02620666  1
  S  S51  1  0.50000104  0.37437899  0.02620686  1
  S  S52  1  0.99999992  0.12487081  0.17461269  1
  S  S53  1  0.99999991  0.62486829  0.17461251  1
  S  S54  1  0.49999996  0.37438353  0.12513787  1
  S  S55  1  0.49999990  0.87437368  0.12513577  1
  S  S56  1  0.99999998  0.62503536  0.27493340  1
  S  S57  1  0.99999999  0.12503433  0.27493342  1
  S  S58  1  0.49999995  0.87456471  0.22501023  1
  S  S59  1  0.49999996  0.37456320  0.22500953  1
  S  S60  1  0.00000000  0.12547459  0.37497516  1
  S  S61  1  0.99999998  0.62547506  0.37497495  1
  S  S62  1  0.49999994  0.37497054  0.32506126  1
  S  S63  1  0.49999996  0.87497054  0.32506114  1
  S  S64  1  0.00000002  0.62562089  0.47486386  1
  S  S65  1  0.00000008  0.12561825  0.47486558  1
  S  S66  1  0.49999994  0.87500354  0.42538533  1
  S  S67  1  0.50000000  0.37500123  0.42538483  1
  S  S68  1  0.99999923  0.12565975  0.57379712  1
  S  S69  1  0.99999904  0.62563544  0.57379202  1
  S  S70  1  0.49999984  0.37517806  0.52673599  1
  S  S71  1  0.49999990  0.87518841  0.52673656  1
