# generated using pymatgen
data_Na2S
_symmetry_space_group_name_H-M   'P 1'
_cell_length_a   9.26727300
_cell_length_b   14.65284582
_cell_length_c   43.68634600
_cell_angle_alpha   90.00000000
_cell_angle_beta   90.00000000
_cell_angle_gamma   71.56504994
_symmetry_Int_Tables_number   1
_chemical_formula_structural   Na2S
_chemical_formula_sum   'Na92 S46'
_cell_volume   5627.82921359
_cell_formula_units_Z   46
loop_
 _symmetry_equiv_pos_site_id
 _symmetry_equiv_pos_as_xyz
  1  'x, y, z'
loop_
 _atom_site_type_symbol
 _atom_site_label
 _atom_site_symmetry_multiplicity
 _atom_site_fract_x
 _atom_site_fract_y
 _atom_site_fract_z
 _atom_site_occupancy
  Na  Na0  1  0.99333052  0.07506520  0.05838315  1
  Na  Na1  1  0.22560184  0.61095702  0.00677574  1
  Na  Na2  1  0.38643815  0.28905661  0.08224174  1
  Na  Na3  1  0.62094045  0.82047594  0.02972180  1
  Na  Na4  1  0.00067341  0.56056196  0.05673878  1
  Na  Na5  1  0.60996183  0.34193255  0.03278057  1
  Na  Na6  1  0.38938824  0.78360519  0.07965845  1
  Na  Na7  1  0.49333050  0.07506525  0.05838315  1
  Na  Na8  1  0.72560183  0.61095704  0.00677576  1
  Na  Na9  1  0.88643816  0.28905661  0.08224175  1
  Na  Na10  1  0.12094045  0.82047594  0.02972179  1
  Na  Na11  1  0.50067341  0.56056195  0.05673877  1
  Na  Na12  1  0.10996181  0.34193255  0.03278058  1
  Na  Na13  1  0.88938827  0.78360518  0.07965845  1
  Na  Na14  1  0.55504008  0.95230901  0.15509535  1
  Na  Na15  1  0.77683894  0.50862879  0.10617553  1
  Na  Na16  1  0.94407590  0.17403248  0.18112139  1
  Na  Na17  1  0.16560820  0.73130913  0.13038414  1
  Na  Na18  1  0.77692250  0.00799013  0.10516223  1
  Na  Na19  1  0.55453076  0.45316727  0.15656706  1
  Na  Na20  1  0.16564733  0.23079894  0.13131900  1
  Na  Na21  1  0.94387102  0.67468886  0.18112048  1
  Na  Na22  1  0.05504011  0.95230902  0.15509536  1
  Na  Na23  1  0.27683899  0.50862879  0.10617553  1
  Na  Na24  1  0.44407572  0.17403257  0.18112142  1
  Na  Na25  1  0.66560817  0.73130918  0.13038414  1
  Na  Na26  1  0.27692250  0.00799013  0.10516222  1
  Na  Na27  1  0.05453094  0.45316732  0.15656705  1
  Na  Na28  1  0.66564726  0.23079896  0.13131901  1
  Na  Na29  1  0.44387107  0.67468878  0.18112049  1
  Na  Na30  1  0.11087562  0.84059425  0.25596070  1
  Na  Na31  1  0.33272550  0.39679354  0.20660154  1
  Na  Na32  1  0.49989219  0.06270283  0.28122079  1
  Na  Na33  1  0.72149329  0.61925267  0.23116827  1
  Na  Na34  1  0.33272512  0.89698877  0.20584077  1
  Na  Na35  1  0.11094768  0.34048474  0.25635772  1
  Na  Na36  1  0.72220125  0.11817193  0.23097708  1
  Na  Na37  1  0.49995458  0.56265172  0.28142430  1
  Na  Na38  1  0.61087553  0.84059422  0.25596070  1
  Na  Na39  1  0.83272586  0.39679362  0.20660145  1
  Na  Na40  1  -0.00010761  0.06270271  0.28122079  1
  Na  Na41  1  0.22149348  0.61925264  0.23116825  1
  Na  Na42  1  0.83272525  0.89698861  0.20584075  1
  Na  Na43  1  0.61094693  0.34048504  0.25635772  1
  Na  Na44  1  0.22220125  0.11817229  0.23097712  1
  Na  Na45  1  0.99995421  0.56265256  0.28142443  1
  Na  Na46  1  0.66702251  0.72803920  0.35634840  1
  Na  Na47  1  0.88893321  0.28465627  0.30636859  1
  Na  Na48  1  0.05586645  0.95054278  0.38096536  1
  Na  Na49  1  0.27780870  0.50656796  0.33155889  1
  Na  Na50  1  0.88874918  0.78498756  0.30613105  1
  Na  Na51  1  0.66687855  0.22907708  0.35655760  1
  Na  Na52  1  0.27786552  0.00676195  0.33120717  1
  Na  Na53  1  0.05608978  0.45030681  0.38166727  1
  Na  Na54  1  0.16702254  0.72803914  0.35634841  1
  Na  Na55  1  0.38893334  0.28465644  0.30636862  1
  Na  Na56  1  0.55586644  0.95054277  0.38096536  1
  Na  Na57  1  0.77780855  0.50656797  0.33155888  1
  Na  Na58  1  0.38874934  0.78498737  0.30613103  1
  Na  Na59  1  0.16687858  0.22907708  0.35655758  1
  Na  Na60  1  0.77786544  0.00676202  0.33120717  1
  Na  Na61  1  0.55609011  0.45030675  0.38166724  1
  Na  Na62  1  0.22335926  0.61596069  0.45703953  1
  Na  Na63  1  0.44506121  0.17280990  0.40643661  1
  Na  Na64  1  0.61200717  0.83848530  0.48133623  1
  Na  Na65  1  0.83418610  0.39463176  0.43236069  1
  Na  Na66  1  0.44475929  0.67251869  0.40632327  1
  Na  Na67  1  0.22343091  0.11617159  0.45621864  1
  Na  Na68  1  0.83443296  0.89371592  0.43095710  1
  Na  Na69  1  0.61209514  0.33914488  0.48231412  1
  Na  Na70  1  0.72335922  0.61596070  0.45703954  1
  Na  Na71  1  0.94506127  0.17280997  0.40643660  1
  Na  Na72  1  0.11200721  0.83848528  0.48133622  1
  Na  Na73  1  0.33418618  0.39463177  0.43236069  1
  Na  Na74  1  0.94475923  0.67251870  0.40632327  1
  Na  Na75  1  0.72343087  0.11617155  0.45621864  1
  Na  Na76  1  0.33443299  0.89371593  0.43095710  1
  Na  Na77  1  0.11209514  0.33914488  0.48231411  1
  Na  Na78  1  0.76813480  0.52693932  0.55759877  1
  Na  Na79  1  0.00228757  0.05815032  0.50529151  1
  Na  Na80  1  0.16339068  0.73629923  0.58070751  1
  Na  Na81  1  0.39542745  0.27231508  0.52904344  1
  Na  Na82  1  0.99979076  0.56372156  0.50772359  1
  Na  Na83  1  0.77877172  0.00533949  0.55480617  1
  Na  Na84  1  0.38818484  0.78662917  0.53074056  1
  Na  Na85  1  0.26813482  0.52693934  0.55759877  1
  Na  Na86  1  0.50228749  0.05815033  0.50529152  1
  Na  Na87  1  0.66339069  0.73629922  0.58070752  1
  Na  Na88  1  0.89542739  0.27231506  0.52904345  1
  Na  Na89  1  0.49979078  0.56372157  0.50772358  1
  Na  Na90  1  0.27877168  0.00533952  0.55480623  1
  Na  Na91  1  0.88818487  0.78662914  0.53074056  1
  S  S92  1  0.58112023  0.89950943  0.09062500  1
  S  S93  1  0.80689028  0.44801432  0.04372165  1
  S  S94  1  0.08112024  0.89950943  0.09062500  1
  S  S95  1  0.30689028  0.44801433  0.04372164  1
  S  S96  1  0.69271726  0.17666563  0.06873294  1
  S  S97  1  0.92120153  0.71992344  0.01906638  1
  S  S98  1  0.19271725  0.17666563  0.06873294  1
  S  S99  1  0.42120152  0.71992343  0.01906638  1
  S  S100  1  0.13803350  0.78643439  0.19311492  1
  S  S101  1  0.36026321  0.34186841  0.14437235  1
  S  S102  1  0.63803340  0.78643438  0.19311492  1
  S  S103  1  0.86026322  0.34186842  0.14437231  1
  S  S104  1  0.25000045  0.06238797  0.16804016  1
  S  S105  1  0.47124145  0.61997656  0.11911454  1
  S  S106  1  0.75000039  0.06238793  0.16804015  1
  S  S107  1  0.97124147  0.61997657  0.11911453  1
  S  S108  1  0.69461800  0.67370660  0.29379247  1
  S  S109  1  0.91668004  0.22915760  0.24374068  1
  S  S110  1  0.19461833  0.67370661  0.29379246  1
  S  S111  1  0.41668059  0.22915749  0.24374069  1
  S  S112  1  0.80531908  0.95168031  0.26855013  1
  S  S113  1  0.02701343  0.50814017  0.21904294  1
  S  S114  1  0.30531915  0.95168039  0.26855013  1
  S  S115  1  0.52701332  0.50814014  0.21904289  1
  S  S116  1  0.25058900  0.56076815  0.39439172  1
  S  S117  1  0.47224665  0.11814249  0.34380558  1
  S  S118  1  0.75058888  0.56076818  0.39439172  1
  S  S119  1  0.97224662  0.11814243  0.34380560  1
  S  S120  1  0.36142177  0.83926618  0.36846675  1
  S  S121  1  0.58314860  0.39567100  0.31898532  1
  S  S122  1  0.86142175  0.83926616  0.36846675  1
  S  S123  1  0.08314870  0.39567098  0.31898528  1
  S  S124  1  0.80794768  0.44773986  0.49685595  1
  S  S125  1  0.02922385  0.00494953  0.44317589  1
  S  S126  1  0.30794770  0.44773988  0.49685594  1
  S  S127  1  0.52922388  0.00494952  0.44317590  1
  S  S128  1  0.91773651  0.72710667  0.46835533  1
  S  S129  1  0.13915162  0.28458289  0.41946246  1
  S  S130  1  0.41773654  0.72710667  0.46835533  1
  S  S131  1  0.63915163  0.28458290  0.41946244  1
  S  S132  1  0.58181842  0.89947018  0.54382316  1
  S  S133  1  0.08181838  0.89947021  0.54382315  1
  S  S134  1  0.46789032  0.62742341  0.56827140  1
  S  S135  1  0.69617559  0.17058909  0.51874367  1
  S  S136  1  0.96789029  0.62742342  0.56827139  1
  S  S137  1  0.19617561  0.17058909  0.51874368  1
