# generated using pymatgen
data_Li2O
_symmetry_space_group_name_H-M   'P 1'
_cell_length_a   10.33322800
_cell_length_b   10.33322867
_cell_length_c   41.50477700
_cell_angle_alpha   90.00000000
_cell_angle_beta   90.00000000
_cell_angle_gamma   78.46303946
_symmetry_Int_Tables_number   1
_chemical_formula_structural   Li2O
_chemical_formula_sum   'Li224 O112'
_cell_volume   4342.15929009
_cell_formula_units_Z   112
loop_
 _symmetry_equiv_pos_site_id
 _symmetry_equiv_pos_as_xyz
  1  'x, y, z'
loop_
 _atom_site_type_symbol
 _atom_site_label
 _atom_site_symmetry_multiplicity
 _atom_site_fract_x
 _atom_site_fract_y
 _atom_site_fract_z
 _atom_site_occupancy
  Li  Li0  1  0.56319115  0.56319176  0.02518413  1
  Li  Li1  1  0.06319107  0.06319170  0.02518411  1
  Li  Li2  1  0.97448082  0.47448285  0.07570935  1
  Li  Li3  1  0.47448107  0.97448255  0.07570947  1
  Li  Li4  1  0.82050311  0.82050405  0.03368630  1
  Li  Li5  1  0.32050331  0.32050377  0.03368626  1
  Li  Li6  1  0.23331238  0.73331423  0.07600632  1
  Li  Li7  1  0.73331209  0.23331409  0.07600629  1
  Li  Li8  1  0.48331483  0.48331553  0.07600795  1
  Li  Li9  1  0.98331481  0.98331562  0.07600799  1
  Li  Li10  1  0.07050384  0.57050549  0.03368659  1
  Li  Li11  1  0.57050379  0.07050535  0.03368662  1
  Li  Li12  1  0.72448108  0.72448221  0.07571061  1
  Li  Li13  1  0.22448157  0.22448214  0.07571059  1
  Li  Li14  1  0.31334864  0.81334959  0.02521030  1
  Li  Li15  1  0.81334864  0.31334960  0.02521029  1
  Li  Li16  1  0.82739270  0.57740899  0.01086039  1
  Li  Li17  1  0.32739281  0.07740898  0.01086040  1
  Li  Li18  1  0.27549650  0.52549920  0.05367682  1
  Li  Li19  1  0.77549639  0.02549905  0.05367682  1
  Li  Li20  1  0.50578295  0.75575488  0.05637331  1
  Li  Li21  1  0.00578298  0.25575440  0.05637326  1
  Li  Li22  1  0.10353012  0.85348220  0.00852270  1
  Li  Li23  1  0.60353012  0.35348224  0.00852268  1
  Li  Li24  1  0.75575335  0.50578433  0.05637342  1
  Li  Li25  1  0.25575386  0.00578425  0.05637354  1
  Li  Li26  1  0.35348124  0.60353110  0.00852263  1
  Li  Li27  1  0.85348119  0.10353113  0.00852265  1
  Li  Li28  1  0.57740884  0.82739315  0.01086031  1
  Li  Li29  1  0.07740887  0.32739319  0.01086023  1
  Li  Li30  1  0.02549819  0.77549802  0.05367698  1
  Li  Li31  1  0.52549832  0.27549806  0.05367697  1
  Li  Li32  1  0.39644847  0.39644953  0.12215613  1
  Li  Li33  1  0.89644852  0.89644960  0.12215606  1
  Li  Li34  1  0.81187756  0.31187689  0.16924264  1
  Li  Li35  1  0.31187672  0.81187834  0.16924245  1
  Li  Li36  1  0.64591103  0.64591202  0.12357421  1
  Li  Li37  1  0.14591180  0.14591255  0.12357435  1
  Li  Li38  1  0.06238397  0.56238403  0.16832880  1
  Li  Li39  1  0.56238319  0.06238339  0.16832863  1
  Li  Li40  1  0.31238239  0.31238249  0.16833036  1
  Li  Li41  1  0.81238204  0.81238281  0.16833007  1
  Li  Li42  1  0.89591105  0.39591235  0.12357338  1
  Li  Li43  1  0.39591134  0.89591280  0.12357334  1
  Li  Li44  1  0.56187647  0.56187727  0.16924209  1
  Li  Li45  1  0.06187641  0.06187792  0.16924240  1
  Li  Li46  1  0.14652377  0.64652538  0.12217790  1
  Li  Li47  1  0.64652374  0.14652523  0.12217791  1
  Li  Li48  1  0.68586977  0.43587307  0.10241068  1
  Li  Li49  1  0.18587026  0.93587354  0.10241075  1
  Li  Li50  1  0.10345093  0.35345268  0.14584485  1
  Li  Li51  1  0.60345012  0.85345261  0.14584450  1
  Li  Li52  1  0.35245510  0.60243955  0.14631237  1
  Li  Li53  1  0.85245538  0.10244021  0.14631264  1
  Li  Li54  1  0.93700710  0.68698999  0.09982550  1
  Li  Li55  1  0.43700734  0.18698956  0.09982559  1
  Li  Li56  1  0.60243855  0.35245739  0.14631283  1
  Li  Li57  1  0.10243890  0.85245675  0.14631282  1
  Li  Li58  1  0.18698904  0.43700887  0.09982546  1
  Li  Li59  1  0.68698853  0.93700838  0.09982529  1
  Li  Li60  1  0.43587192  0.68587136  0.10241038  1
  Li  Li61  1  0.93587176  0.18587087  0.10241042  1
  Li  Li62  1  0.85345162  0.60345107  0.14584484  1
  Li  Li63  1  0.35345188  0.10345110  0.14584499  1
  Li  Li64  1  0.22791464  0.22791510  0.21458012  1
  Li  Li65  1  0.72791503  0.72791565  0.21457984  1
  Li  Li66  1  0.64419713  0.14420130  0.26057943  1
  Li  Li67  1  0.14420076  0.64419574  0.26057944  1
  Li  Li68  1  0.47750560  0.47750702  0.21475364  1
  Li  Li69  1  0.97750619  0.97750794  0.21475348  1
  Li  Li70  1  0.89413921  0.39414007  0.26057814  1
  Li  Li71  1  0.39413990  0.89413857  0.26057766  1
  Li  Li72  1  0.14414428  0.14414569  0.26057304  1
  Li  Li73  1  0.64414492  0.64414682  0.26057328  1
  Li  Li74  1  0.72750727  0.22750598  0.21475328  1
  Li  Li75  1  0.22750563  0.72750652  0.21475339  1
  Li  Li76  1  0.39420256  0.39420772  0.26057969  1
  Li  Li77  1  0.89420085  0.89420251  0.26057824  1
  Li  Li78  1  0.97792276  0.47792103  0.21457640  1
  Li  Li79  1  0.47792097  0.97792257  0.21457614  1
  Li  Li80  1  0.51944466  0.26944417  0.19182396  1
  Li  Li81  1  0.01944470  0.76944403  0.19182394  1
  Li  Li82  1  0.93615604  0.18616277  0.23764122  1
  Li  Li83  1  0.43615521  0.68616486  0.23764121  1
  Li  Li84  1  0.18623130  0.43623359  0.23761839  1
  Li  Li85  1  0.68623045  0.93623411  0.23761794  1
  Li  Li86  1  0.76974897  0.51974745  0.19186564  1
  Li  Li87  1  0.26974754  0.01974800  0.19186587  1
  Li  Li88  1  0.43623235  0.18623425  0.23761825  1
  Li  Li89  1  0.93623418  0.68623055  0.23761819  1
  Li  Li90  1  0.01974836  0.26974721  0.19186567  1
  Li  Li91  1  0.51974707  0.76974688  0.19186522  1
  Li  Li92  1  0.26944291  0.51944475  0.19182400  1
  Li  Li93  1  0.76944316  0.01944528  0.19182375  1
  Li  Li94  1  0.68616657  0.43615799  0.23764054  1
  Li  Li95  1  0.18616185  0.93615589  0.23764112  1
  Li  Li96  1  0.06103301  0.06103462  0.30649021  1
  Li  Li97  1  0.56102290  0.56102306  0.30649127  1
  Li  Li98  1  0.47858487  0.97858441  0.35254198  1
  Li  Li99  1  0.97858256  0.47858349  0.35254169  1
  Li  Li100  1  0.31089359  0.31088608  0.30645250  1
  Li  Li101  1  0.81088581  0.81088491  0.30644990  1
  Li  Li102  1  0.72883228  0.22871800  0.35262105  1
  Li  Li103  1  0.22882266  0.72872391  0.35262002  1
  Li  Li104  1  0.97878599  0.97878272  0.35261101  1
  Li  Li105  1  0.47872881  0.47884454  0.35261956  1
  Li  Li106  1  0.56088434  0.06089979  0.30645326  1
  Li  Li107  1  0.06088301  0.56088620  0.30645133  1
  Li  Li108  1  0.22858525  0.22858669  0.35254213  1
  Li  Li109  1  0.72858539  0.72858763  0.35254032  1
  Li  Li110  1  0.81103518  0.31103627  0.30648931  1
  Li  Li111  1  0.31103154  0.81103574  0.30648952  1
  Li  Li112  1  0.35278051  0.10278491  0.28346001  1
  Li  Li113  1  0.85277750  0.60278453  0.28346064  1
  Li  Li114  1  0.76986577  0.01985778  0.32936110  1
  Li  Li115  1  0.26986250  0.51986641  0.32935965  1
  Li  Li116  1  0.01987207  0.26987241  0.32937327  1
  Li  Li117  1  0.51986922  0.76987034  0.32937250  1
  Li  Li118  1  0.60293638  0.35293068  0.28348241  1
  Li  Li119  1  0.10292324  0.85292723  0.28348595  1
  Li  Li120  1  0.26987152  0.01987200  0.32937347  1
  Li  Li121  1  0.76986640  0.51986887  0.32937295  1
  Li  Li122  1  0.85292735  0.10292706  0.28348563  1
  Li  Li123  1  0.35292360  0.60293126  0.28348487  1
  Li  Li124  1  0.10278580  0.35278059  0.28346073  1
  Li  Li125  1  0.60278425  0.85278292  0.28346067  1
  Li  Li126  1  0.51985692  0.26987062  0.32936447  1
  Li  Li127  1  0.01986538  0.76986580  0.32936287  1
  Li  Li128  1  0.89607631  0.89607434  0.39846917  1
  Li  Li129  1  0.39607822  0.39607118  0.39846994  1
  Li  Li130  1  0.31273714  0.81273238  0.44438045  1
  Li  Li131  1  0.81273635  0.31273308  0.44438067  1
  Li  Li132  1  0.14592096  0.14592084  0.39854384  1
  Li  Li133  1  0.64592572  0.64592492  0.39854062  1
  Li  Li134  1  0.56375289  0.06375181  0.44433577  1
  Li  Li135  1  0.06375194  0.56374948  0.44433631  1
  Li  Li136  1  0.81394053  0.81395030  0.44430837  1
  Li  Li137  1  0.31393952  0.31395044  0.44430828  1
  Li  Li138  1  0.39592213  0.89592578  0.39854192  1
  Li  Li139  1  0.89592143  0.39592464  0.39854180  1
  Li  Li140  1  0.06273024  0.06273782  0.44438182  1
  Li  Li141  1  0.56266044  0.56282148  0.44437111  1
  Li  Li142  1  0.64605513  0.14606752  0.39847871  1
  Li  Li143  1  0.14605533  0.64606354  0.39847847  1
  Li  Li144  1  0.18726080  0.93725669  0.37546090  1
  Li  Li145  1  0.68725292  0.43726335  0.37545999  1
  Li  Li146  1  0.60516466  0.85514350  0.42158916  1
  Li  Li147  1  0.10516438  0.35514102  0.42158966  1
  Li  Li148  1  0.85425152  0.10425379  0.42184269  1
  Li  Li149  1  0.35423889  0.60425453  0.42184176  1
  Li  Li150  1  0.43708625  0.18708333  0.37534405  1
  Li  Li151  1  0.93707919  0.68707243  0.37534750  1
  Li  Li152  1  0.10425447  0.85425565  0.42184061  1
  Li  Li153  1  0.60425288  0.35426520  0.42184192  1
  Li  Li154  1  0.68707137  0.93707934  0.37534777  1
  Li  Li155  1  0.18707353  0.43707738  0.37534706  1
  Li  Li156  1  0.93726693  0.18726054  0.37546228  1
  Li  Li157  1  0.43726872  0.68727016  0.37546294  1
  Li  Li158  1  0.35514507  0.10516926  0.42158822  1
  Li  Li159  1  0.85514250  0.60516717  0.42158946  1
  Li  Li160  1  0.73125608  0.73124954  0.48979030  1
  Li  Li161  1  0.23125543  0.23124992  0.48978985  1
  Li  Li162  1  0.14713821  0.64712870  0.53739910  1
  Li  Li163  1  0.64713794  0.14712861  0.53739904  1
  Li  Li164  1  0.98071190  0.98025879  0.49128961  1
  Li  Li165  1  0.48071643  0.48026056  0.49128827  1
  Li  Li166  1  0.39908392  0.89853321  0.53393421  1
  Li  Li167  1  0.89908403  0.39853366  0.53393423  1
  Li  Li168  1  0.64853196  0.64907231  0.53394000  1
  Li  Li169  1  0.14853249  0.14907136  0.53393980  1
  Li  Li170  1  0.23026599  0.73067825  0.49129301  1
  Li  Li171  1  0.73026456  0.23067902  0.49129308  1
  Li  Li172  1  0.89712314  0.89712592  0.53739578  1
  Li  Li173  1  0.39712295  0.39712578  0.53739569  1
  Li  Li174  1  0.48124231  0.98125257  0.48979734  1
  Li  Li175  1  0.98123996  0.48124964  0.48979713  1
  Li  Li176  1  0.02126538  0.77116663  0.46819170  1
  Li  Li177  1  0.52126526  0.27116755  0.46819137  1
  Li  Li178  1  0.43804159  0.68805323  0.51304692  1
  Li  Li179  1  0.93804094  0.18805450  0.51304684  1
  Li  Li180  1  0.68811431  0.93810864  0.51448621  1
  Li  Li181  1  0.18811356  0.43810779  0.51448610  1
  Li  Li182  1  0.27085734  0.02086043  0.46705333  1
  Li  Li183  1  0.77084341  0.52086182  0.46705287  1
  Li  Li184  1  0.93807340  0.68807565  0.51450588  1
  Li  Li185  1  0.43807382  0.18807560  0.51450586  1
  Li  Li186  1  0.52086009  0.77086653  0.46706424  1
  Li  Li187  1  0.02086061  0.27085891  0.46706300  1
  Li  Li188  1  0.77119970  0.02131612  0.46819878  1
  Li  Li189  1  0.27120026  0.52131416  0.46819911  1
  Li  Li190  1  0.18877472  0.93875488  0.51320148  1
  Li  Li191  1  0.68877375  0.43875595  0.51320153  1
  Li  Li192  1  0.57984829  0.57983690  0.58026026  1
  Li  Li193  1  0.07984854  0.07983639  0.58026014  1
  Li  Li194  1  0.98087318  0.48088925  0.62768181  1
  Li  Li195  1  0.48087329  0.98088920  0.62768184  1
  Li  Li196  1  0.80857250  0.80854103  0.58255984  1
  Li  Li197  1  0.30857220  0.30854097  0.58255981  1
  Li  Li198  1  0.25779694  0.75780421  0.62572012  1
  Li  Li199  1  0.75779683  0.25780416  0.62572013  1
  Li  Li200  1  0.50778101  0.50778250  0.62573009  1
  Li  Li201  1  0.00778108  0.00778240  0.62573006  1
  Li  Li202  1  0.05853794  0.55856783  0.58255864  1
  Li  Li203  1  0.55853793  0.05856762  0.58255869  1
  Li  Li204  1  0.73088426  0.73088065  0.62768347  1
  Li  Li205  1  0.23088426  0.23088063  0.62768344  1
  Li  Li206  1  0.32986361  0.82976196  0.58018779  1
  Li  Li207  1  0.82986411  0.32976180  0.58018777  1
  Li  Li208  1  0.85125086  0.60125206  0.56038250  1
  Li  Li209  1  0.35125041  0.10125166  0.56038248  1
  Li  Li210  1  0.26318409  0.51318891  0.60292022  1
  Li  Li211  1  0.76318445  0.01318871  0.60292019  1
  Li  Li212  1  0.52237858  0.77238758  0.61075161  1
  Li  Li213  1  0.02237883  0.27238761  0.61075165  1
  Li  Li214  1  0.11052434  0.86054277  0.56124051  1
  Li  Li215  1  0.61052391  0.36054298  0.56124046  1
  Li  Li216  1  0.77237438  0.52237898  0.61074117  1
  Li  Li217  1  0.27237429  0.02237904  0.61074117  1
  Li  Li218  1  0.36049902  0.61045818  0.56128738  1
  Li  Li219  1  0.86049916  0.11045792  0.56128734  1
  Li  Li220  1  0.60136013  0.85135121  0.56040977  1
  Li  Li221  1  0.10136019  0.35135107  0.56040964  1
  Li  Li222  1  0.01319643  0.76319631  0.60291811  1
  Li  Li223  1  0.51319656  0.26319632  0.60291812  1
  O  O224  1  0.47031978  0.72029912  0.01276991  1
  O  O225  1  0.97031976  0.22029912  0.01276999  1
  O  O226  1  0.89443142  0.64443467  0.04985323  1
  O  O227  1  0.39443083  0.14443506  0.04985338  1
  O  O228  1  0.43560958  0.43561034  0.03112338  1
  O  O229  1  0.93560972  0.93561054  0.03112340  1
  O  O230  1  0.85386967  0.35387337  0.08000459  1
  O  O231  1  0.35386965  0.85387323  0.08000459  1
  O  O232  1  0.72029777  0.47032110  0.01277026  1
  O  O233  1  0.22029758  0.97032115  0.01277033  1
  O  O234  1  0.14443248  0.39443267  0.04985299  1
  O  O235  1  0.64443262  0.89443317  0.04985294  1
  O  O236  1  0.60386451  0.60386484  0.08001173  1
  O  O237  1  0.10386465  0.10386604  0.08001189  1
  O  O238  1  0.18561519  0.68561708  0.03112933  1
  O  O239  1  0.68561514  0.18561706  0.03112933  1
  O  O240  1  0.31163630  0.56163826  0.09984570  1
  O  O241  1  0.81163714  0.06163779  0.09984590  1
  O  O242  1  0.72870444  0.47869935  0.14694924  1
  O  O243  1  0.22869204  0.97869250  0.14694770  1
  O  O244  1  0.27071204  0.27071306  0.12197120  1
  O  O245  1  0.77071404  0.77071362  0.12196941  1
  O  O246  1  0.68642166  0.18642181  0.16882795  1
  O  O247  1  0.18642119  0.68642161  0.16882785  1
  O  O248  1  0.56163826  0.31163507  0.09984438  1
  O  O249  1  0.06163652  0.81164067  0.09984666  1
  O  O250  1  0.97870705  0.22871266  0.14694847  1
  O  O251  1  0.47870628  0.72871125  0.14694841  1
  O  O252  1  0.43641275  0.43641590  0.16882824  1
  O  O253  1  0.93641278  0.93641595  0.16882799  1
  O  O254  1  0.02071638  0.52071865  0.12197139  1
  O  O255  1  0.52071309  0.02071517  0.12197038  1
  O  O256  1  0.14510717  0.39510821  0.19148820  1
  O  O257  1  0.64510383  0.89510596  0.19148507  1
  O  O258  1  0.56109539  0.31110053  0.23764981  1
  O  O259  1  0.06109279  0.81109245  0.23764898  1
  O  O260  1  0.10298657  0.10298619  0.21496095  1
  O  O261  1  0.60297880  0.60297810  0.21496088  1
  O  O262  1  0.51950335  0.01951132  0.26053397  1
  O  O263  1  0.01950427  0.51950572  0.26053476  1
  O  O264  1  0.39511052  0.14510711  0.19148946  1
  O  O265  1  0.89511037  0.64510399  0.19148841  1
  O  O266  1  0.81108935  0.06109267  0.23764871  1
  O  O267  1  0.31109266  0.56109381  0.23765036  1
  O  O268  1  0.26950514  0.26950535  0.26053553  1
  O  O269  1  0.76950299  0.76950276  0.26053392  1
  O  O270  1  0.85298355  0.35298705  0.21496079  1
  O  O271  1  0.35297782  0.85297983  0.21496065  1
  O  O272  1  0.97794408  0.22792991  0.28358520  1
  O  O273  1  0.47793962  0.72795087  0.28358646  1
  O  O274  1  0.39501358  0.14501474  0.32945861  1
  O  O275  1  0.89499479  0.64500091  0.32946143  1
  O  O276  1  0.93631435  0.93631634  0.30651949  1
  O  O277  1  0.43632153  0.43634647  0.30651841  1
  O  O278  1  0.35366366  0.85366005  0.35246308  1
  O  O279  1  0.85366876  0.35365573  0.35246350  1
  O  O280  1  0.22792814  0.97794021  0.28358549  1
  O  O281  1  0.72794453  0.47794418  0.28358780  1
  O  O282  1  0.64500163  0.89500157  0.32946108  1
  O  O283  1  0.14499681  0.39499431  0.32945925  1
  O  O284  1  0.10367137  0.10366778  0.35246104  1
  O  O285  1  0.60364891  0.60367438  0.35246214  1
  O  O286  1  0.68632314  0.18632268  0.30651847  1
  O  O287  1  0.18631945  0.68631032  0.30652394  1
  O  O288  1  0.81225101  0.06224737  0.37560326  1
  O  O289  1  0.31225243  0.56225623  0.37560426  1
  O  O290  1  0.22942415  0.97942973  0.42130936  1
  O  O291  1  0.72941193  0.47944729  0.42130890  1
  O  O292  1  0.77121801  0.77122152  0.39853422  1
  O  O293  1  0.27121301  0.27121757  0.39853228  1
  O  O294  1  0.18802396  0.68804994  0.44504475  1
  O  O295  1  0.68802531  0.18805253  0.44504474  1
  O  O296  1  0.06226212  0.81224701  0.37560046  1
  O  O297  1  0.56225544  0.31227531  0.37560157  1
  O  O298  1  0.47941252  0.72943608  0.42131253  1
  O  O299  1  0.97942191  0.22941950  0.42131097  1
  O  O300  1  0.93806056  0.93804447  0.44504437  1
  O  O301  1  0.43806660  0.43804480  0.44504241  1
  O  O302  1  0.52119169  0.02118879  0.39853483  1
  O  O303  1  0.02118991  0.52118920  0.39853587  1
  O  O304  1  0.64709189  0.89710443  0.46752562  1
  O  O305  1  0.14709886  0.39711445  0.46752572  1
  O  O306  1  0.06372586  0.81370787  0.51499819  1
  O  O307  1  0.56372360  0.31370692  0.51499857  1
  O  O308  1  0.60514194  0.60513242  0.48954582  1
  O  O309  1  0.10513061  0.10513497  0.48954965  1
  O  O310  1  0.02283906  0.52279562  0.53671738  1
  O  O311  1  0.52283709  0.02279471  0.53671716  1
  O  O312  1  0.89709523  0.64709572  0.46752900  1
  O  O313  1  0.39709765  0.14709253  0.46752853  1
  O  O314  1  0.31362100  0.56361481  0.51497207  1
  O  O315  1  0.81361922  0.06360888  0.51497341  1
  O  O316  1  0.77281305  0.77284616  0.53671806  1
  O  O317  1  0.27281181  0.27284400  0.53671759  1
  O  O318  1  0.35515469  0.85513589  0.48954705  1
  O  O319  1  0.85515247  0.35513618  0.48954776  1
  O  O320  1  0.48113698  0.73108519  0.55657573  1
  O  O321  1  0.98113483  0.23108307  0.55657756  1
  O  O322  1  0.89864756  0.64865178  0.60513938  1
  O  O323  1  0.39864772  0.14865190  0.60513926  1
  O  O324  1  0.44007091  0.44008512  0.58695570  1
  O  O325  1  0.94007169  0.94008506  0.58695541  1
  O  O326  1  0.86490545  0.36487893  0.62357890  1
  O  O327  1  0.36490539  0.86487917  0.62357909  1
  O  O328  1  0.73119907  0.48119642  0.55661125  1
  O  O329  1  0.23119964  0.98119534  0.55661091  1
  O  O330  1  0.14864321  0.39865584  0.60514024  1
  O  O331  1  0.64864333  0.89865616  0.60514032  1
  O  O332  1  0.61486544  0.61487816  0.62359694  1
  O  O333  1  0.11486522  0.11487828  0.62359689  1
  O  O334  1  0.19006499  0.69006144  0.58694081  1
  O  O335  1  0.69006548  0.19006121  0.58694082  1
