# generated using pymatgen
data_Li2O
_symmetry_space_group_name_H-M   'P 1'
_cell_length_a   6.53530700
_cell_length_b   6.53530735
_cell_length_c   42.68845000
_cell_angle_alpha   90.00000000
_cell_angle_beta   90.00000000
_cell_angle_gamma   59.99999671
_symmetry_Int_Tables_number   1
_chemical_formula_structural   Li2O
_chemical_formula_sum   'Li80 O40'
_cell_volume   1578.96685636
_cell_formula_units_Z   40
loop_
 _symmetry_equiv_pos_site_id
 _symmetry_equiv_pos_as_xyz
  1  'x, y, z'
loop_
 _atom_site_type_symbol
 _atom_site_label
 _atom_site_symmetry_multiplicity
 _atom_site_fract_x
 _atom_site_fract_y
 _atom_site_fract_z
 _atom_site_occupancy
  Li  Li0  1  0.99995295  0.99995275  0.04710630  1
  Li  Li1  1  0.66660876  0.66660855  0.01673421  1
  Li  Li2  1  0.16660876  0.16660855  0.01673421  1
  Li  Li3  1  0.49995294  0.49995276  0.04710630  1
  Li  Li4  1  0.49994862  0.99994844  0.04710628  1
  Li  Li5  1  0.16660752  0.66660730  0.01673372  1
  Li  Li6  1  0.66660751  0.16660730  0.01673372  1
  Li  Li7  1  0.99994863  0.49994844  0.04710627  1
  Li  Li8  1  0.66663509  0.66663496  0.10970878  1
  Li  Li9  1  0.33329522  0.33329497  0.07879845  1
  Li  Li10  1  0.83329517  0.83329501  0.07879845  1
  Li  Li11  1  0.16663515  0.16663490  0.10970878  1
  Li  Li12  1  0.16664293  0.66664274  0.10970902  1
  Li  Li13  1  0.83330076  0.33330054  0.07879799  1
  Li  Li14  1  0.33330076  0.83330057  0.07879799  1
  Li  Li15  1  0.66664294  0.16664276  0.10970902  1
  Li  Li16  1  0.33329961  0.33329931  0.17221765  1
  Li  Li17  1  0.99996740  0.99996716  0.14132389  1
  Li  Li18  1  0.49996736  0.49996721  0.14132389  1
  Li  Li19  1  0.83329951  0.83329942  0.17221766  1
  Li  Li20  1  0.83329074  0.33329054  0.17221173  1
  Li  Li21  1  0.49997688  0.99997669  0.14132388  1
  Li  Li22  1  0.99997690  0.49997670  0.14132392  1
  Li  Li23  1  0.33329079  0.83329061  0.17221178  1
  Li  Li24  1  0.00000072  0.00000039  0.23468505  1
  Li  Li25  1  0.66661253  0.66661283  0.20378951  1
  Li  Li26  1  0.16661302  0.16661234  0.20378951  1
  Li  Li27  1  0.50000057  0.50000053  0.23468505  1
  Li  Li28  1  0.49984747  0.99984727  0.23463872  1
  Li  Li29  1  0.16666364  0.66666345  0.20380470  1
  Li  Li30  1  0.66666348  0.16666326  0.20380468  1
  Li  Li31  1  0.99984733  0.49984715  0.23463873  1
  Li  Li32  1  0.66668707  0.66668713  0.29706230  1
  Li  Li33  1  0.33260944  0.33260933  0.26591876  1
  Li  Li34  1  0.83260953  0.83260924  0.26591876  1
  Li  Li35  1  0.16668731  0.16668687  0.29706229  1
  Li  Li36  1  0.16657684  0.66657665  0.29701018  1
  Li  Li37  1  0.83327140  0.33327119  0.26624381  1
  Li  Li38  1  0.33327161  0.83327140  0.26624383  1
  Li  Li39  1  0.66657673  0.16657655  0.29701008  1
  Li  Li40  1  0.33410195  0.33410252  0.35907579  1
  Li  Li41  1  0.00010893  0.00010783  0.32798850  1
  Li  Li42  1  0.50010805  0.50010878  0.32798849  1
  Li  Li43  1  0.83410269  0.83410177  0.35907581  1
  Li  Li44  1  0.83412371  0.33412351  0.35906316  1
  Li  Li45  1  0.50023851  0.00023829  0.32800259  1
  Li  Li46  1  0.00023860  0.50023845  0.32800274  1
  Li  Li47  1  0.33412346  0.83412330  0.35906348  1
  Li  Li48  1  0.00002294  0.00001617  0.42119491  1
  Li  Li49  1  0.66677521  0.66677861  0.39034017  1
  Li  Li50  1  0.16677863  0.16677483  0.39034013  1
  Li  Li51  1  0.50001597  0.50002332  0.42119493  1
  Li  Li52  1  0.50001294  0.00001216  0.42119244  1
  Li  Li53  1  0.16675650  0.66675683  0.39034938  1
  Li  Li54  1  0.66675615  0.16675550  0.39034861  1
  Li  Li55  1  0.00001408  0.50001450  0.42119259  1
  Li  Li56  1  0.66663988  0.66664929  0.48366132  1
  Li  Li57  1  0.33332405  0.33332625  0.45277797  1
  Li  Li58  1  0.83332695  0.83332519  0.45277804  1
  Li  Li59  1  0.16664744  0.16663964  0.48366120  1
  Li  Li60  1  0.16664361  0.66664904  0.48366152  1
  Li  Li61  1  0.83332242  0.33332333  0.45277846  1
  Li  Li62  1  0.33332299  0.83332435  0.45277871  1
  Li  Li63  1  0.66664571  0.16664205  0.48366105  1
  Li  Li64  1  0.33329778  0.33329687  0.54617878  1
  Li  Li65  1  0.99997949  0.99996847  0.51527181  1
  Li  Li66  1  0.49996778  0.49997889  0.51527202  1
  Li  Li67  1  0.83329715  0.83329729  0.54617897  1
  Li  Li68  1  0.83330018  0.33329762  0.54617842  1
  Li  Li69  1  0.49997499  0.99997225  0.51527172  1
  Li  Li70  1  0.99997134  0.49997759  0.51527232  1
  Li  Li71  1  0.33329450  0.83330066  0.54617840  1
  Li  Li72  1  0.99994240  0.99993684  0.60822492  1
  Li  Li73  1  0.66661658  0.66662298  0.57786043  1
  Li  Li74  1  0.16662158  0.16661595  0.57786029  1
  Li  Li75  1  0.49993823  0.49994326  0.60822508  1
  Li  Li76  1  0.49993924  0.99993782  0.60822464  1
  Li  Li77  1  0.16661604  0.66662071  0.57786089  1
  Li  Li78  1  0.66661931  0.16661417  0.57786077  1
  Li  Li79  1  0.99994055  0.49994174  0.60822527  1
  O  O80  1  0.83319455  0.33319413  0.03131362  1
  O  O81  1  0.83319525  0.83319479  0.03131244  1
  O  O82  1  0.33319455  0.83319412  0.03131361  1
  O  O83  1  0.33319522  0.33319483  0.03131244  1
  O  O84  1  0.49996941  0.99996897  0.09422544  1
  O  O85  1  0.49996851  0.49996823  0.09422347  1
  O  O86  1  0.99996946  0.49996903  0.09422549  1
  O  O87  1  0.99996867  0.99996807  0.09422347  1
  O  O88  1  0.16664189  0.66664147  0.15673512  1
  O  O89  1  0.16662877  0.16662788  0.15672323  1
  O  O90  1  0.66664176  0.16664131  0.15673488  1
  O  O91  1  0.66662832  0.66662835  0.15672323  1
  O  O92  1  0.83321687  0.33321642  0.21919607  1
  O  O93  1  0.83316926  0.83316917  0.21915501  1
  O  O94  1  0.33321743  0.83321698  0.21919648  1
  O  O95  1  0.33316959  0.33316882  0.21915501  1
  O  O96  1  0.49993184  0.99993142  0.28143318  1
  O  O97  1  0.49989115  0.49989057  0.28145796  1
  O  O98  1  0.99993119  0.49993073  0.28143270  1
  O  O99  1  0.99989099  0.99989073  0.28145797  1
  O  O100  1  0.16701252  0.66701202  0.34360613  1
  O  O101  1  0.16706444  0.16706322  0.34360826  1
  O  O102  1  0.66701247  0.16701221  0.34360624  1
  O  O103  1  0.66706361  0.66706398  0.34360824  1
  O  O104  1  0.83346597  0.33346583  0.40584155  1
  O  O105  1  0.83348166  0.83348410  0.40584205  1
  O  O106  1  0.33346872  0.83346849  0.40584261  1
  O  O107  1  0.33348449  0.33348124  0.40584202  1
  O  O108  1  0.49998204  0.99998343  0.46825223  1
  O  O109  1  0.50000455  0.49997384  0.46825083  1
  O  O110  1  0.99998066  0.49998080  0.46825100  1
  O  O111  1  0.99997119  0.00000442  0.46825037  1
  O  O112  1  0.16661127  0.66665385  0.53075127  1
  O  O113  1  0.16663931  0.16663385  0.53074993  1
  O  O114  1  0.66663719  0.16664642  0.53075083  1
  O  O115  1  0.66664856  0.66660866  0.53075210  1
  O  O116  1  0.83319742  0.33319867  0.59361972  1
  O  O117  1  0.83320158  0.83319787  0.59361965  1
  O  O118  1  0.33320076  0.83319948  0.59361828  1
  O  O119  1  0.33319685  0.33319927  0.59361934  1
