# generated using pymatgen
data_Li2O
_symmetry_space_group_name_H-M   'P 1'
_cell_length_a   4.62116000
_cell_length_b   10.33322800
_cell_length_c   45.46620500
_cell_angle_alpha   90.00000000
_cell_angle_beta   90.00000000
_cell_angle_gamma   90.00000000
_symmetry_Int_Tables_number   1
_chemical_formula_structural   Li2O
_chemical_formula_sum   'Li108 O54'
_cell_volume   2171.07948371
_cell_formula_units_Z   54
loop_
 _symmetry_equiv_pos_site_id
 _symmetry_equiv_pos_as_xyz
  1  'x, y, z'
loop_
 _atom_site_type_symbol
 _atom_site_label
 _atom_site_symmetry_multiplicity
 _atom_site_fract_x
 _atom_site_fract_y
 _atom_site_fract_z
 _atom_site_occupancy
  Li  Li0  1  0.73704144  0.77457887  0.04584439  1
  Li  Li1  1  0.25775585  0.06472107  0.03126515  1
  Li  Li2  1  0.23503351  0.46173674  0.07495704  1
  Li  Li3  1  0.76279112  0.27441028  0.04584570  1
  Li  Li4  1  0.26497429  0.96176131  0.07495594  1
  Li  Li5  1  0.24226512  0.56471173  0.03126746  1
  Li  Li6  1  0.79895527  0.06399985  0.02992724  1
  Li  Li7  1  0.73758156  0.45967522  0.07472002  1
  Li  Li8  1  0.30247760  0.32061217  0.00872498  1
  Li  Li9  1  0.24484870  0.76038403  0.05427640  1
  Li  Li10  1  0.76238770  0.95969218  0.07473728  1
  Li  Li11  1  0.70111469  0.56413752  0.02990534  1
  Li  Li12  1  0.25510300  0.26038141  0.05427343  1
  Li  Li13  1  0.19750398  0.82062072  0.00872403  1
  Li  Li14  1  0.75263491  0.16587661  0.09522621  1
  Li  Li15  1  0.74928717  0.56478295  0.14206557  1
  Li  Li16  1  0.25093881  0.86308433  0.12009641  1
  Li  Li17  1  0.24930712  0.26448994  0.16551621  1
  Li  Li18  1  0.75087586  0.06475465  0.14200273  1
  Li  Li19  1  0.74734987  0.66584702  0.09522896  1
  Li  Li20  1  0.25094343  0.76435859  0.16542704  1
  Li  Li21  1  0.24905109  0.36307359  0.12011016  1
  Li  Li22  1  0.75071630  0.86257600  0.12004535  1
  Li  Li23  1  0.74926483  0.26285421  0.16508241  1
  Li  Li24  1  0.25024304  0.16150599  0.09805867  1
  Li  Li25  1  0.24885579  0.56404420  0.14282620  1
  Li  Li26  1  0.75067471  0.76292642  0.16509368  1
  Li  Li27  1  0.74923492  0.36270648  0.12004911  1
  Li  Li28  1  0.25101766  0.06409365  0.14280630  1
  Li  Li29  1  0.24987245  0.66132945  0.09803455  1
  Li  Li30  1  0.75021215  0.96283435  0.18773871  1
  Li  Li31  1  0.74982792  0.36401388  0.23307584  1
  Li  Li32  1  0.25003585  0.66232385  0.21046781  1
  Li  Li33  1  0.24955148  0.06421731  0.25584999  1
  Li  Li34  1  0.75016159  0.86401489  0.23307148  1
  Li  Li35  1  0.74968813  0.46280499  0.18774353  1
  Li  Li36  1  0.25013346  0.56421444  0.25588172  1
  Li  Li37  1  0.24996493  0.16225402  0.21046629  1
  Li  Li38  1  0.74998536  0.66270379  0.21048415  1
  Li  Li39  1  0.75003176  0.06425464  0.25588661  1
  Li  Li40  1  0.25020194  0.96275494  0.18790134  1
  Li  Li41  1  0.24951116  0.36300579  0.23330960  1
  Li  Li42  1  0.74985731  0.56425485  0.25588948  1
  Li  Li43  1  0.75001128  0.16269770  0.21048329  1
  Li  Li44  1  0.25049606  0.86301884  0.23330077  1
  Li  Li45  1  0.24943088  0.46290880  0.18798964  1
  Li  Li46  1  0.75043831  0.76310008  0.27836411  1
  Li  Li47  1  0.74999907  0.16225826  0.32370165  1
  Li  Li48  1  0.25021334  0.46218287  0.30115187  1
  Li  Li49  1  0.24964121  0.86294969  0.34658195  1
  Li  Li50  1  0.75000724  0.66225320  0.32370033  1
  Li  Li51  1  0.74955693  0.26309478  0.27836370  1
  Li  Li52  1  0.25032415  0.36294689  0.34658306  1
  Li  Li53  1  0.24995253  0.96220880  0.30115411  1
  Li  Li54  1  0.74997515  0.46212949  0.30116610  1
  Li  Li55  1  0.75016447  0.86295283  0.34656353  1
  Li  Li56  1  0.25051791  0.76301694  0.27839840  1
  Li  Li57  1  0.25001040  0.16224423  0.32371001  1
  Li  Li58  1  0.74968746  0.36295354  0.34657490  1
  Li  Li59  1  0.75006952  0.96220952  0.30115234  1
  Li  Li60  1  0.24999197  0.66224489  0.32370885  1
  Li  Li61  1  0.24948597  0.26300136  0.27839842  1
  Li  Li62  1  0.74997110  0.56414642  0.36910439  1
  Li  Li63  1  0.75024357  0.96202625  0.41445202  1
  Li  Li64  1  0.25040815  0.26280186  0.39176995  1
  Li  Li65  1  0.24997458  0.66121308  0.43742568  1
  Li  Li66  1  0.74999306  0.46205049  0.41445939  1
  Li  Li67  1  0.75001599  0.06414494  0.36910271  1
  Li  Li68  1  0.25021443  0.16102658  0.43741689  1
  Li  Li69  1  0.24960942  0.76279556  0.39176711  1
  Li  Li70  1  0.75046024  0.26292839  0.39168984  1
  Li  Li71  1  0.74985391  0.66216422  0.43696917  1
  Li  Li72  1  0.24954806  0.56417022  0.36913686  1
  Li  Li73  1  0.25032152  0.96204081  0.41445392  1
  Li  Li74  1  0.75021046  0.16215585  0.43697119  1
  Li  Li75  1  0.74955334  0.76292798  0.39168768  1
  Li  Li76  1  0.24976460  0.46206645  0.41445535  1
  Li  Li77  1  0.25043627  0.06416779  0.36913870  1
  Li  Li78  1  0.75080862  0.36250142  0.45987355  1
  Li  Li79  1  0.74779225  0.76156543  0.50484355  1
  Li  Li80  1  0.25332079  0.06032004  0.48339762  1
  Li  Li81  1  0.24377527  0.45834968  0.53013326  1
  Li  Li82  1  0.75221196  0.26157603  0.50484259  1
  Li  Li83  1  0.74921406  0.86251238  0.45987487  1
  Li  Li84  1  0.25622122  0.95836130  0.53013320  1
  Li  Li85  1  0.24691250  0.56037547  0.48340116  1
  Li  Li86  1  0.75293138  0.06379119  0.48216698  1
  Li  Li87  1  0.74724089  0.46255830  0.52678567  1
  Li  Li88  1  0.25073160  0.36244272  0.45985364  1
  Li  Li89  1  0.24903961  0.76287803  0.50490858  1
  Li  Li90  1  0.75275796  0.96255766  0.52679009  1
  Li  Li91  1  0.74736135  0.56377375  0.48214478  1
  Li  Li92  1  0.25096705  0.26287172  0.50490873  1
  Li  Li93  1  0.24929433  0.86245696  0.45985619  1
  Li  Li94  1  0.76485073  0.16126831  0.55000888  1
  Li  Li95  1  0.74273493  0.55910163  0.59376515  1
  Li  Li96  1  0.26111864  0.84808365  0.57955166  1
  Li  Li97  1  0.75723444  0.05905684  0.59377083  1
  Li  Li98  1  0.73495235  0.66122685  0.54999407  1
  Li  Li99  1  0.23862552  0.34801722  0.57956003  1
  Li  Li100  1  0.75428408  0.86317960  0.57069407  1
  Li  Li101  1  0.69952737  0.30204612  0.61636246  1
  Li  Li102  1  0.26147283  0.16539340  0.55017876  1
  Li  Li103  1  0.19976998  0.55911758  0.59479633  1
  Li  Li104  1  0.80045173  0.80204754  0.61635089  1
  Li  Li105  1  0.74562184  0.36319340  0.57069932  1
  Li  Li106  1  0.30014719  0.05913261  0.59480815  1
  Li  Li107  1  0.23849223  0.66541250  0.55017498  1
  O  O108  1  0.47704241  0.41395371  0.03996005  1
  O  O109  1  0.50084568  0.81386385  0.08619957  1
  O  O110  1  0.99917773  0.31385018  0.08620464  1
  O  O111  1  0.02302349  0.91394895  0.03996374  1
  O  O112  1  0.03916463  0.20273571  0.01996608  1
  O  O113  1  0.98328410  0.60896082  0.06193878  1
  O  O114  1  0.51680525  0.10897009  0.06193106  1
  O  O115  1  0.46080109  0.70278377  0.01996954  1
  O  O116  1  0.49969600  0.21307850  0.13099633  1
  O  O117  1  0.49979766  0.61334533  0.17648683  1
  O  O118  1  0.00016125  0.11334578  0.17647661  1
  O  O119  1  0.00031361  0.71306067  0.13100020  1
  O  O120  1  0.00512287  0.01310947  0.10841755  1
  O  O121  1  0.99906572  0.41327713  0.15398616  1
  O  O122  1  0.50091736  0.91326073  0.15395798  1
  O  O123  1  0.49493192  0.51309905  0.10842898  1
  O  O124  1  0.50002867  0.01324677  0.22184922  1
  O  O125  1  0.49986217  0.41299911  0.26715403  1
  O  O126  1  0.00012188  0.91300286  0.26714746  1
  O  O127  1  0.99992989  0.51326342  0.22186641  1
  O  O128  1  0.00045048  0.81317965  0.19915022  1
  O  O129  1  0.99986549  0.21304857  0.24444639  1
  O  O130  1  0.50011663  0.71304800  0.24444807  1
  O  O131  1  0.49951038  0.31318299  0.19917242  1
  O  O132  1  0.50009657  0.81271166  0.31243551  1
  O  O133  1  0.50012444  0.21281618  0.35775378  1
  O  O134  1  0.99989564  0.71281686  0.35775279  1
  O  O135  1  0.99992400  0.31270140  0.31243654  1
  O  O136  1  0.00006799  0.61292780  0.28976747  1
  O  O137  1  0.00003865  0.01289212  0.33513713  1
  O  O138  1  0.49999186  0.51287492  0.33513967  1
  O  O139  1  0.49992642  0.11293229  0.28976123  1
  O  O140  1  0.49985484  0.61269626  0.40307525  1
  O  O141  1  0.50065542  0.01204719  0.44857467  1
  O  O142  1  0.99951543  0.51208836  0.44857202  1
  O  O143  1  0.00022370  0.11266903  0.40307733  1
  O  O144  1  0.00003553  0.41276148  0.38048044  1
  O  O145  1  0.99965399  0.81239265  0.42581403  1
  O  O146  1  0.50049182  0.31236329  0.42581384  1
  O  O147  1  0.49999823  0.91275510  0.38047777  1
  O  O148  1  0.49962080  0.41192269  0.49404252  1
  O  O149  1  0.49986496  0.81009999  0.53873948  1
  O  O150  1  0.00006806  0.31007530  0.53875043  1
  O  O151  1  0.00049529  0.91193582  0.49404599  1
  O  O152  1  0.00133105  0.21193093  0.47108704  1
  O  O153  1  0.99399417  0.61166911  0.51662355  1
  O  O154  1  0.50608757  0.11166682  0.51663195  1
  O  O155  1  0.49875784  0.71195729  0.47108724  1
  O  O156  1  0.52345058  0.20948223  0.58505186  1
  O  O157  1  0.97641008  0.70949267  0.58503042  1
  O  O158  1  0.01698411  0.01495877  0.56307509  1
  O  O159  1  0.96063342  0.42055106  0.60503351  1
  O  O160  1  0.53914856  0.92049724  0.60501835  1
  O  O161  1  0.48294053  0.51495051  0.56305633  1
