# generated using pymatgen
data_Li2O
_symmetry_space_group_name_H-M   'P 1'
_cell_length_a   4.62116000
_cell_length_b   4.62116000
_cell_length_c   46.21160200
_cell_angle_alpha   90.00000000
_cell_angle_beta   90.00000000
_cell_angle_gamma   90.00000000
_symmetry_Int_Tables_number   1
_chemical_formula_structural   Li2O
_chemical_formula_sum   'Li44 O22'
_cell_volume   986.85429435
_cell_formula_units_Z   22
loop_
 _symmetry_equiv_pos_site_id
 _symmetry_equiv_pos_as_xyz
  1  'x, y, z'
loop_
 _atom_site_type_symbol
 _atom_site_label
 _atom_site_symmetry_multiplicity
 _atom_site_fract_x
 _atom_site_fract_y
 _atom_site_fract_z
 _atom_site_occupancy
  Li  Li0  1  0.75000000  0.75000000  0.06016686  1
  Li  Li1  1  0.25000000  0.25000000  0.06016686  1
  Li  Li2  1  0.75000000  0.25000000  0.06908462  1
  Li  Li3  1  0.25000000  0.75000000  0.02218845  1
  Li  Li4  1  0.75000000  0.25000000  0.02218845  1
  Li  Li5  1  0.25000000  0.75000000  0.06908462  1
  Li  Li6  1  0.25000000  0.25000000  0.11351487  1
  Li  Li7  1  0.75000000  0.75000000  0.16356841  1
  Li  Li8  1  0.25000000  0.25000000  0.16356841  1
  Li  Li9  1  0.75000000  0.75000000  0.11351487  1
  Li  Li10  1  0.75000000  0.25000000  0.16486459  1
  Li  Li11  1  0.25000000  0.75000000  0.11641977  1
  Li  Li12  1  0.75000000  0.25000000  0.11641977  1
  Li  Li13  1  0.25000000  0.75000000  0.16486459  1
  Li  Li14  1  0.25000000  0.25000000  0.21318204  1
  Li  Li15  1  0.75000000  0.75000000  0.26273347  1
  Li  Li16  1  0.25000000  0.25000000  0.26273347  1
  Li  Li17  1  0.75000000  0.75000000  0.21318204  1
  Li  Li18  1  0.75000000  0.25000000  0.26280663  1
  Li  Li19  1  0.25000000  0.75000000  0.21390573  1
  Li  Li20  1  0.75000000  0.25000000  0.21390573  1
  Li  Li21  1  0.25000000  0.75000000  0.26280663  1
  Li  Li22  1  0.25000000  0.25000000  0.31178257  1
  Li  Li23  1  0.75000000  0.75000000  0.36136417  1
  Li  Li24  1  0.25000000  0.25000000  0.36136417  1
  Li  Li25  1  0.75000000  0.75000000  0.31178257  1
  Li  Li26  1  0.75000000  0.25000000  0.36056403  1
  Li  Li27  1  0.25000000  0.75000000  0.31169503  1
  Li  Li28  1  0.75000000  0.25000000  0.31169503  1
  Li  Li29  1  0.25000000  0.75000000  0.36056403  1
  Li  Li30  1  0.25000000  0.25000000  0.41126252  1
  Li  Li31  1  0.75000000  0.75000000  0.46213483  1
  Li  Li32  1  0.25000000  0.25000000  0.46213483  1
  Li  Li33  1  0.75000000  0.75000000  0.41126252  1
  Li  Li34  1  0.75000000  0.25000000  0.45884029  1
  Li  Li35  1  0.25000000  0.75000000  0.41018515  1
  Li  Li36  1  0.75000000  0.25000000  0.41018515  1
  Li  Li37  1  0.25000000  0.75000000  0.45884029  1
  Li  Li38  1  0.25000000  0.25000000  0.51495199  1
  Li  Li39  1  0.75000000  0.75000000  0.51495199  1
  Li  Li40  1  0.75000000  0.25000000  0.55314631  1
  Li  Li41  1  0.25000000  0.75000000  0.50664937  1
  Li  Li42  1  0.75000000  0.25000000  0.50664937  1
  Li  Li43  1  0.25000000  0.75000000  0.55314631  1
  O  O44  1  1.00000000  0.50000000  0.09020187  1
  O  O45  1  1.00000000  1.00000000  0.03983608  1
  O  O46  1  0.50000000  0.00000000  0.09020187  1
  O  O47  1  0.50000000  0.50000000  0.03983608  1
  O  O48  1  1.00000000  0.50000000  0.18888768  1
  O  O49  1  1.00000000  0.00000000  0.13960574  1
  O  O50  1  0.50000000  0.00000000  0.18888768  1
  O  O51  1  0.50000000  0.50000000  0.13960574  1
  O  O52  1  0.00000000  0.50000000  0.28723894  1
  O  O53  1  1.00000000  1.00000000  0.23818857  1
  O  O54  1  0.50000000  0.00000000  0.28723894  1
  O  O55  1  0.50000000  0.50000000  0.23818857  1
  O  O56  1  0.00000000  0.50000000  0.38585014  1
  O  O57  1  0.00000000  0.00000000  0.33630892  1
  O  O58  1  0.50000000  0.00000000  0.38585014  1
  O  O59  1  0.50000000  0.50000000  0.33630892  1
  O  O60  1  0.00000000  0.50000000  0.48535151  1
  O  O61  1  0.00000000  0.00000000  0.43555214  1
  O  O62  1  0.50000000  0.00000000  0.48535151  1
  O  O63  1  0.50000000  0.50000000  0.43555214  1
  O  O64  1  0.00000000  1.00000000  0.53546673  1
  O  O65  1  0.50000000  0.50000000  0.53546673  1
