# generated using pymatgen
data_Li2O
_symmetry_space_group_name_H-M   'P 1'
_cell_length_a   4.62116000
_cell_length_b   6.53530700
_cell_length_c   42.47949900
_cell_angle_alpha   90.00000000
_cell_angle_beta   90.00000000
_cell_angle_gamma   90.00000000
_symmetry_Int_Tables_number   1
_chemical_formula_structural   Li2O
_chemical_formula_sum   'Li64 O32'
_cell_volume   1282.91057555
_cell_formula_units_Z   32
loop_
 _symmetry_equiv_pos_site_id
 _symmetry_equiv_pos_as_xyz
  1  'x, y, z'
loop_
 _atom_site_type_symbol
 _atom_site_label
 _atom_site_symmetry_multiplicity
 _atom_site_fract_x
 _atom_site_fract_y
 _atom_site_fract_z
 _atom_site_occupancy
  Li  Li0  1  0.77342279  0.37499999  0.02043374  1
  Li  Li1  1  0.22657720  0.87500000  0.02043378  1
  Li  Li2  1  0.74972545  0.12500002  0.05832876  1
  Li  Li3  1  0.25027449  0.62499999  0.05832877  1
  Li  Li4  1  0.77342280  0.87500002  0.02043374  1
  Li  Li5  1  0.22657718  0.37499998  0.02043378  1
  Li  Li6  1  0.74972548  0.62499999  0.05832876  1
  Li  Li7  1  0.25027442  0.12500000  0.05832876  1
  Li  Li8  1  0.75097686  0.87500001  0.09669930  1
  Li  Li9  1  0.24902315  0.37499998  0.09669931  1
  Li  Li10  1  0.74864828  0.62499999  0.13540076  1
  Li  Li11  1  0.25135172  0.12500000  0.13540075  1
  Li  Li12  1  0.75097684  0.37500000  0.09669930  1
  Li  Li13  1  0.24902315  0.87500000  0.09669931  1
  Li  Li14  1  0.74864829  0.12500000  0.13540076  1
  Li  Li15  1  0.25135173  0.62499999  0.13540075  1
  Li  Li16  1  0.75118720  0.37500000  0.17391392  1
  Li  Li17  1  0.24881279  0.87500000  0.17391394  1
  Li  Li18  1  0.75008572  0.12500000  0.21229593  1
  Li  Li19  1  0.24991429  0.62500000  0.21229594  1
  Li  Li20  1  0.75118720  0.87500000  0.17391392  1
  Li  Li21  1  0.24881279  0.37500000  0.17391394  1
  Li  Li22  1  0.75008572  0.62500000  0.21229593  1
  Li  Li23  1  0.24991429  0.12500000  0.21229594  1
  Li  Li24  1  0.74986298  0.87500000  0.25020448  1
  Li  Li25  1  0.25013701  0.37500000  0.25020448  1
  Li  Li26  1  0.74969497  0.62500000  0.28846145  1
  Li  Li27  1  0.25030503  0.12500000  0.28846145  1
  Li  Li28  1  0.74986299  0.37500000  0.25020448  1
  Li  Li29  1  0.25013700  0.87500000  0.25020448  1
  Li  Li30  1  0.74969497  0.12500000  0.28846145  1
  Li  Li31  1  0.25030503  0.62500000  0.28846145  1
  Li  Li32  1  0.75123102  0.37500000  0.32686851  1
  Li  Li33  1  0.24876897  0.87500000  0.32686852  1
  Li  Li34  1  0.74941825  0.12500000  0.36545051  1
  Li  Li35  1  0.25058174  0.62500000  0.36545051  1
  Li  Li36  1  0.75123102  0.87500000  0.32686851  1
  Li  Li37  1  0.24876897  0.37500000  0.32686852  1
  Li  Li38  1  0.74941825  0.62500000  0.36545051  1
  Li  Li39  1  0.25058174  0.12500000  0.36545051  1
  Li  Li40  1  0.74996737  0.87500000  0.40374276  1
  Li  Li41  1  0.25003262  0.37500000  0.40374275  1
  Li  Li42  1  0.75009348  0.62500000  0.44173277  1
  Li  Li43  1  0.24990653  0.12500000  0.44173278  1
  Li  Li44  1  0.74996737  0.37500000  0.40374276  1
  Li  Li45  1  0.25003263  0.87500000  0.40374275  1
  Li  Li46  1  0.75009348  0.12500000  0.44173277  1
  Li  Li47  1  0.24990652  0.62500000  0.44173278  1
  Li  Li48  1  0.74989230  0.37500000  0.47982603  1
  Li  Li49  1  0.25010771  0.87500000  0.47982603  1
  Li  Li50  1  0.74867060  0.12500000  0.51815909  1
  Li  Li51  1  0.25132940  0.62500000  0.51815908  1
  Li  Li52  1  0.74989230  0.87500000  0.47982603  1
  Li  Li53  1  0.25010771  0.37500000  0.47982603  1
  Li  Li54  1  0.74867060  0.62500000  0.51815909  1
  Li  Li55  1  0.25132940  0.12500000  0.51815908  1
  Li  Li56  1  0.75128774  0.87500000  0.55695008  1
  Li  Li57  1  0.24871225  0.37499999  0.55695009  1
  Li  Li58  1  0.72633901  0.62500000  0.59447137  1
  Li  Li59  1  0.27366108  0.12500000  0.59447132  1
  Li  Li60  1  0.75128774  0.37500000  0.55695008  1
  Li  Li61  1  0.24871225  0.87500001  0.55695009  1
  Li  Li62  1  0.72633901  0.12500000  0.59447137  1
  Li  Li63  1  0.27366108  0.62500000  0.59447131  1
  O  O64  1  0.50000004  0.37500001  0.05703235  1
  O  O65  1  0.99999995  0.62500001  0.02208788  1
  O  O66  1  0.99999996  0.12499999  0.02208788  1
  O  O67  1  0.50000002  0.87500000  0.05703235  1
  O  O68  1  0.49999999  0.87500001  0.13524125  1
  O  O69  1  0.00000002  0.12500000  0.09721023  1
  O  O70  1  1.00000000  0.62500001  0.09721024  1
  O  O71  1  0.50000000  0.37500000  0.13524125  1
  O  O72  1  0.49999998  0.37500000  0.21212324  1
  O  O73  1  0.00000000  0.62500000  0.17394861  1
  O  O74  1  1.00000000  0.12500000  0.17394861  1
  O  O75  1  0.49999999  0.87500000  0.21212324  1
  O  O76  1  0.49999998  0.87500000  0.28851980  1
  O  O77  1  0.99999998  0.12500000  0.25034993  1
  O  O78  1  0.99999998  0.62499999  0.25034993  1
  O  O79  1  0.49999997  0.37500000  0.28851980  1
  O  O80  1  0.49999999  0.37500000  0.36536143  1
  O  O81  1  0.99999998  0.62499999  0.32695776  1
  O  O82  1  0.99999999  0.12500001  0.32695776  1
  O  O83  1  0.49999999  0.87500000  0.36536143  1
  O  O84  1  0.50000001  0.87500000  0.44171911  1
  O  O85  1  0.00000000  0.12500000  0.40369397  1
  O  O86  1  1.00000000  0.62500000  0.40369397  1
  O  O87  1  0.50000001  0.37500000  0.44171911  1
  O  O88  1  0.50000002  0.37500000  0.51790835  1
  O  O89  1  0.00000002  0.62500000  0.48006605  1
  O  O90  1  0.00000002  0.12500000  0.48006605  1
  O  O91  1  0.50000003  0.87500000  0.51790835  1
  O  O92  1  0.50000004  0.87500001  0.59303985  1
  O  O93  1  0.00000003  0.12500000  0.55809226  1
  O  O94  1  0.00000002  0.62500000  0.55809226  1
  O  O95  1  0.50000004  0.37499999  0.59303985  1
