# generated using pymatgen
data_Li2O
_symmetry_space_group_name_H-M   'P 1'
_cell_length_a   6.53530700
_cell_length_b   10.33322830
_cell_length_c   43.13082900
_cell_angle_alpha   90.00000000
_cell_angle_beta   90.00000000
_cell_angle_gamma   71.56504942
_symmetry_Int_Tables_number   1
_chemical_formula_structural   Li2O
_chemical_formula_sum   'Li140 O70'
_cell_volume   2763.19207163
_cell_formula_units_Z   70
loop_
 _symmetry_equiv_pos_site_id
 _symmetry_equiv_pos_as_xyz
  1  'x, y, z'
loop_
 _atom_site_type_symbol
 _atom_site_label
 _atom_site_symmetry_multiplicity
 _atom_site_fract_x
 _atom_site_fract_y
 _atom_site_fract_z
 _atom_site_occupancy
  Li  Li0  1  0.93768705  0.06168775  0.03977810  1
  Li  Li1  1  0.54380670  0.84132690  0.02235754  1
  Li  Li2  1  0.32284914  0.28717304  0.05538094  1
  Li  Li3  1  0.92741345  0.57829739  0.04058392  1
  Li  Li4  1  0.16619317  0.10537250  0.00365885  1
  Li  Li5  1  0.31951105  0.79173988  0.05789951  1
  Li  Li6  1  0.55964752  0.31767899  0.01839765  1
  Li  Li7  1  0.43768705  0.06168775  0.03977810  1
  Li  Li8  1  0.04380670  0.84132690  0.02235754  1
  Li  Li9  1  0.82284914  0.28717304  0.05538094  1
  Li  Li10  1  0.42741345  0.57829739  0.04058392  1
  Li  Li11  1  0.66619317  0.10537250  0.00365885  1
  Li  Li12  1  0.81951105  0.79173988  0.05789951  1
  Li  Li13  1  0.05964752  0.31767899  0.01839765  1
  Li  Li14  1  0.71101710  0.50839507  0.07387057  1
  Li  Li15  1  0.49004327  0.95356660  0.11088906  1
  Li  Li16  1  0.09995447  0.73078754  0.09291820  1
  Li  Li17  1  0.87917244  0.17715811  0.12827447  1
  Li  Li18  1  0.48794092  0.45569306  0.11017891  1
  Li  Li19  1  0.71162152  0.01156245  0.07535546  1
  Li  Li20  1  0.87778314  0.67673886  0.12860017  1
  Li  Li21  1  0.09884045  0.23320611  0.09200834  1
  Li  Li22  1  0.21101710  0.50839507  0.07387057  1
  Li  Li23  1  0.99004327  0.95356660  0.11088906  1
  Li  Li24  1  0.59995446  0.73078754  0.09291820  1
  Li  Li25  1  0.37917244  0.17715811  0.12827447  1
  Li  Li26  1  0.98794092  0.45569306  0.11017891  1
  Li  Li27  1  0.21162152  0.01156245  0.07535546  1
  Li  Li28  1  0.37778314  0.67673886  0.12860017  1
  Li  Li29  1  0.59884044  0.23320611  0.09200834  1
  Li  Li30  1  0.26798682  0.39806479  0.14607385  1
  Li  Li31  1  0.04717245  0.84199291  0.18224529  1
  Li  Li32  1  0.65782589  0.61935148  0.16434424  1
  Li  Li33  1  0.43641615  0.06362472  0.20017298  1
  Li  Li34  1  0.04579639  0.34277951  0.18206134  1
  Li  Li35  1  0.26910708  0.89761444  0.14655498  1
  Li  Li36  1  0.43636059  0.56366912  0.20021029  1
  Li  Li37  1  0.65761587  0.12014134  0.16428792  1
  Li  Li38  1  0.76798682  0.39806479  0.14607385  1
  Li  Li39  1  0.54717245  0.84199291  0.18224529  1
  Li  Li40  1  0.15782589  0.61935148  0.16434424  1
  Li  Li41  1  0.93641615  0.06362472  0.20017298  1
  Li  Li42  1  0.54579639  0.34277951  0.18206134  1
  Li  Li43  1  0.76910708  0.89761444  0.14655498  1
  Li  Li44  1  0.93636059  0.56366912  0.20021029  1
  Li  Li45  1  0.15761587  0.12014134  0.16428792  1
  Li  Li46  1  0.82625882  0.28536787  0.21802675  1
  Li  Li47  1  0.60437544  0.72884249  0.25403066  1
  Li  Li48  1  0.21633179  0.50658062  0.23615207  1
  Li  Li49  1  0.99300916  0.95173050  0.27200649  1
  Li  Li50  1  0.60441372  0.22889731  0.25401983  1
  Li  Li51  1  0.82628301  0.78547877  0.21810491  1
  Li  Li52  1  0.99333058  0.45130105  0.27218315  1
  Li  Li53  1  0.21611478  0.00693312  0.23601475  1
  Li  Li54  1  0.32625882  0.28536787  0.21802675  1
  Li  Li55  1  0.10437544  0.72884249  0.25403066  1
  Li  Li56  1  0.71633179  0.50658062  0.23615207  1
  Li  Li57  1  0.49300916  0.95173050  0.27200649  1
  Li  Li58  1  0.10441372  0.22889731  0.25401983  1
  Li  Li59  1  0.32628301  0.78547877  0.21810491  1
  Li  Li60  1  0.49333058  0.45130105  0.27218315  1
  Li  Li61  1  0.71611478  0.00693312  0.23601475  1
  Li  Li62  1  0.38279085  0.17404039  0.29003421  1
  Li  Li63  1  0.16056506  0.61765958  0.32596828  1
  Li  Li64  1  0.77070098  0.39586842  0.30807315  1
  Li  Li65  1  0.55035358  0.83931737  0.34393236  1
  Li  Li66  1  0.16095511  0.11706663  0.32597189  1
  Li  Li67  1  0.38268728  0.67399140  0.29000211  1
  Li  Li68  1  0.55119379  0.33878900  0.34394832  1
  Li  Li69  1  0.77064721  0.89585127  0.30793628  1
  Li  Li70  1  0.88279085  0.17404039  0.29003421  1
  Li  Li71  1  0.66056506  0.61765958  0.32596828  1
  Li  Li72  1  0.27070098  0.39586842  0.30807315  1
  Li  Li73  1  0.05035358  0.83931737  0.34393236  1
  Li  Li74  1  0.66095511  0.11706663  0.32597189  1
  Li  Li75  1  0.88268728  0.67399140  0.29000211  1
  Li  Li76  1  0.05119379  0.33878900  0.34394832  1
  Li  Li77  1  0.27064721  0.89585127  0.30793628  1
  Li  Li78  1  0.93791405  0.06143506  0.36190651  1
  Li  Li79  1  0.71608117  0.50538983  0.39789220  1
  Li  Li80  1  0.32896906  0.28280899  0.37982213  1
  Li  Li81  1  0.10539839  0.72836943  0.41585234  1
  Li  Li82  1  0.71611468  0.00534222  0.39788685  1
  Li  Li83  1  0.93792985  0.56116716  0.36187298  1
  Li  Li84  1  0.10520415  0.22840873  0.41581157  1
  Li  Li85  1  0.32917437  0.78261885  0.37977066  1
  Li  Li86  1  0.43791405  0.06143506  0.36190651  1
  Li  Li87  1  0.21608117  0.50538983  0.39789220  1
  Li  Li88  1  0.82896906  0.28280899  0.37982213  1
  Li  Li89  1  0.60539839  0.72836943  0.41585234  1
  Li  Li90  1  0.21611468  0.00534222  0.39788685  1
  Li  Li91  1  0.43792985  0.56116716  0.36187298  1
  Li  Li92  1  0.60520415  0.22840873  0.41581157  1
  Li  Li93  1  0.82917437  0.78261885  0.37977066  1
  Li  Li94  1  0.49461810  0.94925879  0.43374357  1
  Li  Li95  1  0.27189886  0.39444501  0.46972396  1
  Li  Li96  1  0.88213465  0.17142589  0.45170004  1
  Li  Li97  1  0.66244619  0.61552429  0.48775478  1
  Li  Li98  1  0.27180273  0.89416594  0.46976265  1
  Li  Li99  1  0.49468136  0.44926178  0.43372034  1
  Li  Li100  1  0.66056373  0.11662414  0.48740219  1
  Li  Li101  1  0.88427817  0.67084761  0.45188186  1
  Li  Li102  1  0.99461810  0.94925879  0.43374357  1
  Li  Li103  1  0.77189886  0.39444500  0.46972396  1
  Li  Li104  1  0.38213465  0.17142589  0.45170004  1
  Li  Li105  1  0.16244619  0.61552429  0.48775478  1
  Li  Li106  1  0.77180272  0.89416594  0.46976265  1
  Li  Li107  1  0.99468136  0.44926178  0.43372034  1
  Li  Li108  1  0.16056373  0.11662414  0.48740219  1
  Li  Li109  1  0.38427817  0.67084761  0.45188186  1
  Li  Li110  1  0.05063946  0.83751243  0.50568805  1
  Li  Li111  1  0.82961575  0.28339949  0.54091035  1
  Li  Li112  1  0.43804748  0.06074196  0.52297627  1
  Li  Li113  1  0.21935308  0.50558749  0.56021323  1
  Li  Li114  1  0.82832159  0.78233637  0.54177384  1
  Li  Li115  1  0.05013802  0.33915302  0.50549690  1
  Li  Li116  1  0.21691664  0.00402438  0.55840071  1
  Li  Li117  1  0.44006718  0.56108782  0.52393885  1
  Li  Li118  1  0.55063946  0.83751243  0.50568805  1
  Li  Li119  1  0.32961575  0.28339949  0.54091035  1
  Li  Li120  1  0.93804748  0.06074196  0.52297627  1
  Li  Li121  1  0.71935308  0.50558749  0.56021323  1
  Li  Li122  1  0.32832159  0.78233637  0.54177384  1
  Li  Li123  1  0.55013802  0.33915302  0.50549690  1
  Li  Li124  1  0.71691664  0.00402438  0.55840071  1
  Li  Li125  1  0.94006718  0.56108782  0.52393885  1
  Li  Li126  1  0.60474784  0.72844371  0.57818248  1
  Li  Li127  1  0.38567966  0.17345154  0.61168095  1
  Li  Li128  1  0.99043918  0.95470677  0.59425382  1
  Li  Li129  1  0.37127818  0.69738006  0.61497963  1
  Li  Li130  1  0.61077430  0.22283285  0.57605770  1
  Li  Li131  1  0.76421956  0.90840878  0.63017157  1
  Li  Li132  1  0.00409120  0.43631247  0.59365533  1
  Li  Li133  1  0.10474784  0.72844371  0.57818248  1
  Li  Li134  1  0.88567966  0.17345154  0.61168095  1
  Li  Li135  1  0.49043918  0.95470677  0.59425382  1
  Li  Li136  1  0.87127818  0.69738006  0.61497963  1
  Li  Li137  1  0.11077430  0.22283285  0.57605770  1
  Li  Li138  1  0.26421956  0.90840878  0.63017157  1
  Li  Li139  1  0.50409120  0.43631247  0.59365533  1
  O  O140  1  0.62695941  0.67796802  0.04850933  1
  O  O141  1  0.85971323  0.21701661  0.01328487  1
  O  O142  1  0.51562389  0.40165983  0.06335719  1
  O  O143  1  0.74275810  0.94775913  0.03077107  1
  O  O144  1  0.01562389  0.40165983  0.06335719  1
  O  O145  1  0.24275810  0.94775913  0.03077107  1
  O  O146  1  0.12695941  0.67796802  0.04850933  1
  O  O147  1  0.35971323  0.21701661  0.01328487  1
  O  O148  1  0.18428518  0.56403472  0.11920965  1
  O  O149  1  0.40609566  0.12149519  0.08419438  1
  O  O150  1  0.07294699  0.28831454  0.13704448  1
  O  O151  1  0.29493323  0.84301299  0.10219725  1
  O  O152  1  0.57294699  0.28831454  0.13704448  1
  O  O153  1  0.79493323  0.84301299  0.10219725  1
  O  O154  1  0.68428518  0.56403472  0.11920965  1
  O  O155  1  0.90609566  0.12149519  0.08419438  1
  O  O156  1  0.74164728  0.45275947  0.19114052  1
  O  O157  1  0.96334781  0.00903295  0.15554965  1
  O  O158  1  0.63105722  0.17474519  0.20909941  1
  O  O159  1  0.85293543  0.73032707  0.17330201  1
  O  O160  1  0.13105722  0.17474519  0.20909941  1
  O  O161  1  0.35293543  0.73032707  0.17330201  1
  O  O162  1  0.24164728  0.45275947  0.19114052  1
  O  O163  1  0.46334781  0.00903295  0.15554965  1
  O  O164  1  0.29902011  0.34026535  0.26310070  1
  O  O165  1  0.52098663  0.89625601  0.22710366  1
  O  O166  1  0.18821702  0.06243534  0.28099398  1
  O  O167  1  0.41013951  0.61817590  0.24512050  1
  O  O168  1  0.68821702  0.06243534  0.28099398  1
  O  O169  1  0.91013951  0.61817590  0.24512050  1
  O  O170  1  0.79902011  0.34026535  0.26310070  1
  O  O171  1  0.02098663  0.89625601  0.22710366  1
  O  O172  1  0.85570711  0.22819993  0.33495205  1
  O  O173  1  0.07710719  0.78454703  0.29898711  1
  O  O174  1  0.74428521  0.95027226  0.35292251  1
  O  O175  1  0.96598066  0.50641473  0.31700395  1
  O  O176  1  0.24428521  0.95027226  0.35292251  1
  O  O177  1  0.46598066  0.50641473  0.31700395  1
  O  O178  1  0.35570711  0.22819993  0.33495205  1
  O  O179  1  0.57710719  0.78454703  0.29898711  1
  O  O180  1  0.41104416  0.11661575  0.40680265  1
  O  O181  1  0.63347907  0.67214486  0.37088749  1
  O  O182  1  0.30042938  0.83826721  0.42479520  1
  O  O183  1  0.52256578  0.39428573  0.38884447  1
  O  O184  1  0.80042938  0.83826721  0.42479520  1
  O  O185  1  0.02256578  0.39428573  0.38884447  1
  O  O186  1  0.91104416  0.11661575  0.40680265  1
  O  O187  1  0.13347907  0.67214486  0.37088749  1
  O  O188  1  0.96670242  0.00477698  0.47842678  1
  O  O189  1  0.18930878  0.56053587  0.44282480  1
  O  O190  1  0.85686994  0.72618645  0.49688645  1
  O  O191  1  0.07747086  0.28340038  0.46069579  1
  O  O192  1  0.35686994  0.72618645  0.49688645  1
  O  O193  1  0.57747086  0.28340038  0.46069579  1
  O  O194  1  0.46670242  0.00477698  0.47842678  1
  O  O195  1  0.68930878  0.56053587  0.44282480  1
  O  O196  1  0.52250115  0.89364033  0.54966714  1
  O  O197  1  0.74515258  0.45066581  0.51477680  1
  O  O198  1  0.41408255  0.61325382  0.57050416  1
  O  O199  1  0.63426547  0.17151468  0.53173906  1
  O  O200  1  0.91408255  0.61325382  0.57050416  1
  O  O201  1  0.13426547  0.17151468  0.53173906  1
  O  O202  1  0.02250115  0.89364033  0.54966714  1
  O  O203  1  0.24515258  0.45066581  0.51477680  1
  O  O204  1  0.07061506  0.79772946  0.62043385  1
  O  O205  1  0.30369983  0.33658549  0.58552119  1
  O  O206  1  0.18692072  0.06706072  0.60320783  1
  O  O207  1  0.68692072  0.06706072  0.60320783  1
  O  O208  1  0.57061506  0.79772946  0.62043385  1
  O  O209  1  0.80369983  0.33658549  0.58552119  1
