# generated using pymatgen
data_Li3PO4
_symmetry_space_group_name_H-M   'P 1'
_cell_length_a   4.97784600
_cell_length_b   6.15119200
_cell_length_c   63.42885398
_cell_angle_alpha   90.00000000
_cell_angle_beta   90.00000000
_cell_angle_gamma   90.00000000
_symmetry_Int_Tables_number   1
_chemical_formula_structural   Li3PO4
_chemical_formula_sum   'Li72 P24 O96'
_cell_volume   1942.17162342
_cell_formula_units_Z   24
loop_
 _symmetry_equiv_pos_site_id
 _symmetry_equiv_pos_as_xyz
  1  'x, y, z'
loop_
 _atom_site_type_symbol
 _atom_site_label
 _atom_site_symmetry_multiplicity
 _atom_site_fract_x
 _atom_site_fract_y
 _atom_site_fract_z
 _atom_site_occupancy
  Li  Li0  1  0.81658714  0.49840899  0.09815264  1
  Li  Li1  1  0.21254628  0.50126224  0.15263248  1
  Li  Li2  1  0.32088241  0.50126876  0.06945546  1
  Li  Li3  1  0.72085380  0.48748213  0.01508132  1
  Li  Li4  1  0.72085499  0.01252521  0.01508132  1
  Li  Li5  1  0.32087922  0.99872986  0.06945506  1
  Li  Li6  1  0.21252642  0.99872378  0.15263212  1
  Li  Li7  1  0.81658318  0.00159592  0.09815096  1
  Li  Li8  1  0.21772289  0.75004503  0.11278815  1
  Li  Li9  1  0.81415478  0.24999567  0.13771598  1
  Li  Li10  1  0.72084822  0.25000287  0.05506180  1
  Li  Li11  1  0.31632736  0.75000042  0.03004132  1
  Li  Li12  1  0.81376427  0.49803583  0.26436845  1
  Li  Li13  1  0.20928552  0.50195686  0.31871567  1
  Li  Li14  1  0.31377727  0.50195698  0.23563679  1
  Li  Li15  1  0.70935137  0.49810372  0.18128201  1
  Li  Li16  1  0.70935406  0.00189403  0.18128151  1
  Li  Li17  1  0.31377643  0.99804284  0.23563691  1
  Li  Li18  1  0.20928758  0.99805033  0.31871621  1
  Li  Li19  1  0.81376294  0.00196529  0.26436833  1
  Li  Li20  1  0.21406554  0.75000076  0.27907882  1
  Li  Li21  1  0.81040490  0.25000241  0.30396027  1
  Li  Li22  1  0.71409616  0.25000106  0.22092477  1
  Li  Li23  1  0.31043611  0.75000092  0.19604361  1
  Li  Li24  1  0.82088190  0.49871153  0.43054340  1
  Li  Li25  1  0.22080308  0.51251775  0.48491722  1
  Li  Li26  1  0.31659021  0.50159436  0.40184988  1
  Li  Li27  1  0.71253862  0.49876058  0.34736969  1
  Li  Li28  1  0.71254853  0.00125386  0.34737007  1
  Li  Li29  1  0.31658626  0.99841255  0.40184959  1
  Li  Li30  1  0.22080572  0.98747964  0.48491711  1
  Li  Li31  1  0.82088222  0.00129127  0.43054328  1
  Li  Li32  1  0.22080544  0.74999734  0.44493401  1
  Li  Li33  1  0.81631162  0.25000078  0.46995720  1
  Li  Li34  1  0.71776179  0.24999337  0.38721150  1
  Li  Li35  1  0.31414381  0.75000959  0.36228649  1
  Li  Li36  1  0.73261497  0.50136179  0.59760966  1
  Li  Li37  1  0.33932993  0.49872081  0.65218421  1
  Li  Li38  1  0.22998898  0.49809193  0.56904335  1
  Li  Li39  1  0.82722559  0.51235753  0.51480001  1
  Li  Li40  1  0.82722566  0.98764116  0.51480025  1
  Li  Li41  1  0.22999335  0.00190282  0.56904428  1
  Li  Li42  1  0.33932539  0.00125968  0.65218367  1
  Li  Li43  1  0.73261704  0.99862579  0.59760995  1
  Li  Li44  1  0.33327796  0.24998424  0.61252014  1
  Li  Li45  1  0.73926652  0.74999300  0.63729005  1
  Li  Li46  1  0.82830628  0.74999969  0.55484587  1
  Li  Li47  1  0.22985914  0.25000046  0.52973121  1
  Li  Li48  1  0.73434214  0.50181505  0.76432862  1
  Li  Li49  1  0.33996089  0.49852589  0.81906991  1
  Li  Li50  1  0.23430797  0.49821297  0.73567170  1
  Li  Li51  1  0.83988715  0.50148272  0.68092776  1
  Li  Li52  1  0.83988509  0.99852166  0.68092792  1
  Li  Li53  1  0.23430728  0.00179070  0.73567190  1
  Li  Li54  1  0.33996037  0.00148049  0.81906976  1
  Li  Li55  1  0.73434195  0.99818808  0.76432862  1
  Li  Li56  1  0.33659124  0.25000285  0.77954598  1
  Li  Li57  1  0.74198619  0.75000383  0.80411828  1
  Li  Li58  1  0.83629489  0.74999838  0.72044808  1
  Li  Li59  1  0.24085252  0.24999418  0.69590692  1
  Li  Li60  1  0.72999382  0.50190787  0.93095520  1
  Li  Li61  1  0.32767553  0.48773261  0.98516410  1
  Li  Li62  1  0.23257051  0.49863418  0.90238883  1
  Li  Li63  1  0.83946207  0.50135331  0.84781752  1
  Li  Li64  1  0.83946180  0.99865264  0.84781722  1
  Li  Li65  1  0.23257090  0.00136502  0.90238851  1
  Li  Li66  1  0.32767554  0.01226843  0.98516448  1
  Li  Li67  1  0.72999406  0.99809316  0.93095523  1
  Li  Li68  1  0.32831351  0.25000200  0.94514930  1
  Li  Li69  1  0.72997443  0.75000068  0.97026728  1
  Li  Li70  1  0.83325004  0.74999943  0.88748103  1
  Li  Li71  1  0.23925249  0.25000205  0.86271083  1
  P  P72  1  0.32194344  0.24999877  0.11059754  1
  P  P73  1  0.70749067  0.74997321  0.14012413  1
  P  P74  1  0.82676923  0.75000562  0.05674007  1
  P  P75  1  0.21241399  0.25000130  0.02773490  1
  P  P76  1  0.31860785  0.25000372  0.27679863  1
  P  P77  1  0.70506904  0.75000668  0.30623649  1
  P  P78  1  0.81867650  0.75000144  0.22321533  1
  P  P79  1  0.20511899  0.25000150  0.19376901  1
  P  P80  1  0.32674604  0.25000368  0.44326070  1
  P  P81  1  0.71223559  0.75000076  0.47224795  1
  P  P82  1  0.82193134  0.74999885  0.38940537  1
  P  P83  1  0.20748248  0.25002533  0.35988453  1
  P  P84  1  0.22884700  0.74994685  0.61015028  1
  P  P85  1  0.84384761  0.24998756  0.63966997  1
  P  P86  1  0.72328032  0.24999805  0.55630414  1
  P  P87  1  0.33603548  0.75000167  0.52744883  1
  P  P88  1  0.23091709  0.75000625  0.77694827  1
  P  P89  1  0.84504140  0.25000577  0.80654173  1
  P  P90  1  0.73081510  0.24999830  0.72305330  1
  P  P91  1  0.34495002  0.75000185  0.69345934  1
  P  P92  1  0.22330624  0.74999733  0.94368824  1
  P  P93  1  0.83623696  0.25000154  0.97254616  1
  P  P94  1  0.72870348  0.25000224  0.88985244  1
  P  P95  1  0.34386853  0.75000379  0.86033119  1
  O  O96  1  0.21917126  0.45709191  0.09893305  1
  O  O97  1  0.81046196  0.54285963  0.15179315  1
  O  O98  1  0.72184835  0.54382156  0.06844345  1
  O  O99  1  0.31243201  0.45864000  0.01610974  1
  O  O100  1  0.31243293  0.04135468  0.01611075  1
  O  O101  1  0.72185521  0.95619980  0.06844296  1
  O  O102  1  0.81047290  0.95710539  0.15178984  1
  O  O103  1  0.21916190  0.04286937  0.09893783  1
  O  O104  1  0.81180214  0.74996756  0.11701191  1
  O  O105  1  0.21728169  0.24999022  0.13369196  1
  O  O106  1  0.32112382  0.25000000  0.05072213  1
  O  O107  1  0.72730001  0.74999611  0.03340972  1
  O  O108  1  0.63548049  0.25000686  0.11046649  1
  O  O109  1  0.39396517  0.74999189  0.14022278  1
  O  O110  1  0.14012980  0.74999794  0.05718723  1
  O  O111  1  0.89996770  0.25000943  0.02832916  1
  O  O112  1  0.21554295  0.45703898  0.26513803  1
  O  O113  1  0.80841990  0.54305911  0.31790254  1
  O  O114  1  0.71558954  0.54297226  0.23487550  1
  O  O115  1  0.30849881  0.45695003  0.18210503  1
  O  O116  1  0.30850913  0.04305786  0.18210372  1
  O  O117  1  0.71559324  0.95703375  0.23487503  1
  O  O118  1  0.80839477  0.95695380  0.31790310  1
  O  O119  1  0.21553048  0.04297333  0.26513804  1
  O  O120  1  0.80932648  0.75001096  0.28313370  1
  O  O121  1  0.21452605  0.25000370  0.29990917  1
  O  O122  1  0.30935916  0.24999100  0.21687145  1
  O  O123  1  0.71460055  0.75000123  0.20010356  1
  O  O124  1  0.63212173  0.24999946  0.27669416  1
  O  O125  1  0.39170125  0.75000539  0.30635277  1
  O  O126  1  0.13219220  0.74999229  0.22331661  1
  O  O127  1  0.89175870  0.24999527  0.19365391  1
  O  O128  1  0.22185216  0.45620393  0.43155778  1
  O  O129  1  0.81221385  0.54137428  0.48387749  1
  O  O130  1  0.71917286  0.54289035  0.40106791  1
  O  O131  1  0.31038167  0.45715370  0.34821347  1
  O  O132  1  0.31040501  0.04289548  0.34821305  1
  O  O133  1  0.71918373  0.95711917  0.40106538  1
  O  O134  1  0.81221906  0.95863021  0.48387626  1
  O  O135  1  0.22187536  0.04380393  0.43155660  1
  O  O136  1  0.82105358  0.75000527  0.44926618  1
  O  O137  1  0.22730341  0.25000137  0.46659320  1
  O  O138  1  0.31173444  0.25002692  0.38299911  1
  O  O139  1  0.71731486  0.75000574  0.36630936  1
  O  O140  1  0.64009669  0.25000297  0.44281347  1
  O  O141  1  0.39980375  0.74999901  0.47165786  1
  O  O142  1  0.13547635  0.74999727  0.38953817  1
  O  O143  1  0.89396610  0.25002351  0.35978766  1
  O  O144  1  0.33187734  0.54279880  0.59850452  1
  O  O145  1  0.74085649  0.45711783  0.65134005  1
  O  O146  1  0.82839053  0.45607318  0.56800026  1
  O  O147  1  0.23602862  0.54138451  0.51582733  1
  O  O148  1  0.23603700  0.95862201  0.51582732  1
  O  O149  1  0.82838987  0.04392782  0.56800087  1
  O  O150  1  0.74083765  0.04285019  0.65133859  1
  O  O151  1  0.33189824  0.95710268  0.59850565  1
  O  O152  1  0.74017200  0.25000060  0.61654493  1
  O  O153  1  0.33259987  0.74994774  0.63327227  1
  O  O154  1  0.22782972  0.75000378  0.55044999  1
  O  O155  1  0.82226006  0.24999601  0.53298271  1
  O  O156  1  0.91529872  0.74999607  0.60993851  1
  O  O157  1  0.15739253  0.24998080  0.63984079  1
  O  O158  1  0.40995624  0.24999644  0.55675503  1
  O  O159  1  0.64849027  0.74999826  0.52803996  1
  O  O160  1  0.33405481  0.54289969  0.76527483  1
  O  O161  1  0.74185542  0.45701336  0.81821963  1
  O  O162  1  0.83401511  0.45710114  0.73472444  1
  O  O163  1  0.24173536  0.54297701  0.68178670  1
  O  O164  1  0.24172435  0.95701852  0.68178479  1
  O  O165  1  0.83400598  0.04289115  0.73472426  1
  O  O166  1  0.74185258  0.04300322  0.81822004  1
  O  O167  1  0.33405824  0.95711460  0.76527488  1
  O  O168  1  0.74161867  0.24999437  0.78340896  1
  O  O169  1  0.33454508  0.75000878  0.80007998  1
  O  O170  1  0.24158548  0.75000490  0.71659551  1
  O  O171  1  0.83445395  0.25000082  0.69992317  1
  O  O172  1  0.91738583  0.75000771  0.77676902  1
  O  O173  1  0.15862828  0.25001333  0.80672452  1
  O  O174  1  0.41729032  0.25000524  0.72323329  1
  O  O175  1  0.65853560  0.74999940  0.69327023  1
  O  O176  1  0.32839600  0.54393026  0.93199130  1
  O  O177  1  0.73626535  0.45864292  0.98416546  1
  O  O178  1  0.83175184  0.45716332  0.90149585  1
  O  O179  1  0.24086026  0.54288703  0.84866147  1
  O  O180  1  0.24086112  0.95711896  0.84866226  1
  O  O181  1  0.83174611  0.04283655  0.90149537  1
  O  O182  1  0.73626736  0.04136162  0.98416574  1
  O  O183  1  0.32839360  0.95606438  0.93199202  1
  O  O184  1  0.72789913  0.25000101  0.94954654  1
  O  O185  1  0.32243115  0.75000902  0.96700639  1
  O  O186  1  0.24012231  0.75002977  0.88345406  1
  O  O187  1  0.83242805  0.25000420  0.86672940  1
  O  O188  1  0.91000143  0.75000520  0.94324367  1
  O  O189  1  0.14868621  0.25000204  0.97195104  1
  O  O190  1  0.41515900  0.24999972  0.89006952  1
  O  O191  1  0.65740007  0.75000649  0.86015790  1
