# generated using pymatgen
data_Li3PO4
_symmetry_space_group_name_H-M   'P 1'
_cell_length_a   4.97784600
_cell_length_b   6.15119200
_cell_length_c   52.80285483
_cell_angle_alpha   90.00000000
_cell_angle_beta   90.00000000
_cell_angle_gamma   90.00000000
_symmetry_Int_Tables_number   1
_chemical_formula_structural   Li3PO4
_chemical_formula_sum   'Li60 P20 O80'
_cell_volume   1616.80686069
_cell_formula_units_Z   20
loop_
 _symmetry_equiv_pos_site_id
 _symmetry_equiv_pos_as_xyz
  1  'x, y, z'
loop_
 _atom_site_type_symbol
 _atom_site_label
 _atom_site_symmetry_multiplicity
 _atom_site_fract_x
 _atom_site_fract_y
 _atom_site_fract_z
 _atom_site_occupancy
  Li  Li0  1  0.80207057  0.49874974  0.11711691  1
  Li  Li1  1  0.30186727  0.50232475  0.08281559  1
  Li  Li2  1  0.69302771  0.48705640  0.01746958  1
  Li  Li3  1  0.69302964  0.01293645  0.01746735  1
  Li  Li4  1  0.30186808  0.99766691  0.08281495  1
  Li  Li5  1  0.80207211  0.00123809  0.11711733  1
  Li  Li6  1  0.20239114  0.74999197  0.13504384  1
  Li  Li7  1  0.69800559  0.24999601  0.06584578  1
  Li  Li8  1  0.29705196  0.74996484  0.03543514  1
  Li  Li9  1  0.80332231  0.49824072  0.31724413  1
  Li  Li10  1  0.19667408  0.50175218  0.18275810  1
  Li  Li11  1  0.30274815  0.50159546  0.28282901  1
  Li  Li12  1  0.69725317  0.49839723  0.21717276  1
  Li  Li13  1  0.69725420  0.00159497  0.21717239  1
  Li  Li14  1  0.30274705  0.99839839  0.28282902  1
  Li  Li15  1  0.19667379  0.99823456  0.18275814  1
  Li  Li16  1  0.80332422  0.00175386  0.31724433  1
  Li  Li17  1  0.20342457  0.74999631  0.33523459  1
  Li  Li18  1  0.79658321  0.25003577  0.16476349  1
  Li  Li19  1  0.70321619  0.24999887  0.26482077  1
  Li  Li20  1  0.29678213  0.74999884  0.23517907  1
  Li  Li21  1  0.19791954  0.50125804  0.38288181  1
  Li  Li22  1  0.30697691  0.51293140  0.48253415  1
  Li  Li23  1  0.69813250  0.49767563  0.41718661  1
  Li  Li24  1  0.69813073  0.00232204  0.41718659  1
  Li  Li25  1  0.30697645  0.98706055  0.48253407  1
  Li  Li26  1  0.19791436  0.99875058  0.38288389  1
  Li  Li27  1  0.79760694  0.24999656  0.36495742  1
  Li  Li28  1  0.70289642  0.24999880  0.46456127  1
  Li  Li29  1  0.30199375  0.74999659  0.43415787  1
  Li  Li30  1  0.69796805  0.50120946  0.61712037  1
  Li  Li31  1  0.19834175  0.49737961  0.58281744  1
  Li  Li32  1  0.80693945  0.51298962  0.51748507  1
  Li  Li33  1  0.80694174  0.98701145  0.51748514  1
  Li  Li34  1  0.19834088  0.00262199  0.58281725  1
  Li  Li35  1  0.69797685  0.99877933  0.61712194  1
  Li  Li36  1  0.29725251  0.24999573  0.63510108  1
  Li  Li37  1  0.80279289  0.74999861  0.56590012  1
  Li  Li38  1  0.20304193  0.25000008  0.53543103  1
  Li  Li39  1  0.69715373  0.50168906  0.81721849  1
  Li  Li40  1  0.30283627  0.49830959  0.68278096  1
  Li  Li41  1  0.19730137  0.49839221  0.78282734  1
  Li  Li42  1  0.80268907  0.50159673  0.71717210  1
  Li  Li43  1  0.80268805  0.99839433  0.71717192  1
  Li  Li44  1  0.19729990  0.00159981  0.78282802  1
  Li  Li45  1  0.30283484  0.00167642  0.68278041  1
  Li  Li46  1  0.69714958  0.99830951  0.81721866  1
  Li  Li47  1  0.29652215  0.24999814  0.83521346  1
  Li  Li48  1  0.70347300  0.74999445  0.66478520  1
  Li  Li49  1  0.79679678  0.74999681  0.76482099  1
  Li  Li50  1  0.20319515  0.24999556  0.73517951  1
  Li  Li51  1  0.30206620  0.49876729  0.88287864  1
  Li  Li52  1  0.19306117  0.48701817  0.98251592  1
  Li  Li53  1  0.80168033  0.50266232  0.91718041  1
  Li  Li54  1  0.80174350  0.99774422  0.91716416  1
  Li  Li55  1  0.19306471  0.01298639  0.98251554  1
  Li  Li56  1  0.30205396  0.00123412  0.88287896  1
  Li  Li57  1  0.70273496  0.75000074  0.86489789  1
  Li  Li58  1  0.79705968  0.75000856  0.96455798  1
  Li  Li59  1  0.19721518  0.25002606  0.93410065  1
  P  P60  1  0.30596371  0.24996800  0.13222453  1
  P  P61  1  0.80565092  0.74999489  0.06744996  1
  P  P62  1  0.18801055  0.24999036  0.03303301  1
  P  P63  1  0.30744805  0.24999053  0.33234889  1
  P  P64  1  0.69253427  0.74998820  0.16765401  1
  P  P65  1  0.80685274  0.74999681  0.26772287  1
  P  P66  1  0.19315320  0.24999125  0.23227787  1
  P  P67  1  0.69402258  0.74999087  0.36777886  1
  P  P68  1  0.81203020  0.74999815  0.46696873  1
  P  P69  1  0.19434210  0.24999852  0.43255153  1
  P  P70  1  0.19401124  0.74997856  0.63223827  1
  P  P71  1  0.69450044  0.24999651  0.56744899  1
  P  P72  1  0.31209906  0.74999442  0.53305044  1
  P  P73  1  0.19273301  0.75000379  0.83234356  1
  P  P74  1  0.80725363  0.25000127  0.66765739  1
  P  P75  1  0.69314985  0.24999005  0.76771093  1
  P  P76  1  0.30683727  0.74999129  0.73228895  1
  P  P77  1  0.80597916  0.25001277  0.86775639  1
  P  P78  1  0.68789220  0.25002543  0.96695000  1
  P  P79  1  0.30557179  0.75003284  0.93254471  1
  O  O80  1  0.20249114  0.45701296  0.11823682  1
  O  O81  1  0.70131492  0.54398950  0.08157519  1
  O  O82  1  0.28740666  0.45810190  0.01882880  1
  O  O83  1  0.28742060  0.04188665  0.01882805  1
  O  O84  1  0.70133032  0.95599680  0.08157584  1
  O  O85  1  0.20248542  0.04293014  0.11823541  1
  O  O86  1  0.79561815  0.74997968  0.13985840  1
  O  O87  1  0.20282120  0.24997253  0.16001905  1
  O  O88  1  0.29968885  0.24999390  0.06051625  1
  O  O89  1  0.70465700  0.74999188  0.03947651  1
  O  O90  1  0.61951359  0.24997354  0.13194378  1
  O  O91  1  0.11895705  0.74998881  0.06794150  1
  O  O92  1  0.87579307  0.24998169  0.03393347  1
  O  O93  1  0.20414105  0.45706065  0.31833573  1
  O  O94  1  0.79582572  0.54291150  0.18166607  1
  O  O95  1  0.70387892  0.54290466  0.28174982  1
  O  O96  1  0.29611860  0.45708703  0.21825195  1
  O  O97  1  0.29612963  0.04290198  0.21825107  1
  O  O98  1  0.70388297  0.95709364  0.28174959  1
  O  O99  1  0.79584522  0.95705807  0.18166632  1
  O  O100  1  0.20415476  0.04292072  0.31833480  1
  O  O101  1  0.79714473  0.74999475  0.33998305  1
  O  O102  1  0.20435225  0.24998801  0.36014460  1
  O  O103  1  0.29684212  0.24999634  0.26005565  1
  O  O104  1  0.70316217  0.74999567  0.23994529  1
  O  O105  1  0.62093380  0.24999861  0.33211771  1
  O  O106  1  0.37904133  0.74998456  0.16788269  1
  O  O107  1  0.12034809  0.74999622  0.26792719  1
  O  O108  1  0.87966241  0.25000113  0.23207316  1
  O  O109  1  0.79748965  0.54294329  0.38176606  1
  O  O110  1  0.71260809  0.54188801  0.48117424  1
  O  O111  1  0.29867096  0.45600653  0.41842547  1
  O  O112  1  0.29865998  0.04398447  0.41842628  1
  O  O113  1  0.71260986  0.95810226  0.48117541  1
  O  O114  1  0.79748724  0.95703051  0.38176668  1
  O  O115  1  0.29531609  0.24999121  0.46052564  1
  O  O116  1  0.70034408  0.74999887  0.43948752  1
  O  O117  1  0.38047250  0.74999873  0.36805994  1
  O  O118  1  0.12423587  0.74998948  0.46607564  1
  O  O119  1  0.88103461  0.24999094  0.43205993  1
  O  O120  1  0.29748410  0.54291440  0.61825209  1
  O  O121  1  0.79880037  0.45596689  0.58157846  1
  O  O122  1  0.21265579  0.54186011  0.51884621  1
  O  O123  1  0.21266129  0.95813822  0.51884606  1
  O  O124  1  0.79878259  0.04401627  0.58157698  1
  O  O125  1  0.29747309  0.95704966  0.61825272  1
  O  O126  1  0.70416102  0.24999692  0.63986602  1
  O  O127  1  0.29699729  0.74997207  0.66003721  1
  O  O128  1  0.20027181  0.75000049  0.56052560  1
  O  O129  1  0.79547517  0.24999670  0.53947152  1
  O  O130  1  0.88045491  0.74997076  0.63195425  1
  O  O131  1  0.38119726  0.24999880  0.56793783  1
  O  O132  1  0.62428756  0.74999812  0.53397758  1
  O  O133  1  0.29595772  0.54292423  0.81833090  1
  O  O134  1  0.70402564  0.45707069  0.68167197  1
  O  O135  1  0.79622559  0.45707654  0.78173098  1
  O  O136  1  0.20376700  0.54290447  0.71826951  1
  O  O137  1  0.20376020  0.95707526  0.71826909  1
  O  O138  1  0.79621971  0.04290280  0.78173131  1
  O  O139  1  0.70404294  0.04291669  0.68167066  1
  O  O140  1  0.29596700  0.95707768  0.81833108  1
  O  O141  1  0.70293792  0.25000048  0.83995825  1
  O  O142  1  0.29582831  0.75000638  0.86013534  1
  O  O143  1  0.20326337  0.74999109  0.76006989  1
  O  O144  1  0.79671463  0.24998592  0.73993025  1
  O  O145  1  0.87922962  0.75000053  0.83210851  1
  O  O146  1  0.12075051  0.24999756  0.66788915  1
  O  O147  1  0.37966067  0.24999328  0.76792631  1
  O  O148  1  0.62032690  0.74999319  0.73207301  1
  O  O149  1  0.70251045  0.45705813  0.88174470  1
  O  O150  1  0.78729682  0.45814544  0.98116052  1
  O  O151  1  0.20128544  0.54406400  0.91841395  1
  O  O152  1  0.20121798  0.95602887  0.91842295  1
  O  O153  1  0.78737168  0.04188336  0.98115033  1
  O  O154  1  0.70249351  0.04296598  0.88174338  1
  O  O155  1  0.20454909  0.74999350  0.96052032  1
  O  O156  1  0.79971545  0.25014332  0.93947429  1
  O  O157  1  0.11952027  0.25000052  0.86804155  1
  O  O158  1  0.37569906  0.25000825  0.96602249  1
  O  O159  1  0.61888330  0.75006128  0.93205770  1
