# generated using pymatgen
data_Li3PO4
_symmetry_space_group_name_H-M   'P 1'
_cell_length_a   4.97784600
_cell_length_b   6.15119200
_cell_length_c   52.80154396
_cell_angle_alpha   90.00000000
_cell_angle_beta   90.00000000
_cell_angle_gamma   90.00000000
_symmetry_Int_Tables_number   1
_chemical_formula_structural   Li3PO4
_chemical_formula_sum   'Li60 P20 O80'
_cell_volume   1616.76672239
_cell_formula_units_Z   20
loop_
 _symmetry_equiv_pos_site_id
 _symmetry_equiv_pos_as_xyz
  1  'x, y, z'
loop_
 _atom_site_type_symbol
 _atom_site_label
 _atom_site_symmetry_multiplicity
 _atom_site_fract_x
 _atom_site_fract_y
 _atom_site_fract_z
 _atom_site_occupancy
  Li  Li0  1  0.80189633  0.49876598  0.11711111  1
  Li  Li1  1  0.30155732  0.50261770  0.08280957  1
  Li  Li2  1  0.69265594  0.48687561  0.01747187  1
  Li  Li3  1  0.69264576  0.01312949  0.01747403  1
  Li  Li4  1  0.30155727  0.99738947  0.08280990  1
  Li  Li5  1  0.80192573  0.00125040  0.11711167  1
  Li  Li6  1  0.20230141  0.75001399  0.13503976  1
  Li  Li7  1  0.79646894  0.25000002  0.16475436  1
  Li  Li8  1  0.69707574  0.25001357  0.06589152  1
  Li  Li9  1  0.29676653  0.75001073  0.03540620  1
  Li  Li10  1  0.80335885  0.49828361  0.31724639  1
  Li  Li11  1  0.19662810  0.50173347  0.18275411  1
  Li  Li12  1  0.30275723  0.50160543  0.28282572  1
  Li  Li13  1  0.69721435  0.49840512  0.21717468  1
  Li  Li14  1  0.69721660  0.00160251  0.21717368  1
  Li  Li15  1  0.30276165  0.99840522  0.28282508  1
  Li  Li16  1  0.19662745  0.99828069  0.18275341  1
  Li  Li17  1  0.80335774  0.00173342  0.31724581  1
  Li  Li18  1  0.20352422  0.75000262  0.33524575  1
  Li  Li19  1  0.79768945  0.25001523  0.36496099  1
  Li  Li20  1  0.70317270  0.25000435  0.26482494  1
  Li  Li21  1  0.29680232  0.75000467  0.23517493  1
  Li  Li22  1  0.19808285  0.50123926  0.38288812  1
  Li  Li23  1  0.30725386  0.51308492  0.48252323  1
  Li  Li24  1  0.69842699  0.49739794  0.41718962  1
  Li  Li25  1  0.69842719  0.00261893  0.41719058  1
  Li  Li26  1  0.30725469  0.98692665  0.48252338  1
  Li  Li27  1  0.19808918  0.99875762  0.38288912  1
  Li  Li28  1  0.70321723  0.25000533  0.46459238  1
  Li  Li29  1  0.30291403  0.75000347  0.43410846  1
  Li  Li30  1  0.69810483  0.50122557  0.61711051  1
  Li  Li31  1  0.19844468  0.49738388  0.58281122  1
  Li  Li32  1  0.80734405  0.51312061  0.51747424  1
  Li  Li33  1  0.80734411  0.98688089  0.51747423  1
  Li  Li34  1  0.19845176  0.00262951  0.58280944  1
  Li  Li35  1  0.69808174  0.99874833  0.61711306  1
  Li  Li36  1  0.29769794  0.24996990  0.63504059  1
  Li  Li37  1  0.70353818  0.74999442  0.66475450  1
  Li  Li38  1  0.80291966  0.75000318  0.56589125  1
  Li  Li39  1  0.20321985  0.25000160  0.53540617  1
  Li  Li40  1  0.69663110  0.50172824  0.81724703  1
  Li  Li41  1  0.30336742  0.49826261  0.68275502  1
  Li  Li42  1  0.19721515  0.49840714  0.78282593  1
  Li  Li43  1  0.80276715  0.50160967  0.71717515  1
  Li  Li44  1  0.80276614  0.99839255  0.71717438  1
  Li  Li45  1  0.19721826  0.00160145  0.78282656  1
  Li  Li46  1  0.30336633  0.00170994  0.68275419  1
  Li  Li47  1  0.69666128  0.99829158  0.81724965  1
  Li  Li48  1  0.29647494  0.24999364  0.83524624  1
  Li  Li49  1  0.70230785  0.74999283  0.86496166  1
  Li  Li50  1  0.79676674  0.75000108  0.76482484  1
  Li  Li51  1  0.20316661  0.24999978  0.73517364  1
  Li  Li52  1  0.30192546  0.49874689  0.88288814  1
  Li  Li53  1  0.19285757  0.48697316  0.98252068  1
  Li  Li54  1  0.80179567  0.50245937  0.91719037  1
  Li  Li55  1  0.80157182  0.99736489  0.91718845  1
  Li  Li56  1  0.19274050  0.01308198  0.98252369  1
  Li  Li57  1  0.30190928  0.00124225  0.88288891  1
  Li  Li58  1  0.79678749  0.74999659  0.96459256  1
  Li  Li59  1  0.19710387  0.24998579  0.93410947  1
  P  P60  1  0.30557764  0.25004542  0.13221272  1
  P  P61  1  0.69239378  0.75000267  0.16765106  1
  P  P62  1  0.80539241  0.75002205  0.06743439  1
  P  P63  1  0.18767661  0.25000033  0.03303757  1
  P  P64  1  0.30759469  0.25001822  0.33234988  1
  P  P65  1  0.69440756  0.75004292  0.36778781  1
  P  P66  1  0.80686367  0.75001064  0.26771873  1
  P  P67  1  0.19310218  0.24999997  0.23227424  1
  P  P68  1  0.81231847  0.74999793  0.46696100  1
  P  P69  1  0.19458934  0.25001782  0.43256771  1
  P  P70  1  0.19446781  0.74992629  0.63221267  1
  P  P71  1  0.80762750  0.24997675  0.66765320  1
  P  P72  1  0.69461276  0.25000426  0.56743399  1
  P  P73  1  0.31231842  0.75000340  0.53303791  1
  P  P74  1  0.19240688  0.74999504  0.83235254  1
  P  P75  1  0.80560430  0.24995767  0.86778648  1
  P  P76  1  0.69311031  0.25002985  0.76772308  1
  P  P77  1  0.30681958  0.75001386  0.73227953  1
  P  P78  1  0.68771331  0.24999195  0.96696427  1
  P  P79  1  0.30541783  0.74998049  0.93256632  1
  O  O80  1  0.20215376  0.45709799  0.11822572  1
  O  O81  1  0.70106603  0.54406560  0.08156832  1
  O  O82  1  0.28710946  0.45815894  0.01882795  1
  O  O83  1  0.28712155  0.04186824  0.01882641  1
  O  O84  1  0.70107107  0.95599980  0.08156636  1
  O  O85  1  0.20215478  0.04295480  0.11822656  1
  O  O86  1  0.79552983  0.74999702  0.13985888  1
  O  O87  1  0.20233640  0.25004834  0.16000361  1
  O  O88  1  0.29935929  0.25001431  0.06051650  1
  O  O89  1  0.70435980  0.75001170  0.03946129  1
  O  O90  1  0.61911661  0.25003367  0.13193156  1
  O  O91  1  0.37886367  0.75000706  0.16787536  1
  O  O92  1  0.11871347  0.75001294  0.06792664  1
  O  O93  1  0.87550036  0.25003500  0.03395908  1
  O  O94  1  0.20427616  0.45710549  0.31834063  1
  O  O95  1  0.79567193  0.54291260  0.18166099  1
  O  O96  1  0.70389581  0.54295169  0.28175157  1
  O  O97  1  0.29607151  0.45706397  0.21824846  1
  O  O98  1  0.29607447  0.04292234  0.21824674  1
  O  O99  1  0.70389565  0.95708142  0.28175138  1
  O  O100  1  0.79569844  0.95710774  0.18165961  1
  O  O101  1  0.20431239  0.04290245  0.31834020  1
  O  O102  1  0.79763709  0.75004245  0.33999632  1
  O  O103  1  0.20444920  0.25000922  0.36014034  1
  O  O104  1  0.29690695  0.25001197  0.26005340  1
  O  O105  1  0.70300945  0.75000846  0.23994372  1
  O  O106  1  0.62111322  0.25001993  0.33212583  1
  O  O107  1  0.38087267  0.75003449  0.36806795  1
  O  O108  1  0.12036678  0.75001112  0.26792384  1
  O  O109  1  0.87959771  0.25001264  0.23207586  1
  O  O110  1  0.79782690  0.54295749  0.38177299  1
  O  O111  1  0.71286893  0.54186922  0.48117238  1
  O  O112  1  0.29889926  0.45597872  0.41842993  1
  O  O113  1  0.29888833  0.04406781  0.41843135  1
  O  O114  1  0.71286395  0.95812436  0.48117132  1
  O  O115  1  0.79782386  0.95710216  0.38177315  1
  O  O116  1  0.29561217  0.24997732  0.46053909  1
  O  O117  1  0.70063411  0.75001283  0.43948401  1
  O  O118  1  0.12449775  0.75001224  0.46604117  1
  O  O119  1  0.88125428  0.25001442  0.43206779  1
  O  O120  1  0.29784570  0.54283471  0.61822829  1
  O  O121  1  0.79891531  0.45596861  0.58156736  1
  O  O122  1  0.21287558  0.54187228  0.51882690  1
  O  O123  1  0.21287589  0.95813992  0.51882681  1
  O  O124  1  0.79892361  0.04403710  0.58156711  1
  O  O125  1  0.29791418  0.95699270  0.61822600  1
  O  O126  1  0.70447269  0.24998523  0.63985935  1
  O  O127  1  0.29769540  0.74992313  0.66000549  1
  O  O128  1  0.20063340  0.75000683  0.56051585  1
  O  O129  1  0.79562252  0.25000035  0.53946046  1
  O  O130  1  0.88091523  0.74995510  0.63193401  1
  O  O131  1  0.12114455  0.24997330  0.66787536  1
  O  O132  1  0.38129317  0.25000334  0.56792664  1
  O  O133  1  0.62448720  0.75000275  0.53395831  1
  O  O134  1  0.29567596  0.54288942  0.81834337  1
  O  O135  1  0.70433795  0.45705541  0.68166252  1
  O  O136  1  0.79607570  0.45708243  0.78175424  1
  O  O137  1  0.20390763  0.54291087  0.71824891  1
  O  O138  1  0.20390932  0.95709037  0.71824748  1
  O  O139  1  0.79603968  0.04295366  0.78175262  1
  O  O140  1  0.70430688  0.04288383  0.68166085  1
  O  O141  1  0.29567093  0.95709166  0.81834156  1
  O  O142  1  0.70237619  0.24997497  0.83999466  1
  O  O143  1  0.29554721  0.74998089  0.86014461  1
  O  O144  1  0.20302471  0.75000701  0.76005473  1
  O  O145  1  0.79689903  0.24999617  0.73994517  1
  O  O146  1  0.87886747  0.74997540  0.83212967  1
  O  O147  1  0.11914160  0.24996669  0.86806788  1
  O  O148  1  0.37961158  0.25000719  0.76792454  1
  O  O149  1  0.62032485  0.74999798  0.73208070  1
  O  O150  1  0.70220501  0.45704879  0.88177215  1
  O  O151  1  0.78714273  0.45813620  0.98117230  1
  O  O152  1  0.20108301  0.54400798  0.91843349  1
  O  O153  1  0.20114184  0.95594259  0.91843061  1
  O  O154  1  0.78712215  0.04187033  0.98117428  1
  O  O155  1  0.70219184  0.04289759  0.88177439  1
  O  O156  1  0.20442295  0.75000279  0.96053946  1
  O  O157  1  0.79942234  0.24995161  0.93948599  1
  O  O158  1  0.37553073  0.24999474  0.96604003  1
  O  O159  1  0.61874107  0.74995384  0.93206440  1
