# generated using pymatgen
data_Li3PO4
_symmetry_space_group_name_H-M   'P 1'
_cell_length_a   4.97784600
_cell_length_b   6.15119200
_cell_length_c   52.80445910
_cell_angle_alpha   90.00000000
_cell_angle_beta   90.00000000
_cell_angle_gamma   90.00000000
_symmetry_Int_Tables_number   1
_chemical_formula_structural   Li3PO4
_chemical_formula_sum   'Li60 P20 O80'
_cell_volume   1616.85598294
_cell_formula_units_Z   20
loop_
 _symmetry_equiv_pos_site_id
 _symmetry_equiv_pos_as_xyz
  1  'x, y, z'
loop_
 _atom_site_type_symbol
 _atom_site_label
 _atom_site_symmetry_multiplicity
 _atom_site_fract_x
 _atom_site_fract_y
 _atom_site_fract_z
 _atom_site_occupancy
  Li  Li0  1  0.80259785  0.49856250  0.11689832  1
  Li  Li1  1  0.30202251  0.50227905  0.08279195  1
  Li  Li2  1  0.69309874  0.48703836  0.01746651  1
  Li  Li3  1  0.69310211  0.01292004  0.01746206  1
  Li  Li4  1  0.30196263  0.99769006  0.08279165  1
  Li  Li5  1  0.80237223  0.00059529  0.11689202  1
  Li  Li6  1  0.20283761  0.74995138  0.13507595  1
  Li  Li7  1  0.79701736  0.24999103  0.16466703  1
  Li  Li8  1  0.69883188  0.24974520  0.06580399  1
  Li  Li9  1  0.29706800  0.75001216  0.03537996  1
  Li  Li10  1  0.80269759  0.49834784  0.31723694  1
  Li  Li11  1  0.19727330  0.50165792  0.18276302  1
  Li  Li12  1  0.30272216  0.50155502  0.28283456  1
  Li  Li13  1  0.69727582  0.49846199  0.21716621  1
  Li  Li14  1  0.69727048  0.00154930  0.21716549  1
  Li  Li15  1  0.30271666  0.99846138  0.28283441  1
  Li  Li16  1  0.19727306  0.99831433  0.18276609  1
  Li  Li17  1  0.80269939  0.00166449  0.31723764  1
  Li  Li18  1  0.20295112  0.75000427  0.33533779  1
  Li  Li19  1  0.79712874  0.25000385  0.36492678  1
  Li  Li20  1  0.70333147  0.25001952  0.26483608  1
  Li  Li21  1  0.29663734  0.75001793  0.23515991  1
  Li  Li22  1  0.19757931  0.50066603  0.38311292  1
  Li  Li23  1  0.30690544  0.51296356  0.48253352  1
  Li  Li24  1  0.69801517  0.49769255  0.41721012  1
  Li  Li25  1  0.69801561  0.00231224  0.41721021  1
  Li  Li26  1  0.30690580  0.98704266  0.48253350  1
  Li  Li27  1  0.19758253  0.99933280  0.38311285  1
  Li  Li28  1  0.70292456  0.25000223  0.46462109  1
  Li  Li29  1  0.30107773  0.75000182  0.43418696  1
  Li  Li30  1  0.69757753  0.50066684  0.61688674  1
  Li  Li31  1  0.19801042  0.49769638  0.58278988  1
  Li  Li32  1  0.80690365  0.51296418  0.51746649  1
  Li  Li33  1  0.80690353  0.98704218  0.51746604  1
  Li  Li34  1  0.19801814  0.00231540  0.58279009  1
  Li  Li35  1  0.69758085  0.99932946  0.61688720  1
  Li  Li36  1  0.29712359  0.25000295  0.63507337  1
  Li  Li37  1  0.70294711  0.75000093  0.66466231  1
  Li  Li38  1  0.80117815  0.75024502  0.56580553  1
  Li  Li39  1  0.20292426  0.25000269  0.53537912  1
  Li  Li40  1  0.69729293  0.50165497  0.81723690  1
  Li  Li41  1  0.30269517  0.49834207  0.68276243  1
  Li  Li42  1  0.19728723  0.49840434  0.78283497  1
  Li  Li43  1  0.80270652  0.50154229  0.71716585  1
  Li  Li44  1  0.80276890  0.99843043  0.71716606  1
  Li  Li45  1  0.19727482  0.00155491  0.78283458  1
  Li  Li46  1  0.30269462  0.00165383  0.68276363  1
  Li  Li47  1  0.69729246  0.99833951  0.81723786  1
  Li  Li48  1  0.29703976  0.25000137  0.83533711  1
  Li  Li49  1  0.70286254  0.75000263  0.86492724  1
  Li  Li50  1  0.79661866  0.74998770  0.76483947  1
  Li  Li51  1  0.20333264  0.24998335  0.73516588  1
  Li  Li52  1  0.30241205  0.49933386  0.88311225  1
  Li  Li53  1  0.19313873  0.48711864  0.98253613  1
  Li  Li54  1  0.80200013  0.50233710  0.91720781  1
  Li  Li55  1  0.80200396  0.99770181  0.91720933  1
  Li  Li56  1  0.19306140  0.01328607  0.98251463  1
  Li  Li57  1  0.30241564  0.00066913  0.88311277  1
  Li  Li58  1  0.79709783  0.75002500  0.96462026  1
  Li  Li59  1  0.19885340  0.25027730  0.93419151  1
  P  P60  1  0.30649466  0.24987679  0.13214097  1
  P  P61  1  0.80580080  0.74997348  0.06735609  1
  P  P62  1  0.18839284  0.25000454  0.03298161  1
  P  P63  1  0.30700792  0.25001041  0.33238129  1
  P  P64  1  0.69297119  0.74995503  0.16761776  1
  P  P65  1  0.80663013  0.75002841  0.26771773  1
  P  P66  1  0.19336108  0.25002150  0.23228360  1
  P  P67  1  0.69343895  0.75001079  0.36785881  1
  P  P68  1  0.81163046  0.75000380  0.46701640  1
  P  P69  1  0.19417669  0.25000354  0.43264998  1
  P  P70  1  0.19343358  0.75000931  0.63214181  1
  P  P71  1  0.69416900  0.25002826  0.56735088  1
  P  P72  1  0.31163367  0.75000458  0.53298480  1
  P  P73  1  0.19298370  0.75000416  0.83238113  1
  P  P74  1  0.80699955  0.25000192  0.66761922  1
  P  P75  1  0.69334996  0.24998830  0.76771729  1
  P  P76  1  0.30661173  0.74996817  0.73228347  1
  P  P77  1  0.80655263  0.25000312  0.86785965  1
  P  P78  1  0.68850816  0.25011514  0.96700568  1
  P  P79  1  0.30586061  0.75005912  0.93264973  1
  O  O80  1  0.20283560  0.45699406  0.11816835  1
  O  O81  1  0.70141539  0.54399043  0.08147712  1
  O  O82  1  0.28777512  0.45815658  0.01878883  1
  O  O83  1  0.28781230  0.04191308  0.01877834  1
  O  O84  1  0.70136636  0.95596220  0.08147686  1
  O  O85  1  0.20272823  0.04278789  0.11817126  1
  O  O86  1  0.79595250  0.74985265  0.13982070  1
  O  O87  1  0.20397278  0.24988670  0.15995262  1
  O  O88  1  0.30022800  0.24999523  0.06045634  1
  O  O89  1  0.70500770  0.75000341  0.03938192  1
  O  O90  1  0.62003849  0.24983854  0.13177644  1
  O  O91  1  0.11909051  0.75002535  0.06789860  1
  O  O92  1  0.87619723  0.24997782  0.03389762  1
  O  O93  1  0.20375704  0.45712215  0.31836693  1
  O  O94  1  0.79624760  0.54287236  0.18163471  1
  O  O95  1  0.70366264  0.54298870  0.28175545  1
  O  O96  1  0.29630991  0.45707216  0.21824645  1
  O  O97  1  0.29633484  0.04298882  0.21824634  1
  O  O98  1  0.70368358  0.95707396  0.28175369  1
  O  O99  1  0.79625275  0.95707098  0.18163087  1
  O  O100  1  0.20374478  0.04290158  0.31836683  1
  O  O101  1  0.79590229  0.75001220  0.34004464  1
  O  O102  1  0.20401602  0.25001134  0.36017809  1
  O  O103  1  0.29720953  0.25005459  0.26005557  1
  O  O104  1  0.70278342  0.75005231  0.23994572  1
  O  O105  1  0.62054194  0.25001064  0.33212919  1
  O  O106  1  0.37943335  0.74998185  0.16787141  1
  O  O107  1  0.12013533  0.75005482  0.26791376  1
  O  O108  1  0.87986447  0.25004602  0.23208651  1
  O  O109  1  0.79718354  0.54292540  0.38183016  1
  O  O110  1  0.71222130  0.54187201  0.48121282  1
  O  O111  1  0.29861666  0.45596081  0.41852747  1
  O  O112  1  0.29861613  0.04404499  0.41852783  1
  O  O113  1  0.71221456  0.95813566  0.48121277  1
  O  O114  1  0.79719445  0.95709359  0.38183012  1
  O  O115  1  0.29489247  0.25000649  0.46062582  1
  O  O116  1  0.69980013  0.75000286  0.43954142  1
  O  O117  1  0.37989900  0.75001168  0.36823137  1
  O  O118  1  0.12383876  0.75000471  0.46610120  1
  O  O119  1  0.88089002  0.25000128  0.43210623  1
  O  O120  1  0.29718080  0.54292547  0.61817029  1
  O  O121  1  0.79861504  0.45597246  0.58147329  1
  O  O122  1  0.21222522  0.54187577  0.51878782  1
  O  O123  1  0.21221657  0.95813675  0.51878828  1
  O  O124  1  0.79859477  0.04405206  0.58147136  1
  O  O125  1  0.29718747  0.95709578  0.61817048  1
  O  O126  1  0.70399899  0.25000848  0.63982273  1
  O  O127  1  0.29590002  0.75000535  0.65995628  1
  O  O128  1  0.19980384  0.75001189  0.56045926  1
  O  O129  1  0.79488173  0.25000914  0.53937405  1
  O  O130  1  0.87989050  0.75000899  0.63176964  1
  O  O131  1  0.38088322  0.25000107  0.56789611  1
  O  O132  1  0.62384080  0.75000865  0.53389937  1
  O  O133  1  0.29624709  0.54289432  0.81836643  1
  O  O134  1  0.70374462  0.45710779  0.68163334  1
  O  O135  1  0.79632674  0.45702266  0.78175509  1
  O  O136  1  0.20366223  0.54292467  0.71824787  1
  O  O137  1  0.20366442  0.95700605  0.71824504  1
  O  O138  1  0.79629800  0.04293441  0.78175325  1
  O  O139  1  0.70373926  0.04289404  0.68163320  1
  O  O140  1  0.29623685  0.95711556  0.81836623  1
  O  O141  1  0.70407021  0.25000063  0.84004547  1
  O  O142  1  0.29597142  0.75000699  0.86017750  1
  O  O143  1  0.20275636  0.74995357  0.76005509  1
  O  O144  1  0.79718948  0.24995002  0.73994538  1
  O  O145  1  0.87944834  0.74999354  0.83212847  1
  O  O146  1  0.12053245  0.24999797  0.66787200  1
  O  O147  1  0.37984311  0.24996572  0.76791598  1
  O  O148  1  0.62011415  0.74994902  0.73208639  1
  O  O149  1  0.70278757  0.45708311  0.88183045  1
  O  O150  1  0.78790351  0.45820249  0.98121174  1
  O  O151  1  0.20142628  0.54410879  0.91852553  1
  O  O152  1  0.20144864  0.95602249  0.91852836  1
  O  O153  1  0.78784996  0.04197408  0.98120439  1
  O  O154  1  0.70280624  0.04291849  0.88183125  1
  O  O155  1  0.20515139  0.75002870  0.96062624  1
  O  O156  1  0.80040340  0.25008454  0.93953381  1
  O  O157  1  0.12009006  0.25001373  0.86823078  1
  O  O158  1  0.37633041  0.25013617  0.96609208  1
  O  O159  1  0.61915402  0.75000125  0.93210445  1
