# generated using pymatgen
data_Li3PO4
_symmetry_space_group_name_H-M   'P 1'
_cell_length_a   4.97784600
_cell_length_b   6.15119200
_cell_length_c   42.29850385
_cell_angle_alpha   90.00000000
_cell_angle_beta   90.00000000
_cell_angle_gamma   90.00000000
_symmetry_Int_Tables_number   1
_chemical_formula_structural   Li3PO4
_chemical_formula_sum   'Li48 P16 O64'
_cell_volume   1295.16692692
_cell_formula_units_Z   16
loop_
 _symmetry_equiv_pos_site_id
 _symmetry_equiv_pos_as_xyz
  1  'x, y, z'
loop_
 _atom_site_type_symbol
 _atom_site_label
 _atom_site_symmetry_multiplicity
 _atom_site_fract_x
 _atom_site_fract_y
 _atom_site_fract_z
 _atom_site_occupancy
  Li  Li0  1  0.81930974  0.49860774  0.14641237  1
  Li  Li1  1  0.32228414  0.50133549  0.10393050  1
  Li  Li2  1  0.72063428  0.48750308  0.02238503  1
  Li  Li3  1  0.72063243  0.01248772  0.02238522  1
  Li  Li4  1  0.32227490  0.99865354  0.10393006  1
  Li  Li5  1  0.81919202  0.00125060  0.14640680  1
  Li  Li6  1  0.21761268  0.74962141  0.16894356  1
  Li  Li7  1  0.72110934  0.24999625  0.08222456  1
  Li  Li8  1  0.31867230  0.74999728  0.04451913  1
  Li  Li9  1  0.82228697  0.49866312  0.39607035  1
  Li  Li10  1  0.21559695  0.50176794  0.22863996  1
  Li  Li11  1  0.31927236  0.50135688  0.35359076  1
  Li  Li12  1  0.71560347  0.49822894  0.27135857  1
  Li  Li13  1  0.71562076  0.00181021  0.27136076  1
  Li  Li14  1  0.31931943  0.99868682  0.35358704  1
  Li  Li15  1  0.21561460  0.99819515  0.22863854  1
  Li  Li16  1  0.82228366  0.00134267  0.39606948  1
  Li  Li17  1  0.22111257  0.74999941  0.41777561  1
  Li  Li18  1  0.81507462  0.24986502  0.20607593  1
  Li  Li19  1  0.71757070  0.25038758  0.33105708  1
  Li  Li20  1  0.31507506  0.75014668  0.29392163  1
  Li  Li21  1  0.22063520  0.51248986  0.47761461  1
  Li  Li22  1  0.22063394  0.98750982  0.47761497  1
  Li  Li23  1  0.81867077  0.24999840  0.45548087  1
  Li  Li24  1  0.73068086  0.50135734  0.64659011  1
  Li  Li25  1  0.22926746  0.49806295  0.60391997  1
  Li  Li26  1  0.82799068  0.51273998  0.52250271  1
  Li  Li27  1  0.82799097  0.98725587  0.52250264  1
  Li  Li28  1  0.22926965  0.00194128  0.60391930  1
  Li  Li29  1  0.73071876  0.99867394  0.64659733  1
  Li  Li30  1  0.33145752  0.24999979  0.66902816  1
  Li  Li31  1  0.82772421  0.75000186  0.58252191  1
  Li  Li32  1  0.23083939  0.24999820  0.54482874  1
  Li  Li33  1  0.72926770  0.50193640  0.89608093  1
  Li  Li34  1  0.33719658  0.49821439  0.72854043  1
  Li  Li35  1  0.23068244  0.49864307  0.85340930  1
  Li  Li36  1  0.83716676  0.50186269  0.77146139  1
  Li  Li37  1  0.83718062  0.99815250  0.77146641  1
  Li  Li38  1  0.23067743  0.00135382  0.85340892  1
  Li  Li39  1  0.33716618  0.00185499  0.72853994  1
  Li  Li40  1  0.72926654  0.99806004  0.89608089  1
  Li  Li41  1  0.32772344  0.24999865  0.91747870  1
  Li  Li42  1  0.73743217  0.75000133  0.70618589  1
  Li  Li43  1  0.83151556  0.75002781  0.83097267  1
  Li  Li44  1  0.23755040  0.25002590  0.79380491  1
  Li  Li45  1  0.32798879  0.48725142  0.97749821  1
  Li  Li46  1  0.32799000  0.01274089  0.97749837  1
  Li  Li47  1  0.73086512  0.75000438  0.95516763  1
  P  P48  1  0.32428695  0.24990994  0.16552026  1
  P  P49  1  0.82801316  0.74998064  0.08454037  1
  P  P50  1  0.21271760  0.24999767  0.04131330  1
  P  P51  1  0.32802102  0.24999811  0.41545682  1
  P  P52  1  0.70980413  0.74988053  0.20960620  1
  P  P53  1  0.82430544  0.75007169  0.33447626  1
  P  P54  1  0.20980123  0.25011077  0.29039257  1
  P  P55  1  0.71272233  0.74999875  0.45868935  1
  P  P56  1  0.22599840  0.75000707  0.66553806  1
  P  P57  1  0.72177348  0.24999877  0.58471796  1
  P  P58  1  0.33578585  0.75000080  0.54151804  1
  P  P59  1  0.22177830  0.75000090  0.91528557  1
  P  P60  1  0.84062969  0.25002436  0.70968529  1
  P  P61  1  0.72599485  0.25000480  0.83446129  1
  P  P62  1  0.34064969  0.74999912  0.79031411  1
  P  P63  1  0.83578380  0.24999705  0.95848311  1
  O  O64  1  0.22084879  0.45701461  0.14805827  1
  O  O65  1  0.72277382  0.54383202  0.10208289  1
  O  O66  1  0.31313061  0.45857832  0.02390756  1
  O  O67  1  0.31310947  0.04141144  0.02390644  1
  O  O68  1  0.72274092  0.95614408  0.10207845  1
  O  O69  1  0.22074273  0.04289212  0.14805356  1
  O  O70  1  0.81337304  0.74990259  0.17492178  1
  O  O71  1  0.32095617  0.24999730  0.07580690  1
  O  O72  1  0.72842317  0.74997759  0.04957486  1
  O  O73  1  0.63783033  0.24991170  0.16508522  1
  O  O74  1  0.14121799  0.74998886  0.08529146  1
  O  O75  1  0.90023509  0.24999510  0.04212507  1
  O  O76  1  0.22277994  0.45615793  0.39791611  1
  O  O77  1  0.81320563  0.54286063  0.22710313  1
  O  O78  1  0.72084960  0.54299544  0.35194107  1
  O  O79  1  0.31321424  0.45713124  0.27289759  1
  O  O80  1  0.31318046  0.04309919  0.27288989  1
  O  O81  1  0.72080579  0.95710457  0.35194437  1
  O  O82  1  0.81320217  0.95689301  0.22710710  1
  O  O83  1  0.22276750  0.04383535  0.39791601  1
  O  O84  1  0.82096087  0.75000135  0.42419453  1
  O  O85  1  0.22125974  0.24995532  0.20021808  1
  O  O86  1  0.31340430  0.25007864  0.32507596  1
  O  O87  1  0.72126825  0.75004117  0.29978049  1
  O  O88  1  0.64122754  0.25000348  0.41470682  1
  O  O89  1  0.39635458  0.74990434  0.20989870  1
  O  O90  1  0.13785531  0.75005205  0.33491203  1
  O  O91  1  0.89635558  0.25011260  0.29010347  1
  O  O92  1  0.81310805  0.54140933  0.47609591  1
  O  O93  1  0.81311113  0.95858751  0.47609573  1
  O  O94  1  0.22843768  0.24999968  0.45042192  1
  O  O95  1  0.40024569  0.75000007  0.45787541  1
  O  O96  1  0.32940989  0.54289629  0.64809072  1
  O  O97  1  0.82670408  0.45611930  0.60226050  1
  O  O98  1  0.23576474  0.54141141  0.52408174  1
  O  O99  1  0.23575657  0.95858333  0.52408063  1
  O  O100  1  0.82670427  0.04388346  0.60226157  1
  O  O101  1  0.32940807  0.95711850  0.64809005  1
  O  O102  1  0.73698278  0.25001502  0.67500982  1
  O  O103  1  0.22751260  0.75000720  0.57600302  1
  O  O104  1  0.82068985  0.24999370  0.54973383  1
  O  O105  1  0.91235813  0.75000510  0.66512852  1
  O  O106  1  0.40845206  0.25000559  0.58544752  1
  O  O107  1  0.64829357  0.75000426  0.54236127  1
  O  O108  1  0.32669537  0.54388592  0.89774077  1
  O  O109  1  0.73728372  0.45704555  0.72718076  1
  O  O110  1  0.82940238  0.45711512  0.85191039  1
  O  O111  1  0.23732530  0.54297018  0.77281997  1
  O  O112  1  0.23731308  0.95701270  0.77281811  1
  O  O113  1  0.82940945  0.04289973  0.85191113  1
  O  O114  1  0.73730836  0.04299340  0.72718134  1
  O  O115  1  0.32670320  0.95611427  0.89774085  1
  O  O116  1  0.72750081  0.24999157  0.92399789  1
  O  O117  1  0.32890820  0.75000850  0.70023569  1
  O  O118  1  0.23702079  0.75002662  0.82498974  1
  O  O119  1  0.82890816  0.24998733  0.79976392  1
  O  O120  1  0.90844842  0.75000114  0.91455497  1
  O  O121  1  0.15406703  0.25002228  0.70996936  1
  O  O122  1  0.41235396  0.25000581  0.83486937  1
  O  O123  1  0.65408674  0.74998783  0.79003435  1
  O  O124  1  0.73575635  0.45857632  0.97592030  1
  O  O125  1  0.73576056  0.04141226  0.97591941  1
  O  O126  1  0.32067764  0.74999384  0.95026904  1
  O  O127  1  0.14828966  0.24999572  0.95763927  1
