# generated using pymatgen
data_Li3PO4
_symmetry_space_group_name_H-M   'P 1'
_cell_length_a   4.97784600
_cell_length_b   10.55485100
_cell_length_c   52.26306748
_cell_angle_alpha   90.00000000
_cell_angle_beta   90.00000000
_cell_angle_gamma   90.00000000
_symmetry_Int_Tables_number   1
_chemical_formula_structural   Li3PO4
_chemical_formula_sum   'Li96 P32 O128'
_cell_volume   2745.92366359
_cell_formula_units_Z   32
loop_
 _symmetry_equiv_pos_site_id
 _symmetry_equiv_pos_as_xyz
  1  'x, y, z'
loop_
 _atom_site_type_symbol
 _atom_site_label
 _atom_site_symmetry_multiplicity
 _atom_site_fract_x
 _atom_site_fract_y
 _atom_site_fract_z
 _atom_site_occupancy
  Li  Li0  1  0.75983930  0.83815114  0.01329562  1
  Li  Li1  1  0.74018377  0.33816485  0.01329739  1
  Li  Li2  1  0.29720310  0.66521609  0.07253419  1
  Li  Li3  1  0.70733827  0.33337687  0.07279730  1
  Li  Li4  1  0.79263978  0.83331110  0.07280406  1
  Li  Li5  1  0.20298369  0.16520554  0.07255002  1
  Li  Li6  1  0.18604521  0.93957604  0.04840005  1
  Li  Li7  1  0.31399129  0.43956323  0.04840298  1
  Li  Li8  1  0.19615541  0.16303619  0.13249534  1
  Li  Li9  1  0.80244540  0.83600824  0.13185243  1
  Li  Li10  1  0.69761215  0.33599996  0.13184925  1
  Li  Li11  1  0.30375844  0.66308152  0.13248683  1
  Li  Li12  1  0.30293030  0.66408146  0.19071439  1
  Li  Li13  1  0.69824512  0.33640762  0.19127866  1
  Li  Li14  1  0.80120455  0.83680873  0.19129588  1
  Li  Li15  1  0.19704299  0.16408064  0.19071653  1
  Li  Li16  1  0.79859907  0.07413826  0.10210250  1
  Li  Li17  1  0.20124197  0.92528481  0.16190016  1
  Li  Li18  1  0.29825546  0.42514540  0.16180830  1
  Li  Li19  1  0.70145613  0.57414527  0.10210587  1
  Li  Li20  1  0.19926149  0.16475934  0.25029884  1
  Li  Li21  1  0.80197134  0.83762882  0.24990360  1
  Li  Li22  1  0.69907944  0.33698021  0.24976026  1
  Li  Li23  1  0.30083812  0.66478553  0.25029761  1
  Li  Li24  1  0.30274563  0.66494768  0.30873669  1
  Li  Li25  1  0.69696454  0.33750236  0.30924434  1
  Li  Li26  1  0.80316436  0.83727034  0.30924747  1
  Li  Li27  1  0.19787391  0.16494415  0.30874492  1
  Li  Li28  1  0.79634986  0.07523177  0.22047462  1
  Li  Li29  1  0.20354153  0.92624140  0.27962081  1
  Li  Li30  1  0.29690188  0.42624484  0.27957578  1
  Li  Li31  1  0.70372654  0.57527000  0.22047136  1
  Li  Li32  1  0.19749473  0.16498216  0.36813427  1
  Li  Li33  1  0.80508380  0.83795308  0.36745137  1
  Li  Li34  1  0.69497289  0.33795262  0.36744747  1
  Li  Li35  1  0.30252548  0.66497837  0.36813500  1
  Li  Li36  1  0.28980780  0.66719559  0.42700579  1
  Li  Li37  1  0.69975773  0.33502903  0.42739064  1
  Li  Li38  1  0.80025888  0.83503420  0.42739238  1
  Li  Li39  1  0.21020758  0.16717687  0.42700853  1
  Li  Li40  1  0.79895701  0.07563026  0.33810972  1
  Li  Li41  1  0.20318819  0.92662585  0.39779397  1
  Li  Li42  1  0.29686727  0.42661653  0.39779569  1
  Li  Li43  1  0.70113645  0.57561564  0.33811238  1
  Li  Li44  1  0.27118182  0.16181025  0.48645050  1
  Li  Li45  1  0.22865294  0.66172757  0.48640691  1
  Li  Li46  1  0.82438603  0.06060544  0.45145829  1
  Li  Li47  1  0.67564662  0.56059755  0.45145664  1
  Li  Li48  1  0.24027290  0.91217933  0.51328231  1
  Li  Li49  1  0.25937089  0.41214342  0.51327716  1
  Li  Li50  1  0.70288906  0.08485691  0.57257076  1
  Li  Li51  1  0.29164369  0.41671744  0.57279389  1
  Li  Li52  1  0.20732605  0.91669833  0.57281819  1
  Li  Li53  1  0.79663435  0.58489827  0.57256986  1
  Li  Li54  1  0.81396528  0.81056020  0.54842204  1
  Li  Li55  1  0.68573368  0.31095518  0.54852067  1
  Li  Li56  1  0.80375894  0.58693099  0.63254988  1
  Li  Li57  1  0.19771738  0.91399317  0.63188379  1
  Li  Li58  1  0.30185888  0.41401808  0.63189601  1
  Li  Li59  1  0.69610382  0.08692041  0.63254481  1
  Li  Li60  1  0.69705366  0.08567713  0.69081496  1
  Li  Li61  1  0.30108572  0.41313856  0.69131601  1
  Li  Li62  1  0.19888592  0.91312429  0.69131667  1
  Li  Li63  1  0.80273542  0.58587347  0.69084278  1
  Li  Li64  1  0.20138529  0.67589265  0.60211446  1
  Li  Li65  1  0.79888610  0.82472739  0.66193801  1
  Li  Li66  1  0.70092353  0.32464124  0.66194574  1
  Li  Li67  1  0.29804540  0.17613604  0.60212588  1
  Li  Li68  1  0.80244345  0.58522041  0.75041814  1
  Li  Li69  1  0.19794411  0.91220444  0.74992604  1
  Li  Li70  1  0.30206913  0.41221233  0.74991938  1
  Li  Li71  1  0.69756532  0.08522857  0.75041070  1
  Li  Li72  1  0.69777884  0.08494779  0.80879483  1
  Li  Li73  1  0.30302995  0.41217026  0.80931789  1
  Li  Li74  1  0.19667742  0.91224722  0.80934671  1
  Li  Li75  1  0.80261646  0.58484973  0.80883118  1
  Li  Li76  1  0.20359190  0.67448945  0.72049120  1
  Li  Li77  1  0.79650605  0.82370224  0.77963556  1
  Li  Li78  1  0.70352793  0.32373196  0.77963115  1
  Li  Li79  1  0.29641490  0.17447939  0.72048491  1
  Li  Li80  1  0.80238767  0.58502016  0.86815500  1
  Li  Li81  1  0.19573661  0.91215698  0.86745719  1
  Li  Li82  1  0.30509270  0.41204011  0.86746236  1
  Li  Li83  1  0.69771039  0.08502495  0.86815319  1
  Li  Li84  1  0.71019548  0.08286256  0.92701366  1
  Li  Li85  1  0.30021739  0.41499974  0.92739905  1
  Li  Li86  1  0.19979969  0.91499753  0.92739883  1
  Li  Li87  1  0.78984338  0.58285951  0.92701412  1
  Li  Li88  1  0.20157115  0.67424451  0.83818694  1
  Li  Li89  1  0.79711606  0.82345419  0.89784621  1
  Li  Li90  1  0.70297631  0.32343279  0.89784903  1
  Li  Li91  1  0.29897061  0.17432217  0.83812385  1
  Li  Li92  1  0.72866362  0.58839608  0.98641266  1
  Li  Li93  1  0.77135483  0.08840026  0.98641415  1
  Li  Li94  1  0.17567619  0.68946311  0.95146551  1
  Li  Li95  1  0.32432868  0.18945836  0.95146213  1
  P  P96  1  0.69497427  0.08917453  0.04310041  1
  P  P97  1  0.80522414  0.58918553  0.04310273  1
  P  P98  1  0.69223696  0.08849679  0.16150252  1
  P  P99  1  0.30498883  0.91108594  0.10312585  1
  P  P100  1  0.19508646  0.41104726  0.10311958  1
  P  P101  1  0.80770450  0.58853543  0.16150199  1
  P  P102  1  0.69367805  0.08972959  0.27948708  1
  P  P103  1  0.30623698  0.91211638  0.22064039  1
  P  P104  1  0.19383673  0.41205092  0.22060620  1
  P  P105  1  0.80654393  0.58968937  0.27946115  1
  P  P106  1  0.69647468  0.08974939  0.39680689  1
  P  P107  1  0.30814247  0.91257965  0.33848876  1
  P  P108  1  0.19203861  0.41260544  0.33848267  1
  P  P109  1  0.80354811  0.58975155  0.39680707  1
  P  P110  1  0.31302028  0.91160576  0.45671468  1
  P  P111  1  0.18704094  0.41157732  0.45669875  1
  P  P112  1  0.30478386  0.66107748  0.54310424  1
  P  P113  1  0.19476398  0.16119445  0.54314714  1
  P  P114  1  0.30775573  0.66143063  0.66154511  1
  P  P115  1  0.69505924  0.83898437  0.60318651  1
  P  P116  1  0.80448325  0.33909514  0.60321046  1
  P  P117  1  0.19204011  0.16141290  0.66153429  1
  P  P118  1  0.30665311  0.66000764  0.77954975  1
  P  P119  1  0.69396436  0.83782669  0.72070393  1
  P  P120  1  0.80601214  0.33780070  0.72069351  1
  P  P121  1  0.19339969  0.16000797  0.77953687  1
  P  P122  1  0.30364831  0.66030362  0.89683038  1
  P  P123  1  0.69212303  0.83729635  0.83853035  1
  P  P124  1  0.80809952  0.33724619  0.83853248  1
  P  P125  1  0.19646273  0.16030009  0.89682607  1
  P  P126  1  0.68709278  0.83859912  0.95672574  1
  P  P127  1  0.81291670  0.33859077  0.95672451  1
  O  O128  1  0.77589433  0.16342201  0.01876277  1
  O  O129  1  0.72423663  0.66338687  0.01876182  1
  O  O130  1  0.68971618  0.65677055  0.06742074  1
  O  O131  1  0.81052993  0.15671500  0.06741894  1
  O  O132  1  0.81044216  0.95003018  0.04178136  1
  O  O133  1  0.68970630  0.45004891  0.04179939  1
  O  O134  1  0.38661438  0.08225621  0.04535519  1
  O  O135  1  0.11358939  0.58225733  0.04535349  1
  O  O136  1  0.79433349  0.15812378  0.13703995  1
  O  O137  1  0.20604620  0.84140873  0.12764042  1
  O  O138  1  0.29402502  0.34133523  0.12763240  1
  O  O139  1  0.70567372  0.65812552  0.13702976  1
  O  O140  1  0.70367217  0.65900657  0.18581059  1
  O  O141  1  0.30595986  0.34026366  0.07906302  1
  O  O142  1  0.19413648  0.84030842  0.07906578  1
  O  O143  1  0.79627096  0.15886253  0.18582272  1
  O  O144  1  0.20288632  0.05009265  0.10293789  1
  O  O145  1  0.79590885  0.94951994  0.16155465  1
  O  O146  1  0.70406891  0.44953690  0.16155606  1
  O  O147  1  0.29722225  0.55003464  0.10292976  1
  O  O148  1  0.37874811  0.08935388  0.16164503  1
  O  O149  1  0.61833256  0.90912702  0.10232673  1
  O  O150  1  0.88174006  0.40909690  0.10232242  1
  O  O151  1  0.12121277  0.58937795  0.16164288  1
  O  O152  1  0.79615546  0.15941304  0.25504566  1
  O  O153  1  0.20378495  0.84243749  0.24508881  1
  O  O154  1  0.29633314  0.34225776  0.24503878  1
  O  O155  1  0.70414922  0.65967414  0.25505294  1
  O  O156  1  0.70304465  0.66010364  0.30378806  1
  O  O157  1  0.29744091  0.34152736  0.19629783  1
  O  O158  1  0.20252333  0.84159465  0.19633819  1
  O  O159  1  0.79725109  0.16029412  0.30378763  1
  O  O160  1  0.20287402  0.05114472  0.22055316  1
  O  O161  1  0.79740485  0.95079635  0.27958843  1
  O  O162  1  0.70283821  0.45074453  0.27951411  1
  O  O163  1  0.29716890  0.55107690  0.22054371  1
  O  O164  1  0.38015772  0.09052470  0.27956217  1
  O  O165  1  0.61979774  0.91107853  0.22057047  1
  O  O166  1  0.88025935  0.41103785  0.22052817  1
  O  O167  1  0.12007517  0.59049370  0.27955502  1
  O  O168  1  0.79485068  0.15976671  0.37231060  1
  O  O169  1  0.20628874  0.84279539  0.36294635  1
  O  O170  1  0.29383824  0.34276265  0.36293555  1
  O  O171  1  0.70517832  0.65978092  0.37231264  1
  O  O172  1  0.69276425  0.66030780  0.42090612  1
  O  O173  1  0.29621223  0.34230036  0.31416456  1
  O  O174  1  0.20405640  0.84222685  0.31417410  1
  O  O175  1  0.80726275  0.16030777  0.42090564  1
  O  O176  1  0.20415322  0.05149658  0.33844676  1
  O  O177  1  0.79903363  0.95083291  0.39697575  1
  O  O178  1  0.70099160  0.45083066  0.39697471  1
  O  O179  1  0.29597929  0.55151736  0.33845339  1
  O  O180  1  0.38308212  0.09166918  0.39758660  1
  O  O181  1  0.62162308  0.91176910  0.33834874  1
  O  O182  1  0.87857621  0.41179079  0.33834142  1
  O  O183  1  0.11692855  0.59166983  0.39758566  1
  O  O184  1  0.23211073  0.83739457  0.48104615  1
  O  O185  1  0.26796846  0.33740654  0.48103633  1
  O  O186  1  0.30525226  0.34453759  0.43243376  1
  O  O187  1  0.19478725  0.84458615  0.43244577  1
  O  O188  1  0.19974000  0.05113756  0.45810872  1
  O  O189  1  0.30035416  0.55110594  0.45808217  1
  O  O190  1  0.62128756  0.91826997  0.45447010  1
  O  O191  1  0.87876403  0.41825981  0.45446205  1
  O  O192  1  0.22378780  0.58694001  0.51875560  1
  O  O193  1  0.27547471  0.08692912  0.51880515  1
  O  O194  1  0.31035204  0.09357451  0.56745916  1
  O  O195  1  0.18890892  0.59347498  0.56740643  1
  O  O196  1  0.18962472  0.80027407  0.54178925  1
  O  O197  1  0.31031173  0.30031797  0.54180465  1
  O  O198  1  0.61314173  0.66791550  0.54538623  1
  O  O199  1  0.88644744  0.16826478  0.54542993  1
  O  O200  1  0.20593124  0.59196836  0.63705510  1
  O  O201  1  0.79392457  0.90862411  0.62770959  1
  O  O202  1  0.70581050  0.40861802  0.62775391  1
  O  O203  1  0.29379437  0.09199582  0.63703500  1
  O  O204  1  0.29653607  0.09085336  0.68581465  1
  O  O205  1  0.69325576  0.40999028  0.57917744  1
  O  O206  1  0.80602807  0.90977280  0.57912877  1
  O  O207  1  0.20336712  0.59091935  0.68583628  1
  O  O208  1  0.79703754  0.69997432  0.60299350  1
  O  O209  1  0.20412601  0.80043025  0.66161110  1
  O  O210  1  0.29557206  0.30042187  0.66161141  1
  O  O211  1  0.70260915  0.20006996  0.60299213  1
  O  O212  1  0.62126234  0.66059715  0.66173547  1
  O  O213  1  0.38170295  0.84096772  0.60236118  1
  O  O214  1  0.11784064  0.34115444  0.60236166  1
  O  O215  1  0.87853156  0.16053560  0.66172956  1
  O  O216  1  0.20422754  0.59014520  0.75512518  1
  O  O217  1  0.79604735  0.90768666  0.74514598  1
  O  O218  1  0.70399346  0.40766228  0.74513736  1
  O  O219  1  0.29581345  0.09012843  0.75511675  1
  O  O220  1  0.29680669  0.08956060  0.80386187  1
  O  O221  1  0.70229730  0.40836190  0.69639133  1
  O  O222  1  0.79766314  0.90833428  0.69639653  1
  O  O223  1  0.20319008  0.58953852  0.80387191  1
  O  O224  1  0.79780185  0.69888461  0.72065619  1
  O  O225  1  0.20273033  0.79892802  0.77962409  1
  O  O226  1  0.29738074  0.29891379  0.77960968  1
  O  O227  1  0.70214668  0.19885143  0.72063815  1
  O  O228  1  0.62016654  0.65933774  0.77962883  1
  O  O229  1  0.38040895  0.83864440  0.72060538  1
  O  O230  1  0.11957814  0.33859570  0.72059563  1
  O  O231  1  0.87987318  0.15938303  0.77960990  1
  O  O232  1  0.20533383  0.59021927  0.87234209  1
  O  O233  1  0.79397170  0.90720853  0.86297020  1
  O  O234  1  0.70630139  0.40714321  0.86297532  1
  O  O235  1  0.29488479  0.09029085  0.87233281  1
  O  O236  1  0.30722571  0.08973354  0.92092597  1
  O  O237  1  0.70397749  0.40750709  0.81421186  1
  O  O238  1  0.79612431  0.90755908  0.81420534  1
  O  O239  1  0.19283640  0.58976194  0.92092975  1
  O  O240  1  0.79604913  0.69837783  0.83849979  1
  O  O241  1  0.20107506  0.79920846  0.89699096  1
  O  O242  1  0.29906114  0.29920162  0.89699755  1
  O  O243  1  0.70414682  0.19833983  0.83849188  1
  O  O244  1  0.61700634  0.65842067  0.89760733  1
  O  O245  1  0.37866544  0.83807131  0.83839761  1
  O  O246  1  0.12155631  0.33806428  0.83839594  1
  O  O247  1  0.88307706  0.15840198  0.89760217  1
  O  O248  1  0.76807879  0.91285343  0.98104930  1
  O  O249  1  0.73195455  0.41284620  0.98104959  1
  O  O250  1  0.69474376  0.40559825  0.93244979  1
  O  O251  1  0.80528425  0.90559657  0.93245068  1
  O  O252  1  0.80042118  0.69907870  0.95810350  1
  O  O253  1  0.69956899  0.19907363  0.95810207  1
  O  O254  1  0.37883601  0.83187783  0.95448784  1
  O  O255  1  0.12117370  0.33186649  0.95448516  1
