# generated using pymatgen
data_Li3PO4
_symmetry_space_group_name_H-M   'P 1'
_cell_length_a   4.97784600
_cell_length_b   10.55485100
_cell_length_c   49.40158153
_cell_angle_alpha   90.00000000
_cell_angle_beta   90.00000000
_cell_angle_gamma   90.00000000
_symmetry_Int_Tables_number   1
_chemical_formula_structural   Li3PO4
_chemical_formula_sum   'Li96 P32 O128'
_cell_volume   2595.57998184
_cell_formula_units_Z   32
loop_
 _symmetry_equiv_pos_site_id
 _symmetry_equiv_pos_as_xyz
  1  'x, y, z'
loop_
 _atom_site_type_symbol
 _atom_site_label
 _atom_site_symmetry_multiplicity
 _atom_site_fract_x
 _atom_site_fract_y
 _atom_site_fract_z
 _atom_site_occupancy
  Li  Li0  1  0.81332142  0.84568606  0.00178781  1
  Li  Li1  1  0.68664684  0.34570036  0.00178812  1
  Li  Li2  1  0.31791336  0.66583279  0.06271648  1
  Li  Li3  1  0.68801012  0.33750643  0.06350755  1
  Li  Li4  1  0.81202307  0.83751403  0.06350332  1
  Li  Li5  1  0.18216836  0.16584090  0.06274317  1
  Li  Li6  1  0.30792758  0.91231700  0.03216538  1
  Li  Li7  1  0.19212928  0.41233896  0.03216165  1
  Li  Li8  1  0.19695334  0.16499996  0.12576175  1
  Li  Li9  1  0.80281117  0.83723557  0.12535306  1
  Li  Li10  1  0.69720011  0.33728179  0.12534206  1
  Li  Li11  1  0.30315783  0.66500827  0.12575178  1
  Li  Li12  1  0.30330617  0.66462882  0.18749137  1
  Li  Li13  1  0.69714765  0.33693001  0.18821781  1
  Li  Li14  1  0.80287335  0.83693492  0.18821736  1
  Li  Li15  1  0.19666431  0.16462534  0.18749243  1
  Li  Li16  1  0.79363262  0.07567899  0.09443400  1
  Li  Li17  1  0.20219661  0.92610579  0.15672712  1
  Li  Li18  1  0.29788441  0.42612205  0.15673186  1
  Li  Li19  1  0.70709131  0.57612599  0.09436658  1
  Li  Li20  1  0.19709327  0.16390890  0.25011255  1
  Li  Li21  1  0.80293241  0.83607500  0.24989028  1
  Li  Li22  1  0.69708334  0.33607858  0.24989068  1
  Li  Li23  1  0.30293040  0.66391054  0.25011130  1
  Li  Li24  1  0.30294704  0.66338722  0.31183279  1
  Li  Li25  1  0.69768244  0.33532691  0.31257785  1
  Li  Li26  1  0.80232892  0.83532648  0.31257796  1
  Li  Li27  1  0.19707377  0.16338859  0.31183345  1
  Li  Li28  1  0.79617620  0.07481269  0.21879313  1
  Li  Li29  1  0.20368752  0.92519214  0.28121633  1
  Li  Li30  1  0.29633780  0.42518910  0.28121575  1
  Li  Li31  1  0.70384394  0.57481079  0.21879223  1
  Li  Li32  1  0.19699166  0.16306467  0.37466585  1
  Li  Li33  1  0.80154726  0.83617560  0.37427497  1
  Li  Li34  1  0.69846142  0.33617952  0.37427505  1
  Li  Li35  1  0.30301680  0.66306153  0.37466532  1
  Li  Li36  1  0.30243304  0.66599758  0.43629104  1
  Li  Li37  1  0.70020258  0.33565857  0.43723448  1
  Li  Li38  1  0.79975717  0.83564677  0.43724166  1
  Li  Li39  1  0.19745285  0.16593742  0.43629940  1
  Li  Li40  1  0.79604076  0.07452579  0.34322140  1
  Li  Li41  1  0.20085541  0.92552562  0.40565331  1
  Li  Li42  1  0.29915673  0.42551899  0.40565513  1
  Li  Li43  1  0.70397087  0.57452398  0.34322048  1
  Li  Li44  1  0.33826097  0.15551800  0.49835175  1
  Li  Li45  1  0.16173600  0.65549874  0.49834811  1
  Li  Li46  1  0.80471686  0.07783533  0.46744829  1
  Li  Li47  1  0.69529111  0.57783119  0.46744618  1
  Li  Li48  1  0.68653930  0.40426635  0.50180216  1
  Li  Li49  1  0.81347148  0.90426897  0.50180265  1
  Li  Li50  1  0.18188734  0.58530218  0.56278697  1
  Li  Li51  1  0.81193841  0.91290773  0.56352828  1
  Li  Li52  1  0.68805971  0.41291113  0.56352952  1
  Li  Li53  1  0.31810456  0.08530371  0.56278795  1
  Li  Li54  1  0.19229187  0.33801905  0.53224113  1
  Li  Li55  1  0.30784247  0.83798039  0.53222564  1
  Li  Li56  1  0.30236130  0.08664872  0.62575761  1
  Li  Li57  1  0.69667829  0.41345329  0.62533547  1
  Li  Li58  1  0.80333012  0.91344752  0.62533771  1
  Li  Li59  1  0.19764608  0.58665043  0.62575749  1
  Li  Li60  1  0.19798059  0.58680585  0.68757193  1
  Li  Li61  1  0.80253109  0.91415546  0.68818983  1
  Li  Li62  1  0.69744942  0.41405458  0.68819155  1
  Li  Li63  1  0.30202607  0.08681322  0.68757147  1
  Li  Li64  1  0.70529118  0.17515010  0.59454181  1
  Li  Li65  1  0.29651474  0.32495754  0.65670647  1
  Li  Li66  1  0.20348723  0.82495307  0.65670710  1
  Li  Li67  1  0.79470632  0.67514993  0.59454056  1
  Li  Li68  1  0.30300142  0.08607813  0.75011252  1
  Li  Li69  1  0.69687994  0.41379298  0.74989417  1
  Li  Li70  1  0.80312809  0.91379920  0.74989374  1
  Li  Li71  1  0.19700650  0.58607907  0.75010941  1
  Li  Li72  1  0.19742140  0.58541463  0.81181258  1
  Li  Li73  1  0.80153682  0.91309166  0.81249908  1
  Li  Li74  1  0.69844715  0.41309385  0.81249845  1
  Li  Li75  1  0.30227038  0.08527911  0.81187249  1
  Li  Li76  1  0.70369895  0.17541378  0.71880559  1
  Li  Li77  1  0.29633914  0.32446297  0.78120626  1
  Li  Li78  1  0.20366872  0.82448404  0.78120485  1
  Li  Li79  1  0.79630193  0.67542120  0.71880219  1
  Li  Li80  1  0.30303439  0.08583468  0.87475983  1
  Li  Li81  1  0.69841409  0.41282706  0.87422413  1
  Li  Li82  1  0.80158512  0.91282833  0.87422511  1
  Li  Li83  1  0.19697754  0.58583381  0.87475748  1
  Li  Li84  1  0.19760726  0.58382827  0.93628982  1
  Li  Li85  1  0.79967714  0.91355293  0.93719282  1
  Li  Li86  1  0.70024325  0.41334628  0.93719051  1
  Li  Li87  1  0.30237476  0.08385386  0.93629027  1
  Li  Li88  1  0.70311589  0.17486544  0.84320367  1
  Li  Li89  1  0.29910843  0.32403689  0.90563019  1
  Li  Li90  1  0.20055755  0.82393139  0.90564759  1
  Li  Li91  1  0.79687747  0.67486182  0.84320494  1
  Li  Li92  1  0.16222964  0.09436982  0.99829574  1
  Li  Li93  1  0.33751597  0.59457625  0.99825274  1
  Li  Li94  1  0.69583307  0.17164740  0.96742787  1
  Li  Li95  1  0.80396072  0.67168236  0.96741602  1
  P  P96  1  0.66957268  0.08995328  0.03220011  1
  P  P97  1  0.83043051  0.58999046  0.03217785  1
  P  P98  1  0.69300525  0.08941684  0.15671690  1
  P  P99  1  0.30803520  0.91315668  0.09437781  1
  P  P100  1  0.19203892  0.41326286  0.09435856  1
  P  P101  1  0.80700053  0.58940045  0.15671769  1
  P  P102  1  0.69329995  0.08842906  0.28107796  1
  P  P103  1  0.30666476  0.91157944  0.21892400  1
  P  P104  1  0.19335895  0.41157575  0.21892266  1
  P  P105  1  0.80672007  0.58843084  0.28107696  1
  P  P106  1  0.69254325  0.08840845  0.40552691  1
  P  P107  1  0.30649883  0.91101018  0.34334087  1
  P  P108  1  0.19351304  0.41100996  0.34333900  1
  P  P109  1  0.80746175  0.58841004  0.40552693  1
  P  P110  1  0.30452663  0.91240539  0.46792696  1
  P  P111  1  0.19548646  0.41240970  0.46792795  1
  P  P112  1  0.83054591  0.16031182  0.53224017  1
  P  P113  1  0.66940940  0.66030191  0.53223181  1
  P  P114  1  0.80641915  0.16142540  0.65672632  1
  P  P115  1  0.19163887  0.33787275  0.59440635  1
  P  P116  1  0.30837066  0.83787365  0.59440462  1
  P  P117  1  0.69358574  0.66140954  0.65672927  1
  P  P118  1  0.80674791  0.16100834  0.78106452  1
  P  P119  1  0.19325297  0.33879983  0.71895182  1
  P  P120  1  0.30676569  0.83882031  0.71894845  1
  P  P121  1  0.69325281  0.66102120  0.78105993  1
  P  P122  1  0.80704206  0.16069553  0.90548386  1
  P  P123  1  0.19366675  0.33794917  0.84333179  1
  P  P124  1  0.30633672  0.83791857  0.84333617  1
  P  P125  1  0.69293430  0.66067959  0.90548696  1
  P  P126  1  0.19588338  0.33732007  0.96789910  1
  P  P127  1  0.30401069  0.83736196  0.96789260  1
  O  O128  1  0.79024923  0.15094034  0.00629068  1
  O  O129  1  0.70961784  0.65094176  0.00627151  1
  O  O130  1  0.71558470  0.65684678  0.05782040  1
  O  O131  1  0.29100273  0.34387839  0.06826222  1
  O  O132  1  0.20902900  0.84388765  0.06827373  1
  O  O133  1  0.78448329  0.15674389  0.05784663  1
  O  O134  1  0.72807038  0.94454084  0.03279440  1
  O  O135  1  0.77197722  0.44458067  0.03279157  1
  O  O136  1  0.35809200  0.10302072  0.03179986  1
  O  O137  1  0.14190863  0.60310701  0.03176849  1
  O  O138  1  0.79654358  0.15969633  0.13098017  1
  O  O139  1  0.20196357  0.84220559  0.11993551  1
  O  O140  1  0.29804617  0.34232384  0.11992323  1
  O  O141  1  0.70348099  0.65968035  0.13097902  1
  O  O142  1  0.70465805  0.65958195  0.18253138  1
  O  O143  1  0.29566922  0.34148089  0.19310819  1
  O  O144  1  0.20434290  0.84148805  0.19310739  1
  O  O145  1  0.79532557  0.15957238  0.18253193  1
  O  O146  1  0.20327900  0.05189383  0.09437009  1
  O  O147  1  0.79727007  0.95057123  0.15678628  1
  O  O148  1  0.70272689  0.45055125  0.15679413  1
  O  O149  1  0.29681654  0.55200830  0.09432719  1
  O  O150  1  0.37949425  0.09010656  0.15661658  1
  O  O151  1  0.62143109  0.91129478  0.09469080  1
  O  O152  1  0.87863161  0.41146299  0.09467430  1
  O  O153  1  0.12051498  0.59010712  0.15662117  1
  O  O154  1  0.79696023  0.15865683  0.25534164  1
  O  O155  1  0.20293606  0.84130042  0.24465665  1
  O  O156  1  0.29711149  0.34130127  0.24465434  1
  O  O157  1  0.70305804  0.65864188  0.25534042  1
  O  O158  1  0.70425857  0.65861506  0.30687944  1
  O  O159  1  0.29606580  0.34068353  0.31756145  1
  O  O160  1  0.20394569  0.84067490  0.31756440  1
  O  O161  1  0.79577616  0.15862021  0.30687966  1
  O  O162  1  0.20284560  0.05047623  0.21882861  1
  O  O163  1  0.79709798  0.94953437  0.28118953  1
  O  O164  1  0.70290740  0.44954188  0.28118916  1
  O  O165  1  0.29721338  0.55046282  0.21882815  1
  O  O166  1  0.37978181  0.08934622  0.28099909  1
  O  O167  1  0.62017541  0.91067148  0.21903689  1
  O  O168  1  0.87986754  0.41066272  0.21903687  1
  O  O169  1  0.12022564  0.58934185  0.28099551  1
  O  O170  1  0.79588527  0.15838993  0.37975006  1
  O  O171  1  0.20334904  0.84098335  0.36913338  1
  O  O172  1  0.29667587  0.34097576  0.36913088  1
  O  O173  1  0.70410658  0.65837676  0.37974803  1
  O  O174  1  0.70315339  0.65871621  0.43125819  1
  O  O175  1  0.30061728  0.34260141  0.44219626  1
  O  O176  1  0.19937769  0.84260715  0.44219584  1
  O  O177  1  0.79688113  0.15869729  0.43125716  1
  O  O178  1  0.20234947  0.04988348  0.34326456  1
  O  O179  1  0.79542797  0.94940288  0.40561244  1
  O  O180  1  0.70455630  0.44940660  0.40561450  1
  O  O181  1  0.29763291  0.54989053  0.34326312  1
  O  O182  1  0.37911024  0.08976578  0.40558576  1
  O  O183  1  0.61999291  0.91029811  0.34337347  1
  O  O184  1  0.88002082  0.41028879  0.34337356  1
  O  O185  1  0.12090301  0.58975396  0.40558270  1
  O  O186  1  0.18993677  0.84720592  0.49379156  1
  O  O187  1  0.31010998  0.34721465  0.49379328  1
  O  O188  1  0.20778500  0.05319103  0.46780347  1
  O  O189  1  0.29221166  0.55320311  0.46780132  1
  O  O190  1  0.61717606  0.90800789  0.46787732  1
  O  O191  1  0.88283642  0.40799934  0.46787663  1
  O  O192  1  0.71008820  0.09911160  0.50633813  1
  O  O193  1  0.78990923  0.59910545  0.50633163  1
  O  O194  1  0.78444168  0.59373852  0.55789936  1
  O  O195  1  0.20932132  0.90706386  0.56830089  1
  O  O196  1  0.29069985  0.40707756  0.56830446  1
  O  O197  1  0.71550359  0.09374700  0.55790689  1
  O  O198  1  0.77195694  0.30572840  0.53281889  1
  O  O199  1  0.72798304  0.80572213  0.53281393  1
  O  O200  1  0.14201641  0.14730430  0.53184151  1
  O  O201  1  0.35793838  0.64727510  0.53183586  1
  O  O202  1  0.70316178  0.09113118  0.63098428  1
  O  O203  1  0.29755862  0.40886380  0.61996215  1
  O  O204  1  0.20244706  0.90885735  0.61996180  1
  O  O205  1  0.79683491  0.59114564  0.63098225  1
  O  O206  1  0.79588366  0.59116671  0.68252530  1
  O  O207  1  0.20426154  0.90918589  0.69317501  1
  O  O208  1  0.29574791  0.40917209  0.69317675  1
  O  O209  1  0.70409972  0.09120750  0.68252481  1
  O  O210  1  0.29661099  0.19914444  0.59439398  1
  O  O211  1  0.70212927  0.30027005  0.65678595  1
  O  O212  1  0.79788564  0.80025323  0.65679788  1
  O  O213  1  0.20339919  0.69914280  0.59439078  1
  O  O214  1  0.11992679  0.16081076  0.65665429  1
  O  O215  1  0.87827331  0.33939003  0.59472438  1
  O  O216  1  0.62174530  0.83939802  0.59472372  1
  O  O217  1  0.38007155  0.66080471  0.65665643  1
  O  O218  1  0.70314293  0.09110374  0.75528570  1
  O  O219  1  0.29689871  0.40873408  0.74472773  1
  O  O220  1  0.20312386  0.90873921  0.74472593  1
  O  O221  1  0.79685675  0.59111682  0.75528289  1
  O  O222  1  0.79593424  0.59056197  0.80682065  1
  O  O223  1  0.20377154  0.90824032  0.81756298  1
  O  O224  1  0.29619219  0.40828106  0.81755826  1
  O  O225  1  0.70402727  0.09055000  0.80682510  1
  O  O226  1  0.29709464  0.19990656  0.71885756  1
  O  O227  1  0.70301823  0.29992232  0.78117387  1
  O  O228  1  0.79697888  0.79993188  0.78117284  1
  O  O229  1  0.20293153  0.69992580  0.71885526  1
  O  O230  1  0.12023962  0.16014006  0.78101224  1
  O  O231  1  0.87977126  0.33960153  0.71902696  1
  O  O232  1  0.62024636  0.83963413  0.71902050  1
  O  O233  1  0.37975334  0.66016710  0.78100761  1
  O  O234  1  0.70388301  0.09067145  0.87971253  1
  O  O235  1  0.29668242  0.40805842  0.86911959  1
  O  O236  1  0.20333680  0.90805163  0.86912298  1
  O  O237  1  0.79609426  0.59066848  0.87971227  1
  O  O238  1  0.79717286  0.59045520  0.93122766  1
  O  O239  1  0.19897259  0.90716953  0.94216197  1
  O  O240  1  0.30091005  0.40708439  0.94215982  1
  O  O241  1  0.70277187  0.09049307  0.93122668  1
  O  O242  1  0.29762295  0.19905605  0.84328373  1
  O  O243  1  0.70415381  0.29970818  0.90557156  1
  O  O244  1  0.79581825  0.79969436  0.90557646  1
  O  O245  1  0.20240198  0.69903301  0.84328198  1
  O  O246  1  0.12052316  0.15952776  0.90556245  1
  O  O247  1  0.88017542  0.33867646  0.84335116  1
  O  O248  1  0.61983067  0.83867465  0.84335495  1
  O  O249  1  0.37945067  0.65951429  0.90556502  1
  O  O250  1  0.31038800  0.40269636  0.99375171  1
  O  O251  1  0.18958069  0.90265364  0.99375776  1
  O  O252  1  0.29286289  0.19655879  0.96778948  1
  O  O253  1  0.20701253  0.69661000  0.96776826  1
  O  O254  1  0.88327306  0.34160285  0.96784718  1
  O  O255  1  0.61663520  0.84163594  0.96784175  1
