# generated using pymatgen
data_Li3PO4
_symmetry_space_group_name_H-M   'P 1'
_cell_length_a   4.97784600
_cell_length_b   12.21646600
_cell_length_c   42.94951635
_cell_angle_alpha   90.00000000
_cell_angle_beta   90.00000000
_cell_angle_gamma   90.00000000
_symmetry_Int_Tables_number   1
_chemical_formula_structural   Li3PO4
_chemical_formula_sum   'Li96 P32 O128'
_cell_volume   2611.83251975
_cell_formula_units_Z   32
loop_
 _symmetry_equiv_pos_site_id
 _symmetry_equiv_pos_as_xyz
  1  'x, y, z'
loop_
 _atom_site_type_symbol
 _atom_site_label
 _atom_site_symmetry_multiplicity
 _atom_site_fract_x
 _atom_site_fract_y
 _atom_site_fract_z
 _atom_site_occupancy
  Li  Li0  1  0.36903251  0.04550609  0.01123111  1
  Li  Li1  1  0.68361585  0.32423130  0.04043755  1
  Li  Li2  1  0.30662275  0.53107708  0.08567392  1
  Li  Li3  1  0.69915869  0.44799469  0.98165673  1
  Li  Li4  1  0.85469723  0.82882254  0.05393211  1
  Li  Li5  1  0.24958882  0.02340998  0.08070230  1
  Li  Li6  1  0.37262935  0.83310656  0.01563046  1
  Li  Li7  1  0.30122883  0.29101289  0.08315964  1
  Li  Li8  1  0.69493996  0.56396747  0.05004208  1
  Li  Li9  1  0.20640045  0.89337666  0.14594103  1
  Li  Li10  1  0.82294941  0.65150999  0.10736230  1
  Li  Li11  1  0.70047932  0.02412802  0.16665574  1
  Li  Li12  1  0.30045394  0.26633802  0.20749477  1
  Li  Li13  1  0.30780881  0.39450673  0.14591391  1
  Li  Li14  1  0.68797492  0.15710334  0.10144521  1
  Li  Li15  1  0.80838354  0.52021921  0.16849617  1
  Li  Li16  1  0.20327416  0.76729227  0.20898643  1
  Li  Li17  1  0.71190323  0.88974245  0.10994434  1
  Li  Li18  1  0.21282959  0.65386031  0.14864456  1
  Li  Li19  1  0.29787503  0.02568502  0.20858335  1
  Li  Li20  1  0.70079976  0.25966794  0.16517768  1
  Li  Li21  1  0.20046367  0.63890387  0.27077211  1
  Li  Li22  1  0.80683859  0.39522514  0.22916355  1
  Li  Li23  1  0.69733113  0.77127415  0.29109168  1
  Li  Li24  1  0.30332475  0.01524014  0.33265721  1
  Li  Li25  1  0.30138889  0.14099643  0.26958576  1
  Li  Li26  1  0.69887356  0.89694241  0.23012217  1
  Li  Li27  1  0.80263897  0.26738257  0.29168458  1
  Li  Li28  1  0.20152845  0.51432391  0.33182636  1
  Li  Li29  1  0.80355111  0.63633774  0.22899568  1
  Li  Li30  1  0.20513365  0.39749157  0.27171826  1
  Li  Li31  1  0.29966303  0.77566306  0.33329786  1
  Li  Li32  1  0.70193802  0.01283304  0.29017336  1
  Li  Li33  1  0.19881952  0.38871713  0.39474121  1
  Li  Li34  1  0.80381992  0.14462127  0.35427239  1
  Li  Li35  1  0.69853671  0.51812042  0.41278057  1
  Li  Li36  1  0.30536422  0.75925873  0.45416491  1
  Li  Li37  1  0.30268584  0.88966994  0.39368225  1
  Li  Li38  1  0.70132570  0.64421195  0.35257613  1
  Li  Li39  1  0.80258138  0.01447829  0.41606956  1
  Li  Li40  1  0.21107823  0.26828979  0.46018011  1
  Li  Li41  1  0.79954243  0.38415253  0.35155439  1
  Li  Li42  1  0.20384006  0.14992481  0.39670462  1
  Li  Li43  1  0.22115054  0.51804727  0.45694035  1
  Li  Li44  1  0.70356122  0.75693922  0.41327865  1
  Li  Li45  1  0.66977578  0.88162732  0.48226134  1
  Li  Li46  1  0.34610683  0.63376907  0.51921199  1
  Li  Li47  1  0.81222028  0.13947919  0.46968128  1
  Li  Li48  1  0.13342416  0.80371054  0.51133869  1
  Li  Li49  1  0.81545817  0.52482736  0.54049488  1
  Li  Li50  1  0.19551205  0.31812860  0.58547891  1
  Li  Li51  1  0.79913449  0.40195790  0.48176665  1
  Li  Li52  1  0.64729560  0.02115455  0.55365999  1
  Li  Li53  1  0.25294482  0.82633554  0.58085675  1
  Li  Li54  1  0.12977676  0.01641360  0.51537502  1
  Li  Li55  1  0.19703726  0.55821981  0.58312212  1
  Li  Li56  1  0.80424717  0.28617862  0.55024569  1
  Li  Li57  1  0.29228489  0.95640351  0.64599753  1
  Li  Li58  1  0.67832734  0.19821134  0.60742720  1
  Li  Li59  1  0.79940107  0.82439758  0.66667083  1
  Li  Li60  1  0.19906772  0.58358868  0.70750654  1
  Li  Li61  1  0.19464227  0.45564252  0.64606895  1
  Li  Li62  1  0.81244409  0.69293228  0.60113307  1
  Li  Li63  1  0.69052620  0.33006016  0.66845843  1
  Li  Li64  1  0.29710518  0.08216481  0.70896028  1
  Li  Li65  1  0.78844412  0.96060033  0.60998061  1
  Li  Li66  1  0.28714701  0.19566930  0.64853014  1
  Li  Li67  1  0.20196496  0.82333241  0.70839616  1
  Li  Li68  1  0.79681625  0.58909465  0.66518397  1
  Li  Li69  1  0.29827465  0.20948416  0.77078825  1
  Li  Li70  1  0.69527824  0.45475300  0.72917640  1
  Li  Li71  1  0.79919307  0.07880180  0.79144948  1
  Li  Li72  1  0.19680548  0.83414070  0.83260514  1
  Li  Li73  1  0.19740150  0.70909925  0.76965690  1
  Li  Li74  1  0.80087496  0.95280593  0.73016631  1
  Li  Li75  1  0.69862357  0.58130094  0.79169829  1
  Li  Li76  1  0.29602927  0.33638860  0.83200001  1
  Li  Li77  1  0.69601646  0.21418550  0.72872565  1
  Li  Li78  1  0.29453064  0.45092664  0.77152812  1
  Li  Li79  1  0.20011256  0.07592212  0.83336359  1
  Li  Li80  1  0.79565276  0.83757971  0.79028626  1
  Li  Li81  1  0.30126839  0.46174689  0.89495511  1
  Li  Li82  1  0.69801415  0.70521596  0.85420697  1
  Li  Li83  1  0.79978134  0.33255828  0.91291595  1
  Li  Li84  1  0.19203507  0.09107213  0.95414295  1
  Li  Li85  1  0.19663556  0.96092121  0.89366920  1
  Li  Li86  1  0.79588933  0.20629126  0.85265757  1
  Li  Li87  1  0.70078410  0.83557780  0.91641477  1
  Li  Li88  1  0.29023472  0.58280251  0.96019128  1
  Li  Li89  1  0.70052198  0.46620291  0.85194598  1
  Li  Li90  1  0.30104479  0.70047618  0.89674382  1
  Li  Li91  1  0.27810457  0.33310318  0.95709108  1
  Li  Li92  1  0.79206582  0.09377470  0.91309240  1
  Li  Li93  1  0.83179313  0.96867839  0.98221482  1
  Li  Li94  1  0.15466335  0.21593456  0.01889688  1
  Li  Li95  1  0.69196052  0.71046981  0.97030621  1
  P  P96  1  0.78931705  0.02734693  0.04711135  1
  P  P97  1  0.33930838  0.77013727  0.08384193  1
  P  P98  1  0.19359644  0.45564301  0.02238298  1
  P  P99  1  0.70086613  0.77337292  0.16966456  1
  P  P100  1  0.31242410  0.51498018  0.20842130  1
  P  P101  1  0.19123749  0.14272196  0.14431353  1
  P  P102  1  0.81200082  0.40610156  0.10694073  1
  P  P103  1  0.69610988  0.52023002  0.29188440  1
  P  P104  1  0.30839110  0.26189718  0.33237449  1
  P  P105  1  0.19398104  0.89006929  0.27011295  1
  P  P106  1  0.80646424  0.14763968  0.22933279  1
  P  P107  1  0.69471682  0.27200425  0.41646110  1
  P  P108  1  0.30726460  0.01038772  0.45686532  1
  P  P109  1  0.19594929  0.63767877  0.39265534  1
  P  P110  1  0.80700036  0.89700515  0.35385480  1
  P  P111  1  0.82370281  0.63710594  0.47544257  1
  P  P112  1  0.71308253  0.82263676  0.54704718  1
  P  P113  1  0.16205801  0.07962567  0.58369724  1
  P  P114  1  0.30563849  0.39457288  0.52240450  1
  P  P115  1  0.79886595  0.07636336  0.66973170  1
  P  P116  1  0.18731900  0.33498154  0.70833249  1
  P  P117  1  0.30825766  0.70691957  0.64429676  1
  P  P118  1  0.68813443  0.44388314  0.60693932  1
  P  P119  1  0.80258820  0.32937635  0.79193999  1
  P  P120  1  0.19229370  0.58790970  0.83241378  1
  P  P121  1  0.30494585  0.95974201  0.77017160  1
  P  P122  1  0.69295852  0.70218944  0.72940100  1
  P  P123  1  0.80743183  0.57871905  0.91663962  1
  P  P124  1  0.19549109  0.84008426  0.95693852  1
  P  P125  1  0.30144827  0.21319117  0.89280021  1
  P  P126  1  0.69189493  0.95331620  0.85396036  1
  P  P127  1  0.67484559  0.21273083  0.97542627  1
  O  O128  1  0.05601154  0.07016738  0.03391819  1
  O  O129  1  0.27827068  0.34523044  0.03821175  1
  O  O130  1  0.70165145  0.51388529  0.09272663  1
  O  O131  1  0.28829600  0.45524500  0.98734963  1
  O  O132  1  0.20654241  0.78988309  0.05189631  1
  O  O133  1  0.85796441  0.97278660  0.07871798  1
  O  O134  1  0.68068915  0.93574963  0.02362839  1
  O  O135  1  0.70958384  0.30789275  0.08731425  1
  O  O136  1  0.32643253  0.55000122  0.04039257  1
  O  O137  1  0.56477506  0.11074922  0.05213053  1
  O  O138  1  0.64225857  0.74161954  0.07861615  1
  O  O139  1  0.88131856  0.46890330  0.02250974  1
  O  O140  1  0.81068033  0.87718023  0.15264178  1
  O  O141  1  0.20606483  0.67497288  0.10233766  1
  O  O142  1  0.29757989  0.03851397  0.16151455  1
  O  O143  1  0.70405722  0.25212565  0.21223366  1
  O  O144  1  0.71218533  0.39737467  0.14130241  1
  O  O145  1  0.29820009  0.14630017  0.11025888  1
  O  O146  1  0.21144640  0.51588761  0.17407876  1
  O  O147  1  0.80213660  0.77332269  0.20395069  1
  O  O148  1  0.33084555  0.87739780  0.10355063  1
  O  O149  1  0.80286214  0.66998874  0.15227261  1
  O  O150  1  0.70287408  0.04394746  0.21211303  1
  O  O151  1  0.28944101  0.24569221  0.16242753  1
  O  O152  1  0.38791374  0.77627349  0.16953638  1
  O  O153  1  0.62575928  0.51461804  0.20855419  1
  O  O154  1  0.87719534  0.13968112  0.14338077  1
  O  O155  1  0.12531672  0.40959253  0.10656609  1
  O  O156  1  0.79790799  0.62593509  0.27529568  1
  O  O157  1  0.20796127  0.40971736  0.22510147  1
  O  O158  1  0.29588302  0.78463798  0.28693578  1
  O  O159  1  0.70464078  0.00232612  0.33718432  1
  O  O160  1  0.70268608  0.14807915  0.26366985  1
  O  O161  1  0.29793010  0.89054121  0.23590152  1
  O  O162  1  0.20282594  0.26038180  0.29819662  1
  O  O163  1  0.79964329  0.52014049  0.32618060  1
  O  O164  1  0.20765136  0.61822615  0.22581246  1
  O  O165  1  0.80087923  0.41677670  0.27467334  1
  O  O166  1  0.70315745  0.79400892  0.33644996  1
  O  O167  1  0.29851336  0.99331317  0.28753556  1
  O  O168  1  0.38269789  0.52023950  0.29203066  1
  O  O169  1  0.62187959  0.26064254  0.33190169  1
  O  O170  1  0.88053039  0.89012924  0.27009632  1
  O  O171  1  0.12004527  0.14792007  0.22964828  1
  O  O172  1  0.79371636  0.37316727  0.39779634  1
  O  O173  1  0.20585005  0.15824857  0.35005947  1
  O  O174  1  0.30125083  0.53445785  0.41027734  1
  O  O175  1  0.69543645  0.74078848  0.45980842  1
  O  O176  1  0.70324503  0.89656805  0.38821994  1
  O  O177  1  0.30367012  0.63718394  0.35858638  1
  O  O178  1  0.19959403  0.00780798  0.42298848  1
  O  O179  1  0.80502845  0.27635518  0.45048825  1
  O  O180  1  0.20692752  0.36628391  0.34941049  1
  O  O181  1  0.79607389  0.16545075  0.40024038  1
  O  O182  1  0.81663407  0.53569366  0.45359814  1
  O  O183  1  0.29570256  0.74215725  0.40989011  1
  O  O184  1  0.38088438  0.27139486  0.41797681  1
  O  O185  1  0.62037443  0.01848250  0.45638375  1
  O  O186  1  0.88337760  0.63733401  0.39172805  1
  O  O187  1  0.12045722  0.89741682  0.35413872  1
  O  O188  1  0.24446775  0.90305758  0.47513524  1
  O  O189  1  0.68694857  0.60441170  0.50555409  1
  O  O190  1  0.18304574  0.10722456  0.47563709  1
  O  O191  1  0.12746708  0.66504562  0.48156565  1
  O  O192  1  0.44659818  0.77976880  0.53382927  1
  O  O193  1  0.22131549  0.50472836  0.53839787  1
  O  O194  1  0.79930556  0.33609846  0.59279862  1
  O  O195  1  0.21181183  0.39597555  0.48734782  1
  O  O196  1  0.29508515  0.05990795  0.55176441  1
  O  O197  1  0.64424545  0.87695394  0.57868093  1
  O  O198  1  0.82150859  0.91430390  0.52359686  1
  O  O199  1  0.78949434  0.54207447  0.58723934  1
  O  O200  1  0.17183574  0.30000605  0.54022047  1
  O  O201  1  0.93750379  0.73914034  0.55201203  1
  O  O202  1  0.85925629  0.10845670  0.57846033  1
  O  O203  1  0.61785966  0.38100052  0.52265819  1
  O  O204  1  0.68903191  0.97249029  0.65273630  1
  O  O205  1  0.29558219  0.17469283  0.60222338  1
  O  O206  1  0.20218522  0.81117975  0.66151097  1
  O  O207  1  0.79560838  0.59779893  0.71225825  1
  O  O208  1  0.78803057  0.45293479  0.64128485  1
  O  O209  1  0.20124061  0.70362974  0.61024914  1
  O  O210  1  0.28898978  0.33407149  0.67401838  1
  O  O211  1  0.69770635  0.07660327  0.70401949  1
  O  O212  1  0.16994197  0.97243773  0.60344576  1
  O  O213  1  0.69713300  0.17980751  0.65233960  1
  O  O214  1  0.79656318  0.80587241  0.71215998  1
  O  O215  1  0.21006406  0.60400575  0.66244849  1
  O  O216  1  0.11186205  0.07355705  0.66954184  1
  O  O217  1  0.87391965  0.33554866  0.70838768  1
  O  O218  1  0.62226332  0.70967615  0.64334145  1
  O  O219  1  0.37484964  0.44007929  0.60657972  1
  O  O220  1  0.70001909  0.22381229  0.77534048  1
  O  O221  1  0.29148887  0.44026348  0.72503049  1
  O  O222  1  0.20256758  0.06497508  0.78706252  1
  O  O223  1  0.79481837  0.84810730  0.83727657  1
  O  O224  1  0.79643850  0.70175731  0.76374110  1
  O  O225  1  0.20163037  0.95928166  0.73594528  1
  O  O226  1  0.29737995  0.58898036  0.79822946  1
  O  O227  1  0.69885458  0.33005525  0.82621843  1
  O  O228  1  0.29139375  0.23166685  0.72573738  1
  O  O229  1  0.69879302  0.43278688  0.77461337  1
  O  O230  1  0.79556776  0.05652905  0.83661233  1
  O  O231  1  0.20082500  0.85639390  0.78756009  1
  O  O232  1  0.11606042  0.32904942  0.79209034  1
  O  O233  1  0.87874029  0.58918557  0.83196553  1
  O  O234  1  0.61843881  0.95998857  0.77018057  1
  O  O235  1  0.37937733  0.70185116  0.72969334  1
  O  O236  1  0.70726621  0.47753287  0.89804632  1
  O  O237  1  0.29552274  0.69164634  0.85002955  1
  O  O238  1  0.19649403  0.31625727  0.91050158  1
  O  O239  1  0.80282512  0.10928476  0.95966512  1
  O  O240  1  0.79538531  0.95390835  0.88833554  1
  O  O241  1  0.19324901  0.21389488  0.85875583  1
  O  O242  1  0.30247459  0.84268974  0.92303021  1
  O  O243  1  0.69720188  0.57444219  0.95066476  1
  O  O244  1  0.29307334  0.48376725  0.84963900  1
  O  O245  1  0.70657597  0.68507265  0.90029768  1
  O  O246  1  0.68143353  0.31456605  0.95373287  1
  O  O247  1  0.20213332  0.10856530  0.90996508  1
  O  O248  1  0.12131746  0.57929254  0.91813462  1
  O  O249  1  0.88238557  0.83157664  0.95661215  1
  O  O250  1  0.61394549  0.21367079  0.89178238  1
  O  O251  1  0.37840352  0.95292278  0.85414392  1
  O  O252  1  0.25764434  0.94755850  0.97513913  1
  O  O253  1  0.81231075  0.24478439  0.00554624  1
  O  O254  1  0.32060487  0.74342294  0.97570654  1
  O  O255  1  0.37132469  0.18484971  0.98155164  1
