# generated using pymatgen
data_Li3PO4
_symmetry_space_group_name_H-M   'P 1'
_cell_length_a   4.97784600
_cell_length_b   12.21646600
_cell_length_c   53.17750961
_cell_angle_alpha   90.00000000
_cell_angle_beta   90.00000000
_cell_angle_gamma   90.00000000
_symmetry_Int_Tables_number   1
_chemical_formula_structural   Li3PO4
_chemical_formula_sum   'Li108 P36 O144'
_cell_volume   3233.81403835
_cell_formula_units_Z   36
loop_
 _symmetry_equiv_pos_site_id
 _symmetry_equiv_pos_as_xyz
  1  'x, y, z'
loop_
 _atom_site_type_symbol
 _atom_site_label
 _atom_site_symmetry_multiplicity
 _atom_site_fract_x
 _atom_site_fract_y
 _atom_site_fract_z
 _atom_site_occupancy
  Li  Li0  1  0.18743359  0.03058056  0.06922960  1
  Li  Li1  1  0.70091616  0.15539258  0.08245980  1
  Li  Li2  1  0.31443551  0.64506532  0.01417680  1
  Li  Li3  1  0.30221603  0.52770679  0.06623639  1
  Li  Li4  1  0.68579368  0.29372103  0.03540342  1
  Li  Li5  1  0.79533276  0.65529099  0.08272656  1
  Li  Li6  1  0.18886661  0.78423763  0.07234359  1
  Li  Li7  1  0.29701361  0.41435615  0.01746073  1
  Li  Li8  1  0.70503805  0.39685603  0.08254105  1
  Li  Li9  1  0.19698477  0.77396040  0.16647727  1
  Li  Li10  1  0.80393504  0.52977130  0.13340215  1
  Li  Li11  1  0.69768356  0.90414103  0.18312762  1
  Li  Li12  1  0.30342080  0.39997652  0.11643371  1
  Li  Li13  1  0.30237645  0.27544382  0.16599861  1
  Li  Li14  1  0.69699347  0.02975614  0.13341483  1
  Li  Li15  1  0.80275574  0.40250894  0.18357739  1
  Li  Li16  1  0.19846890  0.90212143  0.11651262  1
  Li  Li17  1  0.79753456  0.77014589  0.13222875  1
  Li  Li18  1  0.20359857  0.53269038  0.16770979  1
  Li  Li19  1  0.30167636  0.16104131  0.11699497  1
  Li  Li20  1  0.70084348  0.14474758  0.18221517  1
  Li  Li21  1  0.19726329  0.52391280  0.26649126  1
  Li  Li22  1  0.79946940  0.27858654  0.23335088  1
  Li  Li23  1  0.69702438  0.65407674  0.28338476  1
  Li  Li24  1  0.30034965  0.14885459  0.21629275  1
  Li  Li25  1  0.30186643  0.02413751  0.26609465  1
  Li  Li26  1  0.69878227  0.77832869  0.23370094  1
  Li  Li27  1  0.80089600  0.15250184  0.28356493  1
  Li  Li28  1  0.19880906  0.64975319  0.21629682  1
  Li  Li29  1  0.79691755  0.51936928  0.23234068  1
  Li  Li30  1  0.20073107  0.28349875  0.26758765  1
  Li  Li31  1  0.29718120  0.90805180  0.21727122  1
  Li  Li32  1  0.70390513  0.89435108  0.28261633  1
  Li  Li33  1  0.19622151  0.27141994  0.36633304  1
  Li  Li34  1  0.80297331  0.02816754  0.33348700  1
  Li  Li35  1  0.69635818  0.40114148  0.38337245  1
  Li  Li36  1  0.30324615  0.89712729  0.31675379  1
  Li  Li37  1  0.30312504  0.77134420  0.36630686  1
  Li  Li38  1  0.69718676  0.52655931  0.33408027  1
  Li  Li39  1  0.80105833  0.89884367  0.38340071  1
  Li  Li40  1  0.19688300  0.39973615  0.31628162  1
  Li  Li41  1  0.79757883  0.26931298  0.33200805  1
  Li  Li42  1  0.20201043  0.03055483  0.36761905  1
  Li  Li43  1  0.29832836  0.65575778  0.31765832  1
  Li  Li44  1  0.69715469  0.64014986  0.38308603  1
  Li  Li45  1  0.81185308  0.77109631  0.43062831  1
  Li  Li46  1  0.68576292  0.15524505  0.48571057  1
  Li  Li47  1  0.29882201  0.64492732  0.41757646  1
  Li  Li48  1  0.31422409  0.50631790  0.46460179  1
  Li  Li49  1  0.69944535  0.27408448  0.43390105  1
  Li  Li50  1  0.20637360  0.14523369  0.41709600  1
  Li  Li51  1  0.81221507  0.01681138  0.42738246  1
  Li  Li52  1  0.29491211  0.40332921  0.41743896  1
  Li  Li53  1  0.70304345  0.38571476  0.48258603  1
  Li  Li54  1  0.31285671  0.76919681  0.56930162  1
  Li  Li55  1  0.79956700  0.64443527  0.58253846  1
  Li  Li56  1  0.18559138  0.15488144  0.51417684  1
  Li  Li57  1  0.19800986  0.27194595  0.56627053  1
  Li  Li58  1  0.81430296  0.50613761  0.53543434  1
  Li  Li59  1  0.70609597  0.14389159  0.58297314  1
  Li  Li60  1  0.31147058  0.01532195  0.57247689  1
  Li  Li61  1  0.20301771  0.38552458  0.51749241  1
  Li  Li62  1  0.79521584  0.40251301  0.58261475  1
  Li  Li63  1  0.30297902  0.02574972  0.66663355  1
  Li  Li64  1  0.69630547  0.27081817  0.63364463  1
  Li  Li65  1  0.80306164  0.89564467  0.68329445  1
  Li  Li66  1  0.19669951  0.40001813  0.61649819  1
  Li  Li67  1  0.19793250  0.52439926  0.66612788  1
  Li  Li68  1  0.80329696  0.77100653  0.63371447  1
  Li  Li69  1  0.69719955  0.39774523  0.68370228  1
  Li  Li70  1  0.30122810  0.89789807  0.61664466  1
  Li  Li71  1  0.70227862  0.02998417  0.63234688  1
  Li  Li72  1  0.29706160  0.26725511  0.66787983  1
  Li  Li73  1  0.19802073  0.63883799  0.61715158  1
  Li  Li74  1  0.79927106  0.65503909  0.68242067  1
  Li  Li75  1  0.30266981  0.27611004  0.76654144  1
  Li  Li76  1  0.70012658  0.52155817  0.73353601  1
  Li  Li77  1  0.80176320  0.14666064  0.78360496  1
  Li  Li78  1  0.19933216  0.65135517  0.71664795  1
  Li  Li79  1  0.19771075  0.77585219  0.76621323  1
  Li  Li80  1  0.80131600  0.02251263  0.73394097  1
  Li  Li81  1  0.69785793  0.64753672  0.78378032  1
  Li  Li82  1  0.30014258  0.15018962  0.71640875  1
  Li  Li83  1  0.70294066  0.28100605  0.73243160  1
  Li  Li84  1  0.29918482  0.51648152  0.76765424  1
  Li  Li85  1  0.20364581  0.89239030  0.71746581  1
  Li  Li86  1  0.79609046  0.90574212  0.78266238  1
  Li  Li87  1  0.30366689  0.52859555  0.86639801  1
  Li  Li88  1  0.69688402  0.77177804  0.83358136  1
  Li  Li89  1  0.80350671  0.39942510  0.88358664  1
  Li  Li90  1  0.19665828  0.90285179  0.81678228  1
  Li  Li91  1  0.19706813  0.02865156  0.86635390  1
  Li  Li92  1  0.80285512  0.27347989  0.83412923  1
  Li  Li93  1  0.69868619  0.90108355  0.88341455  1
  Li  Li94  1  0.30312072  0.40026294  0.81630858  1
  Li  Li95  1  0.70235245  0.53062540  0.83205711  1
  Li  Li96  1  0.29675679  0.76957279  0.86770437  1
  Li  Li97  1  0.20152033  0.14413950  0.81775676  1
  Li  Li98  1  0.80285441  0.15991193  0.88309252  1
  Li  Li99  1  0.68815233  0.02894033  0.93063143  1
  Li  Li100  1  0.81422624  0.64474300  0.98571109  1
  Li  Li101  1  0.20118751  0.15506659  0.91757940  1
  Li  Li102  1  0.18582640  0.29347976  0.96460282  1
  Li  Li103  1  0.80066279  0.52625542  0.93396007  1
  Li  Li104  1  0.29363293  0.65475671  0.91712930  1
  Li  Li105  1  0.68771389  0.78323085  0.92739671  1
  Li  Li106  1  0.20509259  0.39666062  0.91745931  1
  Li  Li107  1  0.79702051  0.41423485  0.98257293  1
  P  P108  1  0.70156668  0.90763460  0.08393673  1
  P  P109  1  0.19695600  0.27716235  0.06527534  1
  P  P110  1  0.80571358  0.53664942  0.03339872  1
  P  P111  1  0.69375045  0.65549307  0.18384014  1
  P  P112  1  0.30853967  0.64702025  0.11639774  1
  P  P113  1  0.19229318  0.02360814  0.16583321  1
  P  P114  1  0.80770779  0.28158559  0.13355376  1
  P  P115  1  0.69227738  0.40542940  0.28378325  1
  P  P116  1  0.30637772  0.39701388  0.21610762  1
  P  P117  1  0.19372679  0.77217633  0.26616937  1
  P  P118  1  0.80636484  0.03021527  0.23365508  1
  P  P119  1  0.69195066  0.15431959  0.38346524  1
  P  P120  1  0.30666246  0.14635146  0.31601397  1
  P  P121  1  0.19168719  0.51977659  0.36648227  1
  P  P122  1  0.80741859  0.77775742  0.33401462  1
  P  P123  1  0.29853027  0.89311902  0.41588459  1
  P  P124  1  0.19482016  0.26359399  0.46659610  1
  P  P125  1  0.80293135  0.52348535  0.43473874  1
  P  P126  1  0.79858146  0.89204147  0.58409418  1
  P  P127  1  0.30331815  0.52262694  0.56532379  1
  P  P128  1  0.69449949  0.26297410  0.53345199  1
  P  P129  1  0.80630198  0.14447665  0.68399441  1
  P  P130  1  0.19189205  0.15296822  0.61656379  1
  P  P131  1  0.30791058  0.77620897  0.66609125  1
  P  P132  1  0.69238647  0.51851352  0.63364945  1
  P  P133  1  0.80763750  0.39474713  0.78387234  1
  P  P134  1  0.19342926  0.40309898  0.71622007  1
  P  P135  1  0.30618937  0.02806161  0.76632660  1
  P  P136  1  0.69374550  0.77009144  0.73386754  1
  P  P137  1  0.80781802  0.64575052  0.88351747  1
  P  P138  1  0.19305258  0.65360217  0.81611429  1
  P  P139  1  0.30836563  0.28032651  0.86652285  1
  P  P140  1  0.69240632  0.02214991  0.83409371  1
  P  P141  1  0.20135698  0.90689203  0.91591452  1
  P  P142  1  0.30516377  0.53635146  0.96660111  1
  P  P143  1  0.69703026  0.27650806  0.93477997  1
  O  O144  1  0.81134235  0.01309523  0.07152893  1
  O  O145  1  0.30092237  0.17198681  0.07888072  1
  O  O146  1  0.69163094  0.63749240  0.01932344  1
  O  O147  1  0.69876637  0.53212001  0.06088429  1
  O  O148  1  0.30357036  0.28128239  0.03790708  1
  O  O149  1  0.20259027  0.64530336  0.08875498  1
  O  O150  1  0.78872824  0.90622543  0.11234391  1
  O  O151  1  0.81065314  0.80433755  0.07069742  1
  O  O152  1  0.71823042  0.43047553  0.01893285  1
  O  O153  1  0.29559751  0.37968164  0.08009546  1
  O  O154  1  0.38475769  0.90896394  0.08286072  1
  O  O155  1  0.88275828  0.27523945  0.06520647  1
  O  O156  1  0.11973375  0.54256981  0.03411851  1
  O  O157  1  0.79669057  0.75999508  0.17000493  1
  O  O158  1  0.20645076  0.54305868  0.13036810  1
  O  O159  1  0.29602234  0.91853065  0.17941306  1
  O  O160  1  0.70597936  0.38678052  0.11990887  1
  O  O161  1  0.70366487  0.28172865  0.16122655  1
  O  O162  1  0.29464684  0.02425038  0.13809350  1
  O  O163  1  0.20301292  0.39613233  0.18840580  1
  O  O164  1  0.79668280  0.65634890  0.21154991  1
  O  O165  1  0.20510091  0.75201031  0.12978356  1
  O  O166  1  0.79746273  0.55154868  0.17003932  1
  O  O167  1  0.70332358  0.17852490  0.11949786  1
  O  O168  1  0.29662980  0.12699929  0.17980359  1
  O  O169  1  0.38019638  0.65610978  0.18396275  1
  O  O170  1  0.62155640  0.64657034  0.11584755  1
  O  O171  1  0.87896340  0.02294770  0.16582849  1
  O  O172  1  0.12115701  0.28187495  0.13373019  1
  O  O173  1  0.79521736  0.50999983  0.26998845  1
  O  O174  1  0.20382748  0.29243186  0.22991799  1
  O  O175  1  0.29575859  0.66725002  0.27989263  1
  O  O176  1  0.70365477  0.13498679  0.21991569  1
  O  O177  1  0.70361642  0.03070837  0.26137747  1
  O  O178  1  0.29647821  0.77159935  0.23844849  1
  O  O179  1  0.20321062  0.14579556  0.28831737  1
  O  O180  1  0.79599554  0.40601581  0.31147762  1
  O  O181  1  0.20257851  0.50093313  0.22991282  1
  O  O182  1  0.79546595  0.30143753  0.26996026  1
  O  O183  1  0.70224801  0.92650341  0.21977472  1
  O  O184  1  0.29854976  0.87573654  0.28006075  1
  O  O185  1  0.37882014  0.40603331  0.28398268  1
  O  O186  1  0.61989996  0.39670055  0.21591411  1
  O  O187  1  0.88022752  0.77212830  0.26605763  1
  O  O188  1  0.11987447  0.03051317  0.23375335  1
  O  O189  1  0.79395320  0.25817493  0.36943981  1
  O  O190  1  0.20386600  0.04181508  0.32984734  1
  O  O191  1  0.29312416  0.41438796  0.38006615  1
  O  O192  1  0.70432052  0.88310795  0.32050184  1
  O  O193  1  0.70516009  0.77682823  0.36176617  1
  O  O194  1  0.29556317  0.51983032  0.33879807  1
  O  O195  1  0.21116903  0.89452126  0.38749312  1
  O  O196  1  0.79758590  0.15623448  0.41111797  1
  O  O197  1  0.20335564  0.25043076  0.32979451  1
  O  O198  1  0.79577722  0.04919947  0.37013996  1
  O  O199  1  0.70256128  0.67451695  0.32000515  1
  O  O200  1  0.29649636  0.62270486  0.38056180  1
  O  O201  1  0.37889070  0.15447467  0.38395693  1
  O  O202  1  0.62027397  0.14564969  0.31589196  1
  O  O203  1  0.87821682  0.51968297  0.36630680  1
  O  O204  1  0.12075283  0.77818276  0.33399533  1
  O  O205  1  0.18892607  0.78773823  0.42832705  1
  O  O206  1  0.30866004  0.16257982  0.48061490  1
  O  O207  1  0.69893522  0.62894363  0.42125137  1
  O  O208  1  0.69640378  0.51873403  0.46210633  1
  O  O209  1  0.30176440  0.26832750  0.43911451  1
  O  O210  1  0.18956227  0.99649111  0.42910537  1
  O  O211  1  0.70429340  0.42120924  0.41982063  1
  O  O212  1  0.28239174  0.36961883  0.48111039  1
  O  O213  1  0.61538905  0.89205035  0.41695495  1
  O  O214  1  0.88078670  0.25785438  0.46591030  1
  O  O215  1  0.11715759  0.52519879  0.43481602  1
  O  O216  1  0.68892939  0.78657063  0.57169301  1
  O  O217  1  0.19940429  0.62774211  0.57895932  1
  O  O218  1  0.80842709  0.16220621  0.51933019  1
  O  O219  1  0.80136503  0.26719866  0.56094906  1
  O  O220  1  0.19655666  0.51860612  0.53795708  1
  O  O221  1  0.29756051  0.15440608  0.58891106  1
  O  O222  1  0.71120862  0.89374761  0.61248649  1
  O  O223  1  0.68947861  0.99523112  0.57081472  1
  O  O224  1  0.78219057  0.36921346  0.51900878  1
  O  O225  1  0.20477003  0.42001249  0.58012751  1
  O  O226  1  0.11540499  0.89070264  0.58303688  1
  O  O227  1  0.61755422  0.52452068  0.56524093  1
  O  O228  1  0.38046521  0.25716208  0.53415298  1
  O  O229  1  0.70338648  0.03995114  0.67017613  1
  O  O230  1  0.29421223  0.25697422  0.63049847  1
  O  O231  1  0.20435201  0.88133985  0.67966540  1
  O  O232  1  0.79418259  0.41335356  0.61998073  1
  O  O233  1  0.79635072  0.51824040  0.66133169  1
  O  O234  1  0.20544502  0.77573480  0.63834875  1
  O  O235  1  0.29688908  0.40389968  0.68852730  1
  O  O236  1  0.70319353  0.14385371  0.71169792  1
  O  O237  1  0.29526277  0.04796903  0.62996165  1
  O  O238  1  0.70282715  0.24846937  0.67019670  1
  O  O239  1  0.79654102  0.62166385  0.61961774  1
  O  O240  1  0.20379172  0.67276013  0.68004827  1
  O  O241  1  0.11985878  0.14378187  0.68409646  1
  O  O242  1  0.87884155  0.15351985  0.61604982  1
  O  O243  1  0.62124891  0.77693509  0.66606748  1
  O  O244  1  0.37888576  0.51806326  0.63384224  1
  O  O245  1  0.70442912  0.29027086  0.77005747  1
  O  O246  1  0.29629568  0.50756013  0.73005814  1
  O  O247  1  0.20370648  0.13296636  0.78002807  1
  O  O248  1  0.79641034  0.66525962  0.72013744  1
  O  O249  1  0.79631495  0.76939357  0.76159313  1
  O  O250  1  0.20370507  0.02866812  0.73859998  1
  O  O251  1  0.29626067  0.65412461  0.78841114  1
  O  O252  1  0.70401310  0.39399029  0.81156398  1
  O  O253  1  0.29679696  0.29908474  0.73000862  1
  O  O254  1  0.70438023  0.49878862  0.77008727  1
  O  O255  1  0.79790792  0.87382343  0.72000670  1
  O  O256  1  0.20136247  0.92441157  0.78017189  1
  O  O257  1  0.12107365  0.39406194  0.78404039  1
  O  O258  1  0.87994001  0.40362458  0.71602469  1
  O  O259  1  0.61967238  0.02826202  0.76626526  1
  O  O260  1  0.38022523  0.76981578  0.73395248  1
  O  O261  1  0.70586320  0.54189633  0.86950116  1
  O  O262  1  0.29570764  0.75819274  0.82993016  1
  O  O263  1  0.20652678  0.38568271  0.88009693  1
  O  O264  1  0.79546620  0.91680506  0.82057597  1
  O  O265  1  0.79478557  0.02309663  0.86183619  1
  O  O266  1  0.20464799  0.28020406  0.83883047  1
  O  O267  1  0.28868377  0.90546290  0.88752327  1
  O  O268  1  0.70222160  0.64386489  0.91116953  1
  O  O269  1  0.29673567  0.54955886  0.82987513  1
  O  O270  1  0.70402987  0.75085806  0.87019658  1
  O  O271  1  0.79715242  0.12548189  0.82011432  1
  O  O272  1  0.20359367  0.17732437  0.88057904  1
  O  O273  1  0.12085145  0.64552224  0.88401563  1
  O  O274  1  0.87947452  0.65421766  0.81601470  1
  O  O275  1  0.62185076  0.28058484  0.86638225  1
  O  O276  1  0.37906506  0.02171918  0.83406537  1
  O  O277  1  0.31106226  0.01227197  0.92834381  1
  O  O278  1  0.19124764  0.63733053  0.98062609  1
  O  O279  1  0.80115052  0.17114206  0.92126473  1
  O  O280  1  0.80343871  0.28110678  0.96215173  1
  O  O281  1  0.19825431  0.53170154  0.93911880  1
  O  O282  1  0.31031395  0.80353229  0.92914147  1
  O  O283  1  0.79570299  0.37894109  0.91992233  1
  O  O284  1  0.21764344  0.43028751  0.98109582  1
  O  O285  1  0.88453533  0.90796759  0.91698358  1
  O  O286  1  0.61918752  0.54213330  0.96592304  1
  O  O287  1  0.38280731  0.27475366  0.93482259  1
