# generated using pymatgen
data_Li3PO4
_symmetry_space_group_name_H-M   'P 1'
_cell_length_a   4.97784600
_cell_length_b   12.21646600
_cell_length_c   40.48343286
_cell_angle_alpha   90.00000000
_cell_angle_beta   90.00000000
_cell_angle_gamma   90.00000000
_symmetry_Int_Tables_number   1
_chemical_formula_structural   Li3PO4
_chemical_formula_sum   'Li96 P32 O128'
_cell_volume   2461.86582396
_cell_formula_units_Z   32
loop_
 _symmetry_equiv_pos_site_id
 _symmetry_equiv_pos_as_xyz
  1  'x, y, z'
loop_
 _atom_site_type_symbol
 _atom_site_label
 _atom_site_symmetry_multiplicity
 _atom_site_fract_x
 _atom_site_fract_y
 _atom_site_fract_z
 _atom_site_occupancy
  Li  Li0  1  0.37953043  0.98887895  0.05267246  1
  Li  Li1  1  0.81016581  0.11322350  0.07421232  1
  Li  Li2  1  0.41185286  0.58496090  0.98247522  1
  Li  Li3  1  0.34634460  0.48399349  0.04903579  1
  Li  Li4  1  0.73053266  0.23411418  0.01022526  1
  Li  Li5  1  0.96141160  0.62981975  0.07075366  1
  Li  Li6  1  0.39740434  0.73503320  0.04831372  1
  Li  Li7  1  0.38689946  0.36155228  0.98882729  1
  Li  Li8  1  0.81137589  0.35757546  0.07113969  1
  Li  Li9  1  0.35044073  0.73589740  0.17673625  1
  Li  Li10  1  0.95113271  0.49082418  0.13263478  1
  Li  Li11  1  0.84665027  0.86386985  0.19692730  1
  Li  Li12  1  0.43040524  0.36267945  0.11406509  1
  Li  Li13  1  0.44042714  0.23517046  0.17701762  1
  Li  Li14  1  0.84391281  0.98978189  0.13470584  1
  Li  Li15  1  0.94756019  0.36838883  0.19773591  1
  Li  Li16  1  0.36372692  0.85857245  0.11167260  1
  Li  Li17  1  0.95344067  0.73429011  0.13381566  1
  Li  Li18  1  0.35605759  0.49498339  0.17676307  1
  Li  Li19  1  0.42051189  0.12086293  0.11581163  1
  Li  Li20  1  0.85075801  0.10597526  0.19683068  1
  Li  Li21  1  0.34666765  0.48600218  0.30307619  1
  Li  Li22  1  0.94569644  0.23935481  0.26004466  1
  Li  Li23  1  0.85046674  0.61398215  0.32326230  1
  Li  Li24  1  0.44569751  0.11051669  0.23994732  1
  Li  Li25  1  0.44772506  0.98150052  0.30225871  1
  Li  Li26  1  0.84818181  0.74016064  0.26048588  1
  Li  Li27  1  0.94056975  0.11470464  0.32298225  1
  Li  Li28  1  0.34812114  0.60970163  0.23951404  1
  Li  Li29  1  0.94080538  0.48185589  0.25989534  1
  Li  Li30  1  0.35081020  0.24387828  0.30316554  1
  Li  Li31  1  0.44090507  0.86802589  0.24010088  1
  Li  Li32  1  0.85606988  0.85490876  0.32324486  1
  Li  Li33  1  0.31015204  0.23672248  0.42577885  1
  Li  Li34  1  0.93042675  0.98720408  0.38593884  1
  Li  Li35  1  0.87941847  0.36106010  0.44731964  1
  Li  Li36  1  0.45101089  0.85904392  0.36736586  1
  Li  Li37  1  0.46127307  0.72012931  0.42927083  1
  Li  Li38  1  0.86367284  0.49130342  0.38832109  1
  Li  Li39  1  0.84625933  0.86594774  0.45095648  1
  Li  Li40  1  0.34396887  0.36010028  0.36528685  1
  Li  Li41  1  0.92053883  0.22902622  0.38417535  1
  Li  Li42  1  0.31139248  0.99236250  0.42886408  1
  Li  Li43  1  0.45335662  0.61561584  0.36618504  1
  Li  Li44  1  0.89731732  0.61483930  0.45169604  1
  Li  Li45  1  0.91171678  0.76506906  0.51753392  1
  Li  Li46  1  0.23043954  0.11587736  0.48977554  1
  Li  Li47  1  0.88676155  0.98848383  0.51118210  1
  Li  Li48  1  0.62051571  0.86112847  0.55269420  1
  Li  Li49  1  0.18983647  0.73676595  0.57421399  1
  Li  Li50  1  0.58813354  0.26503700  0.48247459  1
  Li  Li51  1  0.65363497  0.36600281  0.54903181  1
  Li  Li52  1  0.26943193  0.61587433  0.51023396  1
  Li  Li53  1  0.03856514  0.22018351  0.57075628  1
  Li  Li54  1  0.60259118  0.11497103  0.54831837  1
  Li  Li55  1  0.61307603  0.48844582  0.48882683  1
  Li  Li56  1  0.18860786  0.49241426  0.57114153  1
  Li  Li57  1  0.64954522  0.11410266  0.67673623  1
  Li  Li58  1  0.04884687  0.35917692  0.63263553  1
  Li  Li59  1  0.15334011  0.98613087  0.69692668  1
  Li  Li60  1  0.56958815  0.48732297  0.61406581  1
  Li  Li61  1  0.55957810  0.61483115  0.67701941  1
  Li  Li62  1  0.15605644  0.86022226  0.63470498  1
  Li  Li63  1  0.05244190  0.48160500  0.69773768  1
  Li  Li64  1  0.63627628  0.99143420  0.61167576  1
  Li  Li65  1  0.04654937  0.11572097  0.63381613  1
  Li  Li66  1  0.64392911  0.35501905  0.67676353  1
  Li  Li67  1  0.57948847  0.72913464  0.61581432  1
  Li  Li68  1  0.14923781  0.74402406  0.69682981  1
  Li  Li69  1  0.65334912  0.36399581  0.80307559  1
  Li  Li70  1  0.05431537  0.61064553  0.76004534  1
  Li  Li71  1  0.14955803  0.23601193  0.82325824  1
  Li  Li72  1  0.55430487  0.73948467  0.73994778  1
  Li  Li73  1  0.55228727  0.86849258  0.80225910  1
  Li  Li74  1  0.15182226  0.10983678  0.76048554  1
  Li  Li75  1  0.05944329  0.73529161  0.82298265  1
  Li  Li76  1  0.65187882  0.24029878  0.73951489  1
  Li  Li77  1  0.05920717  0.36814136  0.75989589  1
  Li  Li78  1  0.64919663  0.60611489  0.80316557  1
  Li  Li79  1  0.55909722  0.98197438  0.74010116  1
  Li  Li80  1  0.14394525  0.99508973  0.82324362  1
  Li  Li81  1  0.68984431  0.61327313  0.92577900  1
  Li  Li82  1  0.06962085  0.86280937  0.88593681  1
  Li  Li83  1  0.12057343  0.48894054  0.94732058  1
  Li  Li84  1  0.54903293  0.99096294  0.86736612  1
  Li  Li85  1  0.53876235  0.12989440  0.92925964  1
  Li  Li86  1  0.13634567  0.35869721  0.88832239  1
  Li  Li87  1  0.15369718  0.98406270  0.95094844  1
  Li  Li88  1  0.65603820  0.48990356  0.86528730  1
  Li  Li89  1  0.07946986  0.62097251  0.88417718  1
  Li  Li90  1  0.68865202  0.85759924  0.92885741  1
  Li  Li91  1  0.54668010  0.23440308  0.86617952  1
  Li  Li92  1  0.10268950  0.23515616  0.95169514  1
  Li  Li93  1  0.08821038  0.08492462  0.01751634  1
  Li  Li94  1  0.76955499  0.73411757  0.98977405  1
  Li  Li95  1  0.11316613  0.86153674  0.01117454  1
  P  P96  1  0.87155686  0.87157783  0.07114356  1
  P  P97  1  0.28416375  0.23589299  0.05106865  1
  P  P98  1  0.87356213  0.49116438  0.01561625  1
  P  P99  1  0.84271522  0.61630937  0.19807861  1
  P  P100  1  0.46801600  0.61242676  0.11208421  1
  P  P101  1  0.33853072  0.98317297  0.17528081  1
  P  P102  1  0.93806481  0.24272335  0.13656040  1
  P  P103  1  0.83859167  0.36670745  0.32470998  1
  P  P104  1  0.45376755  0.36010181  0.23863902  1
  P  P105  1  0.34274460  0.73357637  0.30191858  1
  P  P106  1  0.95386570  0.98976082  0.26136523  1
  P  P107  1  0.78412602  0.11406755  0.44892814  1
  P  P108  1  0.43813042  0.10715754  0.36343639  1
  P  P109  1  0.37148406  0.47834287  0.42885154  1
  P  P110  1  0.96788631  0.73744346  0.38792671  1
  P  P111  1  0.37345989  0.85883636  0.48441405  1
  P  P112  1  0.12843789  0.97842966  0.57114770  1
  P  P113  1  0.71581360  0.61409246  0.55106945  1
  P  P114  1  0.12641855  0.35882886  0.51561424  1
  P  P115  1  0.15728168  0.23368983  0.69807903  1
  P  P116  1  0.53198019  0.23758024  0.61208482  1
  P  P117  1  0.66146289  0.86682828  0.67528106  1
  P  P118  1  0.06193832  0.60727338  0.63656181  1
  P  P119  1  0.16141293  0.48328836  0.82471059  1
  P  P120  1  0.54624294  0.48989883  0.73863961  1
  P  P121  1  0.65726479  0.11641885  0.80191753  1
  P  P122  1  0.04614161  0.86023809  0.76136515  1
  P  P123  1  0.21586651  0.73593143  0.94892787  1
  P  P124  1  0.56188313  0.74284033  0.86343546  1
  P  P125  1  0.62852494  0.37165945  0.92885256  1
  P  P126  1  0.03216344  0.11257085  0.88792088  1
  P  P127  1  0.62649246  0.99116381  0.98437901  1
  O  O128  1  0.96942127  0.98185463  0.05606592  1
  O  O129  1  0.41326550  0.13334558  0.06820879  1
  O  O130  1  0.70381781  0.59599211  0.00996092  1
  O  O131  1  0.95342958  0.48855984  0.05256428  1
  O  O132  1  0.33513116  0.22841150  0.01330447  1
  O  O133  1  0.37416847  0.61347241  0.07555154  1
  O  O134  1  0.00326236  0.77594140  0.05162372  1
  O  O135  1  0.71295487  0.38772397  0.00794248  1
  O  O136  1  0.40219847  0.34036891  0.06703567  1
  O  O137  1  0.56061320  0.86418571  0.06932695  1
  O  O138  1  0.97480290  0.22932926  0.05337339  1
  O  O139  1  0.13871858  0.48824272  0.99498127  1
  O  O140  1  0.94742385  0.72249057  0.18105173  1
  O  O141  1  0.35962781  0.50708112  0.12917192  1
  O  O142  1  0.44420086  0.87800980  0.19265879  1
  O  O143  1  0.83021049  0.34705016  0.11890132  1
  O  O144  1  0.84372598  0.24299203  0.17313558  1
  O  O145  1  0.43848277  0.98277800  0.13878263  1
  O  O146  1  0.35185694  0.36145176  0.20232383  1
  O  O147  1  0.95506253  0.86739457  0.10808426  1
  O  O148  1  0.35855519  0.71555741  0.13009577  1
  O  O149  1  0.94800898  0.51342540  0.17971001  1
  O  O150  1  0.82996108  0.13769265  0.11957947  1
  O  O151  1  0.44410960  0.08718154  0.19307636  1
  O  O152  1  0.53218991  0.61684378  0.19791162  1
  O  O153  1  0.77800385  0.61411554  0.11272714  1
  O  O154  1  0.02819304  0.98324730  0.17584519  1
  O  O155  1  0.24867413  0.24393779  0.13578839  1
  O  O156  1  0.94422366  0.47187969  0.30733414  1
  O  O157  1  0.34918111  0.25380735  0.25566392  1
  O  O158  1  0.44743726  0.62738840  0.31894354  1
  O  O159  1  0.84922792  0.09604440  0.24433499  1
  O  O160  1  0.85194574  0.98842905  0.29767885  1
  O  O161  1  0.44396592  0.73458455  0.26552343  1
  O  O162  1  0.34377314  0.10687715  0.32686115  1
  O  O163  1  0.94394637  0.61528655  0.23447282  1
  O  O164  1  0.34834086  0.46330001  0.25681432  1
  O  O165  1  0.94418513  0.26269648  0.30691667  1
  O  O166  1  0.84841240  0.88655807  0.24319199  1
  O  O167  1  0.44807754  0.83645484  0.32028729  1
  O  O168  1  0.52825303  0.36661859  0.32414738  1
  O  O169  1  0.76413015  0.35961404  0.23914219  1
  O  O170  1  0.03221850  0.73304589  0.30208898  1
  O  O171  1  0.26421931  0.99026419  0.26085875  1
  O  O172  1  0.91322402  0.21660069  0.43177811  1
  O  O173  1  0.33024682  0.00284059  0.38109936  1
  O  O174  1  0.46935749  0.36807263  0.44393138  1
  O  O175  1  0.85949706  0.84279401  0.37084073  1
  O  O176  1  0.87396812  0.73639635  0.42445794  1
  O  O177  1  0.45501300  0.48250552  0.39191158  1
  O  O178  1  0.45334514  0.86140496  0.44746499  1
  O  O179  1  0.93856614  0.36711392  0.36120817  1
  O  O180  1  0.33002346  0.21219140  0.38041323  1
  O  O181  1  0.90217709  0.00958383  0.43296717  1
  O  O182  1  0.85846418  0.63432928  0.36990377  1
  O  O183  1  0.50315975  0.57397875  0.44837301  1
  O  O184  1  0.47476542  0.12062182  0.44662365  1
  O  O185  1  0.74874192  0.10594194  0.36420563  1
  O  O186  1  0.06054160  0.48573081  0.43066464  1
  O  O187  1  0.27787885  0.73576329  0.38728852  1
  O  O188  1  0.20373947  0.75400623  0.49006755  1
  O  O189  1  0.83508356  0.12159051  0.48669120  1
  O  O190  1  0.21282451  0.96227942  0.49207599  1
  O  O191  1  0.63861745  0.86178808  0.50504623  1
  O  O192  1  0.03059065  0.86814301  0.55607743  1
  O  O193  1  0.58672736  0.71664155  0.56821086  1
  O  O194  1  0.29616862  0.25400664  0.50995956  1
  O  O195  1  0.04655492  0.36143789  0.55256336  1
  O  O196  1  0.66485111  0.62157847  0.51330527  1
  O  O197  1  0.62583326  0.23653605  0.57555205  1
  O  O198  1  0.99672480  0.07406107  0.55162699  1
  O  O199  1  0.28701917  0.46227256  0.50794044  1
  O  O200  1  0.59776290  0.50962053  0.56703518  1
  O  O201  1  0.43938178  0.98582725  0.56933225  1
  O  O202  1  0.02517469  0.62065819  0.55337687  1
  O  O203  1  0.86126023  0.36175643  0.49498063  1
  O  O204  1  0.05257737  0.12750930  0.68105161  1
  O  O205  1  0.64037280  0.34292285  0.62917233  1
  O  O206  1  0.55578962  0.97199196  0.69265911  1
  O  O207  1  0.16978585  0.50294727  0.61890211  1
  O  O208  1  0.15627624  0.60700129  0.67313715  1
  O  O209  1  0.56150800  0.86722416  0.63878272  1
  O  O210  1  0.64814851  0.48854845  0.70232427  1
  O  O211  1  0.04492839  0.98262116  0.60808840  1
  O  O212  1  0.64144245  0.13444960  0.63009618  1
  O  O213  1  0.05198277  0.33657279  0.67971067  1
  O  O214  1  0.17004788  0.71230619  0.61958170  1
  O  O215  1  0.55588574  0.76282047  0.69307626  1
  O  O216  1  0.46780600  0.23315758  0.69791250  1
  O  O217  1  0.22199253  0.23589227  0.61272679  1
  O  O218  1  0.97179548  0.86675176  0.67584547  1
  O  O219  1  0.75133056  0.60606247  0.63578998  1
  O  O220  1  0.05578745  0.37811631  0.80733448  1
  O  O221  1  0.65082663  0.59619376  0.75566403  1
  O  O222  1  0.55258227  0.22260938  0.81894071  1
  O  O223  1  0.15077749  0.75395626  0.74433448  1
  O  O224  1  0.14806147  0.86156833  0.79767888  1
  O  O225  1  0.55603884  0.11541190  0.76552279  1
  O  O226  1  0.65623304  0.74311283  0.82686048  1
  O  O227  1  0.05605602  0.23471081  0.73447365  1
  O  O228  1  0.65167736  0.38670116  0.75681460  1
  O  O229  1  0.05581962  0.58729754  0.80691682  1
  O  O230  1  0.15158786  0.96344152  0.74319192  1
  O  O231  1  0.55193591  0.01354176  0.82028609  1
  O  O232  1  0.47175555  0.48337429  0.82414816  1
  O  O233  1  0.23588199  0.49038482  0.73914360  1
  O  O234  1  0.96779244  0.11694649  0.80208811  1
  O  O235  1  0.73578818  0.85973642  0.76085899  1
  O  O236  1  0.08675485  0.63339521  0.93178062  1
  O  O237  1  0.66978616  0.84715877  0.88109542  1
  O  O238  1  0.53064054  0.48193004  0.94393258  1
  O  O239  1  0.14054048  0.00721446  0.87083782  1
  O  O240  1  0.12606391  0.11362090  0.92445212  1
  O  O241  1  0.54500808  0.36749877  0.89191242  1
  O  O242  1  0.54662682  0.98858157  0.94742960  1
  O  O243  1  0.06144090  0.48288167  0.86120858  1
  O  O244  1  0.66998567  0.63780807  0.88041441  1
  O  O245  1  0.09783361  0.84041089  0.93296436  1
  O  O246  1  0.14159496  0.21568395  0.86989811  1
  O  O247  1  0.49684249  0.27602452  0.94837281  1
  O  O248  1  0.52522562  0.72936810  0.94662358  1
  O  O249  1  0.25127391  0.74405761  0.86420650  1
  O  O250  1  0.93946529  0.36426846  0.93066637  1
  O  O251  1  0.72217271  0.11425718  0.88728077  1
  O  O252  1  0.79621806  0.09598898  0.99003701  1
  O  O253  1  0.16490982  0.72841757  0.98669183  1
  O  O254  1  0.78712814  0.88772692  0.99205101  1
  O  O255  1  0.36135264  0.98822310  0.00501489  1
