# generated using pymatgen
data_Li3PO4
_symmetry_space_group_name_H-M   'P 1'
_cell_length_a   4.97784600
_cell_length_b   12.21646600
_cell_length_c   50.09496319
_cell_angle_alpha   90.00000000
_cell_angle_beta   90.00000000
_cell_angle_gamma   90.00000000
_symmetry_Int_Tables_number   1
_chemical_formula_structural   Li3PO4
_chemical_formula_sum   'Li108 P36 O144'
_cell_volume   3046.35919210
_cell_formula_units_Z   36
loop_
 _symmetry_equiv_pos_site_id
 _symmetry_equiv_pos_as_xyz
  1  'x, y, z'
loop_
 _atom_site_type_symbol
 _atom_site_label
 _atom_site_symmetry_multiplicity
 _atom_site_fract_x
 _atom_site_fract_y
 _atom_site_fract_z
 _atom_site_occupancy
  Li  Li0  1  0.17081378  0.04704668  0.06000738  1
  Li  Li1  1  0.78002881  0.82872058  0.01780347  1
  Li  Li2  1  0.67434339  0.17701472  0.07196062  1
  Li  Li3  1  0.31415731  0.41322558  0.10698744  1
  Li  Li4  1  0.31323707  0.54483347  0.05237307  1
  Li  Li5  1  0.61329420  0.36847572  0.03008928  1
  Li  Li6  1  0.79673707  0.66803882  0.07183175  1
  Li  Li7  1  0.20107911  0.91272205  0.10842749  1
  Li  Li8  1  0.34122407  0.16786689  0.00286661  1
  Li  Li9  1  0.19124432  0.79509726  0.06073410  1
  Li  Li10  1  0.29425115  0.17571518  0.10978407  1
  Li  Li11  1  0.82205332  0.42867654  0.07451302  1
  Li  Li12  1  0.19706942  0.78584356  0.16129761  1
  Li  Li13  1  0.80537798  0.54391211  0.12679082  1
  Li  Li14  1  0.69631253  0.91719381  0.17871710  1
  Li  Li15  1  0.30305129  0.15997639  0.21427698  1
  Li  Li16  1  0.30305345  0.28876815  0.16078914  1
  Li  Li17  1  0.69733318  0.04286002  0.12560946  1
  Li  Li18  1  0.80271043  0.41590978  0.17970392  1
  Li  Li19  1  0.19917337  0.66159307  0.21429882  1
  Li  Li20  1  0.79799530  0.78041742  0.12510518  1
  Li  Li21  1  0.20540242  0.54451168  0.16259921  1
  Li  Li22  1  0.29591690  0.91864945  0.21522189  1
  Li  Li23  1  0.70076444  0.15866319  0.17773542  1
  Li  Li24  1  0.19933576  0.53431967  0.26776684  1
  Li  Li25  1  0.80361338  0.29012574  0.23221581  1
  Li  Li26  1  0.70029625  0.66408133  0.28577436  1
  Li  Li27  1  0.30350312  0.90776852  0.32123494  1
  Li  Li28  1  0.30066228  0.03385677  0.26705937  1
  Li  Li29  1  0.69762454  0.78963057  0.23295265  1
  Li  Li30  1  0.80050667  0.16293857  0.28565733  1
  Li  Li31  1  0.19723946  0.40894069  0.32023623  1
  Li  Li32  1  0.79991729  0.53080083  0.23130631  1
  Li  Li33  1  0.20398796  0.29295292  0.26856794  1
  Li  Li34  1  0.29989590  0.66666049  0.32213819  1
  Li  Li35  1  0.70341454  0.90535440  0.28480122  1
  Li  Li36  1  0.19546624  0.28186200  0.37317606  1
  Li  Li37  1  0.80161396  0.03851732  0.33854133  1
  Li  Li38  1  0.68382907  0.41347811  0.39289165  1
  Li  Li39  1  0.32491742  0.64966487  0.42809924  1
  Li  Li40  1  0.30142745  0.78259399  0.37414056  1
  Li  Li41  1  0.69952734  0.53579898  0.33914462  1
  Li  Li42  1  0.79864932  0.91279807  0.39157233  1
  Li  Li43  1  0.20249355  0.15712573  0.42792893  1
  Li  Li44  1  0.79360678  0.28011319  0.33720617  1
  Li  Li45  1  0.19964356  0.04426366  0.37470713  1
  Li  Li46  1  0.17248995  0.39639623  0.42557707  1
  Li  Li47  1  0.70502139  0.64996878  0.39023602  1
  Li  Li48  1  0.22473013  0.99657640  0.48245974  1
  Li  Li49  1  0.82936691  0.77887791  0.44004258  1
  Li  Li50  1  0.38842102  0.45737835  0.46964501  1
  Li  Li51  1  0.68603845  0.28112810  0.44734976  1
  Li  Li52  1  0.80923669  0.03104045  0.43913600  1
  Li  Li53  1  0.65924277  0.65889661  0.49727344  1
  Li  Li54  1  0.82830750  0.27853483  0.55992639  1
  Li  Li55  1  0.22326486  0.49655865  0.51748329  1
  Li  Li56  1  0.32486500  0.14952912  0.57190267  1
  Li  Li57  1  0.68551676  0.91310804  0.60698437  1
  Li  Li58  1  0.68628009  0.78102151  0.55262298  1
  Li  Li59  1  0.38848274  0.95735537  0.53034301  1
  Li  Li60  1  0.20458604  0.65642509  0.57178119  1
  Li  Li61  1  0.79833825  0.41258525  0.60841580  1
  Li  Li62  1  0.65932631  0.15888740  0.50271392  1
  Li  Li63  1  0.80728793  0.52982791  0.56085940  1
  Li  Li64  1  0.70500185  0.14983949  0.60976513  1
  Li  Li65  1  0.17295176  0.89619876  0.57438147  1
  Li  Li66  1  0.80129578  0.53825348  0.66145455  1
  Li  Li67  1  0.19639664  0.78172706  0.62670242  1
  Li  Li68  1  0.30095305  0.40724786  0.67879534  1
  Li  Li69  1  0.70027461  0.16393453  0.71422361  1
  Li  Li70  1  0.69966833  0.03561884  0.66083912  1
  Li  Li71  1  0.30112852  0.28226947  0.62590203  1
  Li  Li72  1  0.19942262  0.90877531  0.67959292  1
  Li  Li73  1  0.80063503  0.66285094  0.71433530  1
  Li  Li74  1  0.19946784  0.54415395  0.62525814  1
  Li  Li75  1  0.79729126  0.77923775  0.66265739  1
  Li  Li76  1  0.70269512  0.40470036  0.71527494  1
  Li  Li77  1  0.29954878  0.16630151  0.67787064  1
  Li  Li78  1  0.80359770  0.79009351  0.76778627  1
  Li  Li79  1  0.19959759  0.03413669  0.73222731  1
  Li  Li80  1  0.30289250  0.65964402  0.78582122  1
  Li  Li81  1  0.69632323  0.41716847  0.82128271  1
  Li  Li82  1  0.69845836  0.28927145  0.76705588  1
  Li  Li83  1  0.30105449  0.53385971  0.73296144  1
  Li  Li84  1  0.19921716  0.16152035  0.78571462  1
  Li  Li85  1  0.80254169  0.91599725  0.82031210  1
  Li  Li86  1  0.20413854  0.79292876  0.73142134  1
  Li  Li87  1  0.79993485  0.03073754  0.76868387  1
  Li  Li88  1  0.70066081  0.65862536  0.82232327  1
  Li  Li89  1  0.29601586  0.41858232  0.78478007  1
  Li  Li90  1  0.80383238  0.04379676  0.87341945  1
  Li  Li91  1  0.19699917  0.28581656  0.83870997  1
  Li  Li92  1  0.31345063  0.91213191  0.89317194  1
  Li  Li93  1  0.67443023  0.67700420  0.92805032  1
  Li  Li94  1  0.69730939  0.54277282  0.87440198  1
  Li  Li95  1  0.30300152  0.78877485  0.83921861  1
  Li  Li96  1  0.20085556  0.41247717  0.89164936  1
  Li  Li97  1  0.79663924  0.16806168  0.92820257  1
  Li  Li98  1  0.20507956  0.04455076  0.83745013  1
  Li  Li99  1  0.79786416  0.28037332  0.87490495  1
  Li  Li100  1  0.82204616  0.92863479  0.92552074  1
  Li  Li101  1  0.29471431  0.67536684  0.89025024  1
  Li  Li102  1  0.78003205  0.32865586  0.98239356  1
  Li  Li103  1  0.17084687  0.54704413  0.94000030  1
  Li  Li104  1  0.61404669  0.86826595  0.97000527  1
  Li  Li105  1  0.31330355  0.04483704  0.94764797  1
  Li  Li106  1  0.19112648  0.29511141  0.93929397  1
  Li  Li107  1  0.34119822  0.66775325  0.99713978  1
  P  P108  1  0.69447376  0.92371761  0.07366985  1
  P  P109  1  0.30901825  0.65963664  0.10802763  1
  P  P110  1  0.16450163  0.29122442  0.05440235  1
  P  P111  1  0.82347859  0.56647807  0.01936536  1
  P  P112  1  0.69412290  0.66812895  0.17991231  1
  P  P113  1  0.30791617  0.40882487  0.21412235  1
  P  P114  1  0.19153913  0.03587430  0.16052394  1
  P  P115  1  0.80709094  0.29626373  0.12656298  1
  P  P116  1  0.69365764  0.41555509  0.28581226  1
  P  P117  1  0.30528041  0.15639874  0.31999301  1
  P  P118  1  0.19398146  0.78281585  0.26744121  1
  P  P119  1  0.80601739  0.04112801  0.23253210  1
  P  P120  1  0.68987588  0.16574663  0.39177023  1
  P  P121  1  0.30563803  0.90209812  0.42630824  1
  P  P122  1  0.19238312  0.52922321  0.37341326  1
  P  P123  1  0.80815671  0.78898344  0.33942822  1
  P  P124  1  0.17694768  0.25952488  0.48049989  1
  P  P125  1  0.83502962  0.53520299  0.44559450  1
  P  P126  1  0.30466962  0.40149318  0.57365581  1
  P  P127  1  0.69049245  0.66530944  0.60809228  1
  P  P128  1  0.83513405  0.03505117  0.55438039  1
  P  P129  1  0.17697542  0.75957760  0.51944188  1
  P  P130  1  0.30602398  0.65612808  0.67995579  1
  P  P131  1  0.69418662  0.91531360  0.71411549  1
  P  P132  1  0.80728660  0.28867792  0.66058535  1
  P  P133  1  0.19262876  0.02904539  0.62653590  1
  P  P134  1  0.30790150  0.90876184  0.78588675  1
  P  P135  1  0.69404851  0.16806417  0.82012787  1
  P  P136  1  0.80616755  0.54102991  0.76748393  1
  P  P137  1  0.19409337  0.28262046  0.73258510  1
  P  P138  1  0.30847405  0.15946664  0.89201878  1
  P  P139  1  0.69443689  0.42370670  0.92638405  1
  P  P140  1  0.80703604  0.79611006  0.87346144  1
  P  P141  1  0.19153173  0.53571184  0.83950466  1
  P  P142  1  0.82376461  0.06641262  0.98070326  1
  P  P143  1  0.16490759  0.79116748  0.94563752  1
  O  O144  1  0.79642813  0.03244865  0.06223219  1
  O  O145  1  0.26913841  0.18966043  0.07055514  1
  O  O146  1  0.69163640  0.67425215  0.00934933  1
  O  O147  1  0.71538576  0.54268782  0.04883796  1
  O  O148  1  0.28449472  0.28728327  0.02609827  1
  O  O149  1  0.20036614  0.65984028  0.07883112  1
  O  O150  1  0.78676710  0.91319783  0.10339452  1
  O  O151  1  0.80834191  0.82482754  0.05717529  1
  O  O152  1  0.74900273  0.46359403  0.00270582  1
  O  O153  1  0.24957511  0.39955600  0.06887289  1
  O  O154  1  0.37843520  0.92076877  0.07255221  1
  O  O155  1  0.62246550  0.65917182  0.10710721  1
  O  O156  1  0.85197304  0.29217841  0.05407960  1
  O  O157  1  0.13078800  0.58563316  0.02071388  1
  O  O158  1  0.79625212  0.77251328  0.16512576  1
  O  O159  1  0.20752917  0.55549421  0.12277140  1
  O  O160  1  0.29371909  0.93072861  0.17500710  1
  O  O161  1  0.70883849  0.40189834  0.11194833  1
  O  O162  1  0.70256831  0.29670431  0.15595258  1
  O  O163  1  0.29438314  0.03580933  0.13104597  1
  O  O164  1  0.20411982  0.40872022  0.18474725  1
  O  O165  1  0.79764504  0.66865556  0.20928825  1
  O  O166  1  0.20749515  0.76415553  0.12263888  1
  O  O167  1  0.79857566  0.56439323  0.16523132  1
  O  O168  1  0.69900985  0.19338808  0.11188555  1
  O  O169  1  0.29664093  0.13933680  0.17526290  1
  O  O170  1  0.38057927  0.66832909  0.18002214  1
  O  O171  1  0.62140258  0.40863023  0.21395724  1
  O  O172  1  0.87813322  0.03577220  0.16031212  1
  O  O173  1  0.12038973  0.29678817  0.12685154  1
  O  O174  1  0.79611350  0.52053727  0.27131250  1
  O  O175  1  0.20571414  0.30375697  0.22861480  1
  O  O176  1  0.29624135  0.67795732  0.28202684  1
  O  O177  1  0.70422228  0.14613642  0.21796969  1
  O  O178  1  0.70278980  0.04136636  0.26195198  1
  O  O179  1  0.29712969  0.78255696  0.23802241  1
  O  O180  1  0.20242858  0.15560720  0.29059276  1
  O  O181  1  0.79690985  0.41578978  0.31520219  1
  O  O182  1  0.20387213  0.51247742  0.22888270  1
  O  O183  1  0.79779479  0.31186259  0.27108182  1
  O  O184  1  0.70157576  0.93755395  0.21775451  1
  O  O185  1  0.29825800  0.88640923  0.28220680  1
  O  O186  1  0.38019241  0.41566892  0.28598254  1
  O  O187  1  0.61879407  0.15601881  0.31990595  1
  O  O188  1  0.88039294  0.78267900  0.26728507  1
  O  O189  1  0.11963579  0.04125639  0.23268433  1
  O  O190  1  0.79090571  0.27001232  0.37704398  1
  O  O191  1  0.20262672  0.05201950  0.33475489  1
  O  O192  1  0.28970190  0.42365405  0.38811145  1
  O  O193  1  0.70513090  0.89378211  0.32487329  1
  O  O194  1  0.70565149  0.78946679  0.36889962  1
  O  O195  1  0.29707085  0.52828114  0.34402277  1
  O  O196  1  0.21295686  0.91240365  0.39658315  1
  O  O197  1  0.79893807  0.16584631  0.42096345  1
  O  O198  1  0.20094204  0.26017570  0.33465087  1
  O  O199  1  0.79157576  0.06109226  0.37720353  1
  O  O200  1  0.70376963  0.68531511  0.32473636  1
  O  O201  1  0.30059111  0.63218156  0.38805576  1
  O  O202  1  0.37641291  0.16591697  0.39269961  1
  O  O203  1  0.62169169  0.90500307  0.42740807  1
  O  O204  1  0.87901182  0.52894138  0.37310855  1
  O  O205  1  0.12161079  0.78931580  0.33959086  1
  O  O206  1  0.20349383  0.79350229  0.43780229  1
  O  O207  1  0.30840206  0.15190264  0.49064671  1
  O  O208  1  0.73011709  0.63665211  0.42941658  1
  O  O209  1  0.71510135  0.53936928  0.47389586  1
  O  O210  1  0.28467290  0.28278097  0.45098797  1
  O  O211  1  0.19195004  0.00097740  0.44281187  1
  O  O212  1  0.74973206  0.42679642  0.43112884  1
  O  O213  1  0.25236057  0.36252300  0.49708817  1
  O  O214  1  0.86958474  0.24074988  0.47910331  1
  O  O215  1  0.14747094  0.53404415  0.44588858  1
  O  O216  1  0.20226288  0.29298193  0.56215490  1
  O  O217  1  0.72987809  0.13629286  0.57060652  1
  O  O218  1  0.30818238  0.65181755  0.50933375  1
  O  O219  1  0.28494141  0.78278646  0.54894494  1
  O  O220  1  0.71515814  0.03942542  0.52608391  1
  O  O221  1  0.79901652  0.66505680  0.57887913  1
  O  O222  1  0.21205859  0.41200648  0.60337484  1
  O  O223  1  0.19163796  0.50039963  0.55711222  1
  O  O224  1  0.25273659  0.86251986  0.50285499  1
  O  O225  1  0.75015012  0.92648280  0.56878873  1
  O  O226  1  0.62075050  0.40413894  0.57258420  1
  O  O227  1  0.37699425  0.66554611  0.60717422  1
  O  O228  1  0.14754183  0.03398160  0.55409437  1
  O  O229  1  0.86957867  0.74099155  0.52081680  1
  O  O230  1  0.20300749  0.55171185  0.66522694  1
  O  O231  1  0.79207847  0.76960593  0.62277226  1
  O  O232  1  0.70471726  0.39348766  0.67516026  1
  O  O233  1  0.29055259  0.92356197  0.61183710  1
  O  O234  1  0.29716611  0.02819329  0.65593029  1
  O  O235  1  0.70470735  0.28924548  0.63111769  1
  O  O236  1  0.79765395  0.91537422  0.68473039  1
  O  O237  1  0.20303135  0.65553725  0.70935322  1
  O  O238  1  0.79198985  0.56079069  0.62273747  1
  O  O239  1  0.20189245  0.75980243  0.66523503  1
  O  O240  1  0.30036625  0.13209934  0.61190975  1
  O  O241  1  0.70284016  0.18500219  0.67527120  1
  O  O242  1  0.61953091  0.65576995  0.68003623  1
  O  O243  1  0.38067683  0.91551346  0.71393670  1
  O  O244  1  0.12076371  0.28881423  0.66040327  1
  O  O245  1  0.87924679  0.02856003  0.62684005  1
  O  O246  1  0.20587538  0.80365628  0.77139950  1
  O  O247  1  0.79648559  0.02034815  0.72861846  1
  O  O248  1  0.70428897  0.64601132  0.78205511  1
  O  O249  1  0.29648263  0.17779087  0.71800439  1
  O  O250  1  0.29722067  0.28243618  0.76200069  1
  O  O251  1  0.70296652  0.54123230  0.73806258  1
  O  O252  1  0.79776028  0.16838993  0.79075604  1
  O  O253  1  0.20403130  0.90871822  0.81526109  1
  O  O254  1  0.79807449  0.81169508  0.72890429  1
  O  O255  1  0.20386666  0.01238373  0.77111159  1
  O  O256  1  0.29807816  0.38625417  0.71781523  1
  O  O257  1  0.70191310  0.43738326  0.78224882  1
  O  O258  1  0.62139708  0.90862138  0.78606065  1
  O  O259  1  0.38049123  0.16830498  0.81999940  1
  O  O260  1  0.11980645  0.54121980  0.76733083  1
  O  O261  1  0.88052096  0.28237389  0.73273436  1
  O  O262  1  0.20731684  0.05518592  0.87731804  1
  O  O263  1  0.79612105  0.27254909  0.83487590  1
  O  O264  1  0.70875429  0.90162263  0.88812623  1
  O  O265  1  0.29361886  0.43064205  0.82498884  1
  O  O266  1  0.29440440  0.53550595  0.86897550  1
  O  O267  1  0.70255018  0.79673821  0.84407479  1
  O  O268  1  0.78666159  0.41311654  0.89665788  1
  O  O269  1  0.19984275  0.15985244  0.92121701  1
  O  O270  1  0.79830825  0.06442636  0.83485950  1
  O  O271  1  0.20691933  0.26391643  0.87737391  1
  O  O272  1  0.29676881  0.63923927  0.82479519  1
  O  O273  1  0.69883555  0.69318080  0.88811225  1
  O  O274  1  0.62197162  0.15919976  0.89297170  1
  O  O275  1  0.37837762  0.42078101  0.92749640  1
  O  O276  1  0.12033888  0.79648038  0.87317635  1
  O  O277  1  0.87813893  0.53569199  0.83971258  1
  O  O278  1  0.79647981  0.53247753  0.93780042  1
  O  O279  1  0.69185088  0.17413659  0.99075053  1
  O  O280  1  0.26970234  0.68966430  0.92946836  1
  O  O281  1  0.28500488  0.78720279  0.97393027  1
  O  O282  1  0.71532331  0.04261609  0.95124259  1
  O  O283  1  0.80816893  0.32486699  0.94290202  1
  O  O284  1  0.24978166  0.89953355  0.93118219  1
  O  O285  1  0.74994628  0.96346606  0.99737359  1
  O  O286  1  0.13099701  0.08573174  0.97930079  1
  O  O287  1  0.85242066  0.79204697  0.94595989  1
