# generated using pymatgen
data_Li3PO4
_symmetry_space_group_name_H-M   'P 1'
_cell_length_a   4.97784600
_cell_length_b   16.20967300
_cell_length_c   57.02208009
_cell_angle_alpha   90.00000000
_cell_angle_beta   90.00000000
_cell_angle_gamma   90.00000000
_symmetry_Int_Tables_number   1
_chemical_formula_structural   Li3PO4
_chemical_formula_sum   'Li168 P56 O224'
_cell_volume   4601.06921250
_cell_formula_units_Z   56
loop_
 _symmetry_equiv_pos_site_id
 _symmetry_equiv_pos_as_xyz
  1  'x, y, z'
loop_
 _atom_site_type_symbol
 _atom_site_label
 _atom_site_symmetry_multiplicity
 _atom_site_fract_x
 _atom_site_fract_y
 _atom_site_fract_z
 _atom_site_occupancy
  Li  Li0  1  0.19962638  0.57350662  0.09679544  1
  Li  Li1  1  0.18636398  0.86102853  0.02880337  1
  Li  Li2  1  0.80203742  0.43495832  0.05035395  1
  Li  Li3  1  0.80162081  0.14684069  0.12118442  1
  Li  Li4  1  0.69833890  0.64684321  0.12118177  1
  Li  Li5  1  0.69795011  0.93496747  0.05035574  1
  Li  Li6  1  0.31362745  0.36102057  0.02879864  1
  Li  Li7  1  0.30016784  0.07358037  0.09680918  1
  Li  Li8  1  0.30353507  0.21866963  0.06280959  1
  Li  Li9  1  0.69586584  0.79063945  0.08716319  1
  Li  Li10  1  0.69416390  0.07545585  0.01492036  1
  Li  Li11  1  0.80588730  0.57542602  0.01492721  1
  Li  Li12  1  0.80411636  0.29063376  0.08715697  1
  Li  Li13  1  0.19644534  0.71867022  0.06281451  1
  Li  Li14  1  0.79586234  0.60692326  0.06644427  1
  Li  Li15  1  0.19951328  0.40141637  0.08091541  1
  Li  Li16  1  0.18764400  0.68963718  0.01464172  1
  Li  Li17  1  0.31226541  0.18955985  0.01464712  1
  Li  Li18  1  0.30087513  0.90140178  0.08093339  1
  Li  Li19  1  0.70410310  0.10692104  0.06644435  1
  Li  Li20  1  0.19915789  0.99557505  0.23762384  1
  Li  Li21  1  0.19704085  0.28404024  0.16765890  1
  Li  Li22  1  0.80194282  0.85778507  0.19156304  1
  Li  Li23  1  0.80289136  0.56895341  0.26198117  1
  Li  Li24  1  0.69708623  0.06895140  0.26198266  1
  Li  Li25  1  0.69802745  0.35777750  0.19156362  1
  Li  Li26  1  0.30292978  0.78410676  0.16768091  1
  Li  Li27  1  0.30081010  0.49557896  0.23762486  1
  Li  Li28  1  0.30331210  0.64149215  0.20234283  1
  Li  Li29  1  0.30122857  0.93001960  0.13188866  1
  Li  Li30  1  0.69831385  0.21192264  0.22701414  1
  Li  Li31  1  0.69762029  0.50145670  0.15661743  1
  Li  Li32  1  0.80226898  0.00136905  0.15661951  1
  Li  Li33  1  0.80167253  0.71192502  0.22701179  1
  Li  Li34  1  0.19875084  0.43002236  0.13188950  1
  Li  Li35  1  0.19665150  0.14149363  0.20234347  1
  Li  Li36  1  0.79595740  0.03075034  0.20760516  1
  Li  Li37  1  0.79894257  0.31972891  0.13763919  1
  Li  Li38  1  0.19849559  0.82292296  0.22186997  1
  Li  Li39  1  0.20110743  0.11121630  0.15126389  1
  Li  Li40  1  0.29884852  0.61122306  0.15126274  1
  Li  Li41  1  0.30146279  0.32292270  0.22187008  1
  Li  Li42  1  0.70101937  0.81972543  0.13763985  1
  Li  Li43  1  0.70400654  0.53074749  0.20760454  1
  Li  Li44  1  0.19838071  0.42210293  0.37888436  1
  Li  Li45  1  0.19818388  0.70848585  0.30846003  1
  Li  Li46  1  0.80279179  0.28272253  0.33233046  1
  Li  Li47  1  0.79998047  0.99603531  0.40313739  1
  Li  Li48  1  0.69998845  0.49603715  0.40313679  1
  Li  Li49  1  0.69735249  0.78274203  0.33233194  1
  Li  Li50  1  0.30189140  0.20844474  0.30847370  1
  Li  Li51  1  0.30158635  0.92211028  0.37888292  1
  Li  Li52  1  0.30248379  0.06556104  0.34337312  1
  Li  Li53  1  0.30295749  0.35291442  0.27275579  1
  Li  Li54  1  0.69881036  0.63828935  0.36800940  1
  Li  Li55  1  0.69734331  0.92466343  0.29749462  1
  Li  Li56  1  0.80262290  0.42465984  0.29749460  1
  Li  Li57  1  0.80121878  0.13828094  0.36801716  1
  Li  Li58  1  0.19701739  0.85291987  0.27275413  1
  Li  Li59  1  0.19749808  0.56555838  0.34337153  1
  Li  Li60  1  0.79821319  0.45563618  0.34850012  1
  Li  Li61  1  0.79938076  0.74172410  0.27807035  1
  Li  Li62  1  0.20111160  0.24852597  0.36246385  1
  Li  Li63  1  0.20453776  0.53551701  0.29230830  1
  Li  Li64  1  0.29543363  0.03551529  0.29230884  1
  Li  Li65  1  0.29887341  0.74852108  0.36246261  1
  Li  Li66  1  0.70059594  0.24172113  0.27807110  1
  Li  Li67  1  0.70175151  0.95564206  0.34850096  1
  Li  Li68  1  0.19929399  0.13782094  0.44982800  1
  Li  Li69  1  0.81353505  0.71246186  0.47074485  1
  Li  Li70  1  0.68640614  0.21246864  0.47074360  1
  Li  Li71  1  0.30066235  0.63782538  0.44982702  1
  Li  Li72  1  0.30716865  0.49874746  0.48501762  1
  Li  Li73  1  0.30377315  0.77944917  0.41297867  1
  Li  Li74  1  0.69655727  0.35364145  0.43699794  1
  Li  Li75  1  0.80340770  0.85363784  0.43699987  1
  Li  Li76  1  0.19616426  0.27945190  0.41297898  1
  Li  Li77  1  0.19278118  0.99874929  0.48501598  1
  Li  Li78  1  0.81306623  0.88458688  0.48521427  1
  Li  Li79  1  0.79946211  0.16941511  0.41874519  1
  Li  Li80  1  0.20362839  0.96514618  0.43358602  1
  Li  Li81  1  0.29638335  0.46517439  0.43360322  1
  Li  Li82  1  0.70042306  0.66942307  0.41872651  1
  Li  Li83  1  0.68691704  0.38458619  0.48521710  1
  Li  Li84  1  0.30268765  0.00050913  0.59684610  1
  Li  Li85  1  0.31355787  0.71458881  0.52908668  1
  Li  Li86  1  0.69894430  0.13965013  0.55015847  1
  Li  Li87  1  0.69722366  0.42609162  0.62127113  1
  Li  Li88  1  0.80325336  0.92608914  0.62126929  1
  Li  Li89  1  0.80095156  0.63970002  0.55017108  1
  Li  Li90  1  0.18642447  0.21458062  0.52908837  1
  Li  Li91  1  0.19740740  0.50051468  0.59684311  1
  Li  Li92  1  0.19708323  0.35610575  0.56317270  1
  Li  Li93  1  0.80534594  0.78292074  0.58742083  1
  Li  Li94  1  0.80737492  0.49983192  0.51482854  1
  Li  Li95  1  0.69263039  0.99983662  0.51482596  1
  Li  Li96  1  0.69606372  0.28256436  0.58741108  1
  Li  Li97  1  0.30301671  0.85611024  0.56316748  1
  Li  Li98  1  0.70294691  0.96795453  0.56652172  1
  Li  Li99  1  0.29962822  0.17295604  0.58115173  1
  Li  Li100  1  0.31323871  0.88570968  0.51490433  1
  Li  Li101  1  0.18698750  0.38566147  0.51491615  1
  Li  Li102  1  0.20045607  0.67296902  0.58114950  1
  Li  Li103  1  0.79705548  0.46794145  0.56652464  1
  Li  Li104  1  0.30287906  0.57929035  0.73802472  1
  Li  Li105  1  0.30162669  0.28971999  0.66772064  1
  Li  Li106  1  0.69811526  0.71621718  0.69177823  1
  Li  Li107  1  0.69776984  0.00515431  0.76235968  1
  Li  Li108  1  0.80217199  0.50515848  0.76236023  1
  Li  Li109  1  0.80187015  0.21621706  0.69177940  1
  Li  Li110  1  0.19839230  0.78971582  0.66771558  1
  Li  Li111  1  0.19707558  0.07929063  0.73802587  1
  Li  Li112  1  0.19718407  0.93348867  0.70239333  1
  Li  Li113  1  0.19907324  0.64322761  0.63208601  1
  Li  Li114  1  0.80306556  0.36255176  0.72725971  1
  Li  Li115  1  0.80162577  0.07233544  0.65643880  1
  Li  Li116  1  0.69838796  0.57233487  0.65643968  1
  Li  Li117  1  0.69677681  0.86257408  0.72726551  1
  Li  Li118  1  0.30122084  0.14336047  0.63211731  1
  Li  Li119  1  0.30277992  0.43349020  0.70239400  1
  Li  Li120  1  0.70179985  0.54411550  0.70766977  1
  Li  Li121  1  0.70080013  0.25346115  0.63791320  1
  Li  Li122  1  0.29853580  0.75152970  0.72189871  1
  Li  Li123  1  0.29626713  0.46263084  0.65149648  1
  Li  Li124  1  0.20393397  0.96266258  0.65150194  1
  Li  Li125  1  0.20141953  0.25153291  0.72189880  1
  Li  Li126  1  0.79931808  0.75345036  0.63791094  1
  Li  Li127  1  0.79817423  0.04411411  0.70766983  1
  Li  Li128  1  0.30315793  0.15455130  0.87882438  1
  Li  Li129  1  0.29991738  0.86679567  0.80824698  1
  Li  Li130  1  0.69741484  0.29190813  0.83213595  1
  Li  Li131  1  0.69751400  0.57998583  0.90311483  1
  Li  Li132  1  0.80248010  0.07992125  0.90306024  1
  Li  Li133  1  0.80254302  0.79188688  0.83213208  1
  Li  Li134  1  0.20003399  0.36680975  0.80824962  1
  Li  Li135  1  0.19668913  0.65493010  0.87895189  1
  Li  Li136  1  0.19731591  0.50961372  0.84341441  1
  Li  Li137  1  0.20016215  0.22219680  0.77300395  1
  Li  Li138  1  0.80197950  0.93711081  0.86797139  1
  Li  Li139  1  0.79956967  0.64966407  0.79745362  1
  Li  Li140  1  0.69969010  0.14971532  0.79741502  1
  Li  Li141  1  0.69801313  0.43718130  0.86798491  1
  Li  Li142  1  0.29972618  0.72218068  0.77300958  1
  Li  Li143  1  0.30260033  0.00957374  0.84340818  1
  Li  Li144  1  0.70357251  0.11994913  0.84848409  1
  Li  Li145  1  0.69848855  0.83262327  0.77810869  1
  Li  Li146  1  0.29919547  0.32812850  0.86240429  1
  Li  Li147  1  0.29691482  0.03986933  0.79258036  1
  Li  Li148  1  0.20299125  0.53986488  0.79258216  1
  Li  Li149  1  0.20146124  0.82780360  0.86237716  1
  Li  Li150  1  0.80145757  0.33263283  0.77811099  1
  Li  Li151  1  0.79630904  0.62003357  0.84858697  1
  Li  Li152  1  0.30157438  0.43841165  0.94984652  1
  Li  Li153  1  0.68571682  0.86372482  0.97088999  1
  Li  Li154  1  0.81427977  0.36373224  0.97089300  1
  Li  Li155  1  0.19808692  0.93850515  0.94982867  1
  Li  Li156  1  0.19285417  0.07648285  0.98499553  1
  Li  Li157  1  0.19634516  0.79771443  0.91298651  1
  Li  Li158  1  0.80338664  0.22347831  0.93696412  1
  Li  Li159  1  0.69662777  0.72347789  0.93697895  1
  Li  Li160  1  0.30365599  0.29767635  0.91297521  1
  Li  Li161  1  0.30722905  0.57650873  0.98499702  1
  Li  Li162  1  0.68746894  0.69093180  0.98513665  1
  Li  Li163  1  0.70084993  0.40698157  0.91874308  1
  Li  Li164  1  0.29758935  0.61111819  0.93347420  1
  Li  Li165  1  0.20240846  0.11112949  0.93346018  1
  Li  Li166  1  0.79912489  0.90699332  0.91874151  1
  Li  Li167  1  0.81330295  0.19096367  0.98503618  1
  P  P168  1  0.69385896  0.47009107  0.10387950  1
  P  P169  1  0.69477140  0.75857339  0.03548314  1
  P  P170  1  0.30709908  0.53828518  0.04305315  1
  P  P171  1  0.30701841  0.25080496  0.11468806  1
  P  P172  1  0.19291678  0.75079434  0.11469204  1
  P  P173  1  0.19288780  0.03826531  0.04306118  1
  P  P174  1  0.80522486  0.25855260  0.03546219  1
  P  P175  1  0.80614012  0.97010953  0.10387925  1
  P  P176  1  0.69256330  0.89194671  0.24479339  1
  P  P177  1  0.69260467  0.18058857  0.17438263  1
  P  P178  1  0.30610012  0.96144830  0.18459104  1
  P  P179  1  0.30720466  0.67284999  0.25503731  1
  P  P180  1  0.19279971  0.17283128  0.25504125  1
  P  P181  1  0.19379414  0.46143835  0.18459136  1
  P  P182  1  0.80732915  0.68060107  0.17438321  1
  P  P183  1  0.80740893  0.39194840  0.24479384  1
  P  P184  1  0.69236204  0.31821999  0.38534727  1
  P  P185  1  0.69376023  0.60496186  0.31536018  1
  P  P186  1  0.30698314  0.38605316  0.32548247  1
  P  P187  1  0.30613712  0.09950374  0.39604233  1
  P  P188  1  0.19379234  0.59951088  0.39603899  1
  P  P189  1  0.19295879  0.88606294  0.32548388  1
  P  P190  1  0.80620641  0.10496439  0.31536659  1
  P  P191  1  0.80758154  0.81822256  0.38534643  1
  P  P192  1  0.69279537  0.03479249  0.45679088  1
  P  P193  1  0.30559159  0.81474889  0.46459038  1
  P  P194  1  0.19430785  0.31475636  0.46458990  1
  P  P195  1  0.80714905  0.53480285  0.45678928  1
  P  P196  1  0.80642181  0.10360039  0.60394026  1
  P  P197  1  0.80503575  0.81666259  0.53568362  1
  P  P198  1  0.19263821  0.03675026  0.54308956  1
  P  P199  1  0.19214723  0.32273861  0.61486971  1
  P  P200  1  0.30831143  0.82274221  0.61487110  1
  P  P201  1  0.30733577  0.53675487  0.54308951  1
  P  P202  1  0.69502759  0.31662020  0.53568664  1
  P  P203  1  0.69385085  0.60366364  0.60393731  1
  P  P204  1  0.80628074  0.68246104  0.74496683  1
  P  P205  1  0.80615646  0.39342354  0.67456077  1
  P  P206  1  0.19340253  0.61275812  0.68475405  1
  P  P207  1  0.19247420  0.90183627  0.75516876  1
  P  P208  1  0.30740539  0.40183650  0.75516703  1
  P  P209  1  0.30656131  0.11276299  0.68475662  1
  P  P210  1  0.69385550  0.89342290  0.67455800  1
  P  P211  1  0.69363333  0.18246667  0.74496700  1
  P  P212  1  0.80777905  0.25806192  0.88525916  1
  P  P213  1  0.80581778  0.97009019  0.81542213  1
  P  P214  1  0.19392575  0.18934653  0.82552026  1
  P  P215  1  0.19333542  0.47694581  0.89603155  1
  P  P216  1  0.30664846  0.97690084  0.89601465  1
  P  P217  1  0.30583413  0.68929291  0.82554841  1
  P  P218  1  0.69414145  0.47011648  0.81543248  1
  P  P219  1  0.69229778  0.75806120  0.88528386  1
  P  P220  1  0.80717289  0.54124885  0.95676246  1
  P  P221  1  0.19446489  0.76152649  0.96456491  1
  P  P222  1  0.30566214  0.26150844  0.96455687  1
  P  P223  1  0.69280945  0.04123572  0.95674491  1
  O  O224  1  0.79741748  0.55939309  0.09909525  1
  O  O225  1  0.80905065  0.84550191  0.03045236  1
  O  O226  1  0.20014395  0.44964150  0.04812126  1
  O  O227  1  0.20342504  0.16118880  0.11897878  1
  O  O228  1  0.29647473  0.66117163  0.11896965  1
  O  O229  1  0.29979912  0.94962282  0.04813696  1
  O  O230  1  0.69096393  0.34549840  0.03044576  1
  O  O231  1  0.70256662  0.05940490  0.09909563  1
  O  O232  1  0.70856527  0.22717469  0.05993725  1
  O  O233  1  0.70369733  0.94024423  0.12830270  1
  O  O234  1  0.29464888  0.78164901  0.09037639  1
  O  O235  1  0.29585008  0.06754557  0.01860845  1
  O  O236  1  0.20416784  0.56760434  0.01860365  1
  O  O237  1  0.20529100  0.28162888  0.09036917  1
  O  O238  1  0.79627845  0.44024346  0.12830425  1
  O  O239  1  0.79139109  0.72718967  0.05995596  1
  O  O240  1  0.20438585  0.59769793  0.06255372  1
  O  O241  1  0.79774041  0.41120594  0.08437702  1
  O  O242  1  0.79584577  0.69698149  0.01663550  1
  O  O243  1  0.70430119  0.19700740  0.01659209  1
  O  O244  1  0.70230572  0.91121528  0.08437756  1
  O  O245  1  0.29560357  0.09770717  0.06255432  1
  O  O246  1  0.38015437  0.47062708  0.10395852  1
  O  O247  1  0.38046502  0.76206851  0.03531742  1
  O  O248  1  0.62023240  0.53719611  0.04292327  1
  O  O249  1  0.62027781  0.25040515  0.11480907  1
  O  O250  1  0.87965757  0.75039463  0.11481435  1
  O  O251  1  0.87975272  0.03719912  0.04292477  1
  O  O252  1  0.11952220  0.26206628  0.03530813  1
  O  O253  1  0.11984164  0.97065465  0.10396181  1
  O  O254  1  0.79584503  0.98127302  0.24005078  1
  O  O255  1  0.79593963  0.26999343  0.16983534  1
  O  O256  1  0.20236311  0.87218781  0.18934931  1
  O  O257  1  0.20392781  0.58346893  0.25972455  1
  O  O258  1  0.29605298  0.08344855  0.25972447  1
  O  O259  1  0.29750763  0.37217411  0.18934908  1
  O  O260  1  0.70399158  0.77000961  0.16984087  1
  O  O261  1  0.70410139  0.48127019  0.24004898  1
  O  O262  1  0.70463434  0.65047269  0.19877749  1
  O  O263  1  0.70484063  0.36234552  0.26924248  1
  O  O264  1  0.29559538  0.20275915  0.23062855  1
  O  O265  1  0.29645277  0.49133029  0.16017168  1
  O  O266  1  0.20348692  0.99132369  0.16016930  1
  O  O267  1  0.20437444  0.70277120  0.23062517  1
  O  O268  1  0.79512329  0.86234306  0.26924319  1
  O  O269  1  0.79530745  0.15048048  0.19877869  1
  O  O270  1  0.20250947  0.02052950  0.20408079  1
  O  O271  1  0.20170129  0.30928803  0.13423845  1
  O  O272  1  0.79667744  0.83291314  0.22531257  1
  O  O273  1  0.79697901  0.12188173  0.15484272  1
  O  O274  1  0.70290812  0.62191189  0.15483996  1
  O  O275  1  0.70331569  0.33290769  0.22531232  1
  O  O276  1  0.29827940  0.80927318  0.13424311  1
  O  O277  1  0.29734389  0.52052018  0.20408302  1
  O  O278  1  0.37898504  0.89238352  0.24484504  1
  O  O279  1  0.37917261  0.18085419  0.17444318  1
  O  O280  1  0.61969526  0.96089100  0.18447501  1
  O  O281  1  0.62087499  0.67226379  0.25493035  1
  O  O282  1  0.87911755  0.17224992  0.25493479  1
  O  O283  1  0.88019380  0.46088930  0.18447149  1
  O  O284  1  0.12075267  0.68086585  0.17444266  1
  O  O285  1  0.12097594  0.39238668  0.24484682  1
  O  O286  1  0.79567882  0.40783300  0.38097611  1
  O  O287  1  0.79710209  0.69430994  0.31061947  1
  O  O288  1  0.20377452  0.29666722  0.33012908  1
  O  O289  1  0.20281205  0.01018937  0.40087743  1
  O  O290  1  0.29702574  0.51019566  0.40088161  1
  O  O291  1  0.29616778  0.79667912  0.33013165  1
  O  O292  1  0.70286063  0.19430831  0.31062527  1
  O  O293  1  0.70425553  0.90783601  0.38097674  1
  O  O294  1  0.70390979  0.07554269  0.33984944  1
  O  O295  1  0.70619057  0.78834517  0.40977470  1
  O  O296  1  0.29611354  0.62869830  0.37154521  1
  O  O297  1  0.29504588  0.91561545  0.30101744  1
  O  O298  1  0.20489717  0.41561776  0.30101759  1
  O  O299  1  0.20389062  0.12869661  0.37154693  1
  O  O300  1  0.79376244  0.28833659  0.40977613  1
  O  O301  1  0.79605120  0.57552901  0.33984156  1
  O  O302  1  0.20240365  0.44501522  0.34496508  1
  O  O303  1  0.20351035  0.73179593  0.27456343  1
  O  O304  1  0.79811546  0.25929199  0.36593389  1
  O  O305  1  0.79771060  0.54580914  0.29589754  1
  O  O306  1  0.70224842  0.04581169  0.29590356  1
  O  O307  1  0.70183695  0.75929318  0.36593379  1
  O  O308  1  0.29650347  0.23177182  0.27456859  1
  O  O309  1  0.29751625  0.94502856  0.34496443  1
  O  O310  1  0.37917361  0.31848591  0.38519715  1
  O  O311  1  0.38019128  0.60538692  0.31545133  1
  O  O312  1  0.62042741  0.38577164  0.32546177  1
  O  O313  1  0.61974681  0.09895513  0.39598453  1
  O  O314  1  0.88017854  0.59897330  0.39597432  1
  O  O315  1  0.87951609  0.88578543  0.32546228  1
  O  O316  1  0.11977627  0.10538130  0.31545273  1
  O  O317  1  0.12078126  0.81849071  0.38519513  1
  O  O318  1  0.79854969  0.12345224  0.45156988  1
  O  O319  1  0.19224758  0.72775773  0.46978341  1
  O  O320  1  0.30761883  0.22775547  0.46977690  1
  O  O321  1  0.70139041  0.62345761  0.45156329  1
  O  O322  1  0.70337240  0.50661890  0.48129356  1
  O  O323  1  0.29124635  0.34497856  0.43999834  1
  O  O324  1  0.20864511  0.84494873  0.43999681  1
  O  O325  1  0.79659003  0.00660706  0.48129370  1
  O  O326  1  0.20448610  0.87684284  0.48331472  1
  O  O327  1  0.20245121  0.15878587  0.41545698  1
  O  O328  1  0.79592749  0.97469906  0.43747459  1
  O  O329  1  0.70395444  0.47470482  0.43747665  1
  O  O330  1  0.29742983  0.65879268  0.41545553  1
  O  O331  1  0.29545596  0.37683018  0.48331734  1
  O  O332  1  0.37975613  0.03547905  0.45694902  1
  O  O333  1  0.61983491  0.81148181  0.46473811  1
  O  O334  1  0.88006675  0.31149685  0.46473751  1
  O  O335  1  0.12018331  0.53549437  0.45695001  1
  O  O336  1  0.70380579  0.01416070  0.59920057  1
  O  O337  1  0.69103248  0.72976839  0.53055191  1
  O  O338  1  0.29886819  0.12543363  0.54821417  1
  O  O339  1  0.29464708  0.41248883  0.61912058  1
  O  O340  1  0.20568482  0.91247025  0.61914235  1
  O  O341  1  0.20107608  0.62544036  0.54820842  1
  O  O342  1  0.80888221  0.22971600  0.53053692  1
  O  O343  1  0.79659588  0.51422926  0.59920487  1
  O  O344  1  0.79201347  0.34741922  0.56021199  1
  O  O345  1  0.79730494  0.63349848  0.62833938  1
  O  O346  1  0.20608645  0.79214997  0.59054131  1
  O  O347  1  0.20379464  0.50771753  0.51863737  1
  O  O348  1  0.29621631  0.00772814  0.51863761  1
  O  O349  1  0.29422376  0.29208041  0.59054420  1
  O  O350  1  0.70273461  0.13347065  0.62833011  1
  O  O351  1  0.70826956  0.84752609  0.56020846  1
  O  O352  1  0.29552081  0.97723160  0.56257303  1
  O  O353  1  0.70295664  0.16237738  0.58440098  1
  O  O354  1  0.70425623  0.87831724  0.51682808  1
  O  O355  1  0.79576546  0.37829779  0.51683543  1
  O  O356  1  0.79750849  0.66246925  0.58441299  1
  O  O357  1  0.20447233  0.47722944  0.56257294  1
  O  O358  1  0.12012551  0.10318918  0.60412673  1
  O  O359  1  0.11930660  0.81326152  0.53552779  1
  O  O360  1  0.87954592  0.03751195  0.54291122  1
  O  O361  1  0.87890629  0.32271345  0.61501797  1
  O  O362  1  0.62152405  0.82275209  0.61501037  1
  O  O363  1  0.62042806  0.53752688  0.54291622  1
  O  O364  1  0.38075699  0.31323898  0.53554216  1
  O  O365  1  0.38015686  0.60320209  0.60409978  1
  O  O366  1  0.70381284  0.59301531  0.74024953  1
  O  O367  1  0.70284581  0.30396132  0.67007326  1
  O  O368  1  0.29679983  0.70202521  0.68952341  1
  O  O369  1  0.29582912  0.99111088  0.75996705  1
  O  O370  1  0.20400601  0.49110953  0.75996275  1
  O  O371  1  0.20313388  0.20202687  0.68952772  1
  O  O372  1  0.79716711  0.80396578  0.67006211  1
  O  O373  1  0.79606190  0.09301187  0.74025386  1
  O  O374  1  0.79595565  0.92385398  0.69893363  1
  O  O375  1  0.79689676  0.21223550  0.76938302  1
  O  O376  1  0.20480082  0.37199585  0.73074936  1
  O  O377  1  0.20275612  0.08267928  0.66038831  1
  O  O378  1  0.29723105  0.58264104  0.66039079  1
  O  O379  1  0.29508486  0.87200865  0.73075033  1
  O  O380  1  0.70297841  0.71221183  0.76938373  1
  O  O381  1  0.70400476  0.42386503  0.69893377  1
  O  O382  1  0.29645463  0.55399888  0.70433163  1
  O  O383  1  0.29807023  0.26427995  0.63439771  1
  O  O384  1  0.70220472  0.74137123  0.72545086  1
  O  O385  1  0.70172391  0.45179889  0.65492917  1
  O  O386  1  0.79832803  0.95181451  0.65493161  1
  O  O387  1  0.79775689  0.24136130  0.72545008  1
  O  O388  1  0.20249456  0.76421955  0.63438618  1
  O  O389  1  0.20353279  0.05399409  0.70433070  1
  O  O390  1  0.11986412  0.68229209  0.74506318  1
  O  O391  1  0.11966948  0.39301776  0.67460898  1
  O  O392  1  0.87982579  0.61319623  0.68448245  1
  O  O393  1  0.87893845  0.90219551  0.75513377  1
  O  O394  1  0.62092557  0.40219386  0.75513077  1
  O  O395  1  0.62013643  0.11320542  0.68448160  1
  O  O396  1  0.38033737  0.89302601  0.67460991  1
  O  O397  1  0.38004799  0.18229406  0.74506297  1
  O  O398  1  0.70577383  0.16829055  0.88094040  1
  O  O399  1  0.70263602  0.88081546  0.81060046  1
  O  O400  1  0.29627282  0.27880302  0.83011095  1
  O  O401  1  0.29610554  0.56633413  0.90082505  1
  O  O402  1  0.20395149  0.06630460  0.90078520  1
  O  O403  1  0.20356636  0.77878626  0.83010747  1
  O  O404  1  0.79731213  0.38084850  0.81060845  1
  O  O405  1  0.79428180  0.66827832  0.88099707  1
  O  O406  1  0.79685647  0.49969266  0.83986842  1
  O  O407  1  0.79441136  0.78822338  0.90966725  1
  O  O408  1  0.20355078  0.94745405  0.87157357  1
  O  O409  1  0.20291711  0.65947925  0.80113465  1
  O  O410  1  0.29682157  0.15955252  0.80110442  1
  O  O411  1  0.29646185  0.44754760  0.87158756  1
  O  O412  1  0.70569311  0.28819208  0.90965161  1
  O  O413  1  0.70310396  0.99965751  0.83986083  1
  O  O414  1  0.29840234  0.13052280  0.84503720  1
  O  O415  1  0.29632341  0.84269583  0.77464780  1
  O  O416  1  0.70120944  0.31656283  0.86577250  1
  O  O417  1  0.70193826  0.02919675  0.79595399  1
  O  O418  1  0.79793961  0.52920578  0.79595795  1
  O  O419  1  0.79878245  0.81647673  0.86577762  1
  O  O420  1  0.20354792  0.34270809  0.77464909  1
  O  O421  1  0.20139976  0.63060438  0.84509713  1
  O  O422  1  0.12095977  0.25820783  0.88514679  1
  O  O423  1  0.11930488  0.96979316  0.81553155  1
  O  O424  1  0.88041310  0.18933781  0.82540985  1
  O  O425  1  0.87977375  0.47725045  0.89591751  1
  O  O426  1  0.62021311  0.97718137  0.89590506  1
  O  O427  1  0.61936699  0.68927731  0.82544935  1
  O  O428  1  0.38064377  0.46980865  0.81554373  1
  O  O429  1  0.37914102  0.75822127  0.88518173  1
  O  O430  1  0.70188393  0.45251909  0.95154086  1
  O  O431  1  0.30743549  0.84853158  0.96983336  1
  O  O432  1  0.19253249  0.34847037  0.96985502  1
  O  O433  1  0.79797851  0.95249229  0.95152674  1
  O  O434  1  0.79697500  0.06917081  0.98126224  1
  O  O435  1  0.20849472  0.23168332  0.93992706  1
  O  O436  1  0.29141277  0.73166674  0.93992982  1
  O  O437  1  0.70312698  0.56918848  0.98128346  1
  O  O438  1  0.29608639  0.69912605  0.98318228  1
  O  O439  1  0.29732013  0.41794687  0.91550051  1
  O  O440  1  0.70365706  0.60145871  0.93748330  1
  O  O441  1  0.79634043  0.10142818  0.93746255  1
  O  O442  1  0.20261475  0.91797405  0.91549757  1
  O  O443  1  0.20438397  0.19904099  0.98316809  1
  O  O444  1  0.12020465  0.54068832  0.95691418  1
  O  O445  1  0.88022025  0.76476865  0.96475564  1
  O  O446  1  0.61989679  0.26482669  0.96471585  1
  O  O447  1  0.37978554  0.04071206  0.95689852  1
