# generated using pymatgen
data_Li3PO4
_symmetry_space_group_name_H-M   'P 1'
_cell_length_a   4.97784600
_cell_length_b   16.20967300
_cell_length_c   57.02064954
_cell_angle_alpha   90.00000000
_cell_angle_beta   90.00000000
_cell_angle_gamma   90.00000000
_symmetry_Int_Tables_number   1
_chemical_formula_structural   Li3PO4
_chemical_formula_sum   'Li168 P56 O224'
_cell_volume   4600.95378262
_cell_formula_units_Z   56
loop_
 _symmetry_equiv_pos_site_id
 _symmetry_equiv_pos_as_xyz
  1  'x, y, z'
loop_
 _atom_site_type_symbol
 _atom_site_label
 _atom_site_symmetry_multiplicity
 _atom_site_fract_x
 _atom_site_fract_y
 _atom_site_fract_z
 _atom_site_occupancy
  Li  Li0  1  0.19741727  0.61207790  0.09670884  1
  Li  Li1  1  0.18637139  0.89610919  0.02892597  1
  Li  Li2  1  0.80287960  0.47122529  0.05011778  1
  Li  Li3  1  0.69932744  0.97102450  0.05014003  1
  Li  Li4  1  0.31403517  0.39599464  0.02900947  1
  Li  Li5  1  0.30305746  0.11172888  0.09682761  1
  Li  Li6  1  0.30327961  0.25452229  0.06290340  1
  Li  Li7  1  0.69651852  0.82935540  0.08699346  1
  Li  Li8  1  0.69318595  0.10983589  0.01483609  1
  Li  Li9  1  0.80811588  0.61030563  0.01482242  1
  Li  Li10  1  0.80424046  0.32941863  0.08699643  1
  Li  Li11  1  0.19673288  0.75526339  0.06285719  1
  Li  Li12  1  0.79700935  0.64320641  0.06640129  1
  Li  Li13  1  0.20108178  0.43886764  0.08113791  1
  Li  Li14  1  0.18759107  0.72426451  0.01481775  1
  Li  Li15  1  0.31260271  0.22419657  0.01482477  1
  Li  Li16  1  0.30054154  0.93889849  0.08116887  1
  Li  Li17  1  0.70356260  0.14292651  0.06637992  1
  Li  Li18  1  0.19921369  0.03772037  0.23763482  1
  Li  Li19  1  0.19848390  0.32351417  0.16764771  1
  Li  Li20  1  0.80174786  0.89908101  0.19169148  1
  Li  Li21  1  0.80289680  0.18652425  0.12114633  1
  Li  Li22  1  0.69743444  0.68652127  0.12117048  1
  Li  Li23  1  0.69820759  0.39908509  0.19169315  1
  Li  Li24  1  0.30157178  0.82344735  0.16765135  1
  Li  Li25  1  0.30062023  0.53772814  0.23764550  1
  Li  Li26  1  0.30075060  0.68119932  0.20248538  1
  Li  Li27  1  0.30218480  0.96896144  0.13197154  1
  Li  Li28  1  0.69875427  0.25466598  0.22698856  1
  Li  Li29  1  0.69691153  0.54139859  0.15639157  1
  Li  Li30  1  0.80310796  0.04139321  0.15638406  1
  Li  Li31  1  0.80089103  0.75471366  0.22697605  1
  Li  Li32  1  0.19808481  0.46903629  0.13195407  1
  Li  Li33  1  0.19867265  0.18128039  0.20250748  1
  Li  Li34  1  0.79654872  0.07128818  0.20730298  1
  Li  Li35  1  0.79869275  0.35961388  0.13754797  1
  Li  Li36  1  0.20177671  0.86439373  0.22172494  1
  Li  Li37  1  0.20476636  0.15143507  0.15136718  1
  Li  Li38  1  0.29525764  0.65142073  0.15136355  1
  Li  Li39  1  0.29812819  0.36439909  0.22172560  1
  Li  Li40  1  0.70138956  0.85958381  0.13754981  1
  Li  Li41  1  0.70256635  0.57124258  0.20739212  1
  Li  Li42  1  0.19774614  0.46445810  0.37869720  1
  Li  Li43  1  0.19707686  0.75135615  0.30823204  1
  Li  Li44  1  0.80265165  0.32573243  0.33208614  1
  Li  Li45  1  0.80284874  0.61261144  0.26196727  1
  Li  Li46  1  0.69702236  0.11258254  0.26196233  1
  Li  Li47  1  0.69724746  0.82577555  0.33209127  1
  Li  Li48  1  0.30281147  0.25133530  0.30822771  1
  Li  Li49  1  0.30218175  0.96445897  0.37870049  1
  Li  Li50  1  0.30312982  0.10920252  0.34325152  1
  Li  Li51  1  0.30249430  0.39586279  0.27268391  1
  Li  Li52  1  0.69718189  0.68062313  0.36791046  1
  Li  Li53  1  0.69687933  0.96827174  0.29736037  1
  Li  Li54  1  0.80314684  0.46826345  0.29736034  1
  Li  Li55  1  0.80271380  0.18061902  0.36791012  1
  Li  Li56  1  0.19738205  0.89586875  0.27268384  1
  Li  Li57  1  0.19679198  0.60920790  0.34325216  1
  Li  Li58  1  0.79797175  0.49900081  0.34828626  1
  Li  Li59  1  0.79847386  0.78505641  0.27805297  1
  Li  Li60  1  0.20072458  0.29137326  0.36232236  1
  Li  Li61  1  0.20210880  0.57834002  0.29232721  1
  Li  Li62  1  0.29778516  0.07832614  0.29232092  1
  Li  Li63  1  0.29894846  0.79140137  0.36233742  1
  Li  Li64  1  0.70139609  0.28497915  0.27805867  1
  Li  Li65  1  0.70195159  0.99901300  0.34829072  1
  Li  Li66  1  0.19816600  0.17919307  0.44962746  1
  Li  Li67  1  0.81273606  0.75348206  0.47099747  1
  Li  Li68  1  0.80162065  0.03830745  0.40315423  1
  Li  Li69  1  0.69836416  0.53830021  0.40315558  1
  Li  Li70  1  0.68717257  0.25347563  0.47098836  1
  Li  Li71  1  0.30177178  0.67917587  0.44963310  1
  Li  Li72  1  0.30718095  0.54028855  0.48502077  1
  Li  Li73  1  0.30344539  0.82112958  0.41282172  1
  Li  Li74  1  0.69751269  0.39461956  0.43727458  1
  Li  Li75  1  0.80244566  0.89462018  0.43726947  1
  Li  Li76  1  0.19649924  0.32114287  0.41282200  1
  Li  Li77  1  0.19276341  0.04031472  0.48501106  1
  Li  Li78  1  0.81258167  0.92590583  0.48519519  1
  Li  Li79  1  0.80088151  0.21110718  0.41873839  1
  Li  Li80  1  0.20433040  0.00623450  0.43360703  1
  Li  Li81  1  0.29564266  0.50623763  0.43361023  1
  Li  Li82  1  0.69908211  0.71109361  0.41874389  1
  Li  Li83  1  0.68686506  0.42572974  0.48525251  1
  Li  Li84  1  0.30157033  0.03834034  0.59685216  1
  Li  Li85  1  0.31277487  0.75350722  0.52900402  1
  Li  Li86  1  0.69814182  0.17919046  0.55037896  1
  Li  Li87  1  0.80183796  0.67921494  0.55037303  1
  Li  Li88  1  0.18715928  0.25356823  0.52904065  1
  Li  Li89  1  0.19836366  0.53836455  0.59686575  1
  Li  Li90  1  0.19778819  0.39476929  0.56299826  1
  Li  Li91  1  0.80343001  0.82113054  0.58718002  1
  Li  Li92  1  0.80720874  0.54030907  0.51499672  1
  Li  Li93  1  0.69276336  0.04031820  0.51499110  1
  Li  Li94  1  0.69654287  0.32111290  0.58719626  1
  Li  Li95  1  0.30246072  0.89463379  0.56273436  1
  Li  Li96  1  0.70431606  0.00623472  0.56639415  1
  Li  Li97  1  0.30085856  0.21107898  0.58126423  1
  Li  Li98  1  0.31258785  0.92590982  0.51480786  1
  Li  Li99  1  0.18723352  0.42586431  0.51484662  1
  Li  Li100  1  0.19909946  0.71109998  0.58126359  1
  Li  Li101  1  0.79570033  0.50628669  0.56639751  1
  Li  Li102  1  0.30295303  0.61257769  0.73803031  1
  Li  Li103  1  0.30267538  0.32571626  0.66792611  1
  Li  Li104  1  0.69714956  0.75130757  0.69177311  1
  Li  Li105  1  0.69773395  0.46444008  0.62130941  1
  Li  Li106  1  0.80220098  0.96444599  0.62129989  1
  Li  Li107  1  0.80278808  0.25131493  0.69177660  1
  Li  Li108  1  0.19715285  0.82568750  0.66790948  1
  Li  Li109  1  0.19697012  0.11258541  0.73803616  1
  Li  Li110  1  0.19684995  0.96825437  0.70264152  1
  Li  Li111  1  0.19716718  0.68062703  0.63209154  1
  Li  Li112  1  0.80264765  0.39585284  0.72735474  1
  Li  Li113  1  0.80261947  0.10904508  0.65676250  1
  Li  Li114  1  0.69683438  0.60919798  0.65674830  1
  Li  Li115  1  0.69739942  0.89583180  0.72731128  1
  Li  Li116  1  0.30274038  0.18058657  0.63209519  1
  Li  Li117  1  0.30307189  0.46823809  0.70264250  1
  Li  Li118  1  0.70219437  0.57817089  0.70767336  1
  Li  Li119  1  0.70069414  0.29125328  0.63772858  1
  Li  Li120  1  0.29854424  0.78496660  0.72194381  1
  Li  Li121  1  0.29811267  0.49899326  0.65172432  1
  Li  Li122  1  0.20190879  0.99893506  0.65172749  1
  Li  Li123  1  0.20145042  0.28495935  0.72194585  1
  Li  Li124  1  0.79898711  0.79140238  0.63766520  1
  Li  Li125  1  0.79764116  0.07828112  0.70767281  1
  Li  Li126  1  0.30263912  0.18651266  0.87884554  1
  Li  Li127  1  0.30178923  0.89906990  0.80830562  1
  Li  Li128  1  0.69832586  0.32327036  0.83236338  1
  Li  Li129  1  0.69865218  0.03761270  0.76234663  1
  Li  Li130  1  0.80106072  0.53763144  0.76234616  1
  Li  Li131  1  0.80152463  0.82336870  0.83234052  1
  Li  Li132  1  0.19814849  0.39906746  0.80831409  1
  Li  Li133  1  0.19734102  0.68651369  0.87882237  1
  Li  Li134  1  0.19686872  0.54136884  0.84360253  1
  Li  Li135  1  0.19906463  0.25469273  0.77303471  1
  Li  Li136  1  0.80219845  0.96897732  0.86802131  1
  Li  Li137  1  0.80073449  0.68115716  0.79751681  1
  Li  Li138  1  0.69922097  0.18117061  0.79752179  1
  Li  Li139  1  0.69779848  0.46893722  0.86800879  1
  Li  Li140  1  0.30098570  0.75466719  0.77302489  1
  Li  Li141  1  0.30314818  0.04137828  0.84360942  1
  Li  Li142  1  0.70481880  0.15137392  0.84865885  1
  Li  Li143  1  0.70156252  0.86423283  0.77819967  1
  Li  Li144  1  0.29858468  0.35956793  0.86245170  1
  Li  Li145  1  0.29736472  0.07123786  0.79261237  1
  Li  Li146  1  0.20258183  0.57122820  0.79261184  1
  Li  Li147  1  0.20134792  0.85958993  0.86244630  1
  Li  Li148  1  0.79841421  0.36423806  0.77820564  1
  Li  Li149  1  0.79521861  0.65139368  0.84863279  1
  Li  Li150  1  0.30053822  0.47096425  0.94985327  1
  Li  Li151  1  0.68622805  0.89596742  0.97097455  1
  Li  Li152  1  0.69708984  0.61167439  0.90314932  1
  Li  Li153  1  0.80248243  0.11204426  0.90330993  1
  Li  Li154  1  0.81363617  0.39612320  0.97106755  1
  Li  Li155  1  0.19927180  0.97106606  0.94984943  1
  Li  Li156  1  0.19287732  0.10990561  0.98503903  1
  Li  Li157  1  0.19659851  0.82936312  0.91300289  1
  Li  Li158  1  0.80337448  0.25526223  0.93714139  1
  Li  Li159  1  0.69765895  0.75451757  0.93702356  1
  Li  Li160  1  0.30410377  0.32940782  0.91300144  1
  Li  Li161  1  0.30724589  0.60990714  0.98503138  1
  Li  Li162  1  0.68723283  0.72432004  0.98516719  1
  Li  Li163  1  0.69941144  0.43898860  0.91882775  1
  Li  Li164  1  0.29687552  0.64315870  0.93350244  1
  Li  Li165  1  0.20320478  0.14328110  0.93350626  1
  Li  Li166  1  0.80044136  0.93882680  0.91882720  1
  Li  Li167  1  0.81254325  0.22425211  0.98518016  1
  P  P168  1  0.69358922  0.50875557  0.10387750  1
  P  P169  1  0.69502854  0.79415144  0.03543422  1
  P  P170  1  0.30774583  0.57386849  0.04305756  1
  P  P171  1  0.30811998  0.28960755  0.11463325  1
  P  P172  1  0.19227918  0.78964979  0.11463130  1
  P  P173  1  0.19329039  0.07356940  0.04307866  1
  P  P174  1  0.80532788  0.29397011  0.03548415  1
  P  P175  1  0.80716005  0.00861252  0.10388929  1
  P  P176  1  0.69325232  0.93468195  0.24477936  1
  P  P177  1  0.69446693  0.22093608  0.17445534  1
  P  P178  1  0.30675300  0.00164083  0.18450426  1
  P  P179  1  0.30642096  0.71546886  0.25500503  1
  P  P180  1  0.19324481  0.21544525  0.25500195  1
  P  P181  1  0.19309227  0.50164345  0.18452025  1
  P  P182  1  0.80540664  0.72090280  0.17445813  1
  P  P183  1  0.80652008  0.43464621  0.24478991  1
  P  P184  1  0.69256746  0.36075774  0.38521284  1
  P  P185  1  0.69290359  0.64819706  0.31524889  1
  P  P186  1  0.30681467  0.42901870  0.32530280  1
  P  P187  1  0.30692182  0.14151433  0.39598503  1
  P  P188  1  0.19302077  0.64151047  0.39599188  1
  P  P189  1  0.19292568  0.92904455  0.32531729  1
  P  P190  1  0.80687053  0.14814616  0.31524749  1
  P  P191  1  0.80723980  0.86077339  0.38522066  1
  P  P192  1  0.69285292  0.07606290  0.45683081  1
  P  P193  1  0.30456555  0.85560726  0.46458581  1
  P  P194  1  0.19525817  0.35558554  0.46460247  1
  P  P195  1  0.80706814  0.57599593  0.45685031  1
  P  P196  1  0.80688198  0.14149663  0.60402501  1
  P  P197  1  0.80458735  0.85562028  0.53541546  1
  P  P198  1  0.19284429  0.07606964  0.54316902  1
  P  P199  1  0.19255790  0.36067451  0.61483911  1
  P  P200  1  0.30718220  0.86076609  0.61478188  1
  P  P201  1  0.30719887  0.57614088  0.54319073  1
  P  P202  1  0.69531926  0.35570755  0.53549343  1
  P  P203  1  0.69303248  0.64150322  0.60402391  1
  P  P204  1  0.80656793  0.71536775  0.74499028  1
  P  P205  1  0.80690467  0.42897200  0.67471066  1
  P  P206  1  0.19309750  0.64811856  0.68474973  1
  P  P207  1  0.19327304  0.93461680  0.75520858  1
  P  P208  1  0.30664872  0.43462484  0.75521672  1
  P  P209  1  0.30669437  0.14810794  0.68475423  1
  P  P210  1  0.69296548  0.92896925  0.67469644  1
  P  P211  1  0.69330319  0.21539601  0.74500631  1
  P  P212  1  0.80778623  0.28965949  0.88537896  1
  P  P213  1  0.80685088  0.00159950  0.81547089  1
  P  P214  1  0.19458074  0.22086268  0.82555973  1
  P  P215  1  0.19306191  0.50859526  0.89608542  1
  P  P216  1  0.30700991  0.00863853  0.89611402  1
  P  P217  1  0.30534323  0.72083995  0.82554071  1
  P  P218  1  0.69307551  0.50156967  0.81547196  1
  P  P219  1  0.69211452  0.78960787  0.88534220  1
  P  P220  1  0.80698729  0.57371387  0.95685659  1
  P  P221  1  0.19498339  0.79403920  0.96451861  1
  P  P222  1  0.30507593  0.29410700  0.96455868  1
  P  P223  1  0.69301571  0.07379168  0.95687464  1
  O  O224  1  0.79611832  0.59820096  0.09911541  1
  O  O225  1  0.80838999  0.88112575  0.03025385  1
  O  O226  1  0.20183115  0.48520557  0.04823086  1
  O  O227  1  0.29917461  0.98489569  0.04824552  1
  O  O228  1  0.69207200  0.38100337  0.03035726  1
  O  O229  1  0.70456168  0.09803205  0.09912214  1
  O  O230  1  0.70858432  0.26340902  0.06004898  1
  O  O231  1  0.29466027  0.81982572  0.09025970  1
  O  O232  1  0.29692752  0.10217077  0.01859499  1
  O  O233  1  0.20408598  0.60239806  0.01856671  1
  O  O234  1  0.20581308  0.31965694  0.09024782  1
  O  O235  1  0.79213392  0.76373368  0.06000415  1
  O  O236  1  0.20441972  0.63381751  0.06240842  1
  O  O237  1  0.79840206  0.44984131  0.08441619  1
  O  O238  1  0.79630414  0.73217230  0.01669429  1
  O  O239  1  0.70390638  0.23208565  0.01672088  1
  O  O240  1  0.70311901  0.94967752  0.08440560  1
  O  O241  1  0.29652329  0.13340143  0.06246219  1
  O  O242  1  0.37999419  0.50904871  0.10395965  1
  O  O243  1  0.38082342  0.79740108  0.03526862  1
  O  O244  1  0.62079375  0.57318705  0.04289384  1
  O  O245  1  0.62130691  0.28979987  0.11476842  1
  O  O246  1  0.87909237  0.78978406  0.11475250  1
  O  O247  1  0.88023391  0.07294533  0.04289786  1
  O  O248  1  0.11957569  0.29723098  0.03530493  1
  O  O249  1  0.12072617  0.00892270  0.10401272  1
  O  O250  1  0.79554707  0.02408300  0.23998752  1
  O  O251  1  0.79626472  0.31048978  0.16986662  1
  O  O252  1  0.20414395  0.91231033  0.18931033  1
  O  O253  1  0.20639442  0.19983635  0.11898297  1
  O  O254  1  0.29421850  0.69989934  0.11896225  1
  O  O255  1  0.29567520  0.41230778  0.18932181  1
  O  O256  1  0.70365430  0.81046213  0.16986885  1
  O  O257  1  0.70402170  0.52405266  0.24002726  1
  O  O258  1  0.70284416  0.69122764  0.19890142  1
  O  O259  1  0.70372176  0.97913910  0.12831570  1
  O  O260  1  0.29610434  0.24465338  0.23052040  1
  O  O261  1  0.29613938  0.53115302  0.16008089  1
  O  O262  1  0.20377155  0.03115307  0.16006509  1
  O  O263  1  0.20351848  0.74463504  0.23052036  1
  O  O264  1  0.79640368  0.47925957  0.12832475  1
  O  O265  1  0.79693971  0.19126662  0.19890362  1
  O  O266  1  0.20253917  0.06072125  0.20396227  1
  O  O267  1  0.20171142  0.34818198  0.13410805  1
  O  O268  1  0.79820390  0.87550580  0.22535715  1
  O  O269  1  0.79971010  0.16220568  0.15493128  1
  O  O270  1  0.70023686  0.66218272  0.15493031  1
  O  O271  1  0.70153172  0.37549969  0.22536219  1
  O  O272  1  0.29846166  0.84817978  0.13412518  1
  O  O273  1  0.29738141  0.56069922  0.20398343  1
  O  O274  1  0.37975738  0.93461534  0.24474647  1
  O  O275  1  0.38093684  0.22075662  0.17450984  1
  O  O276  1  0.62030933  0.00155621  0.18434714  1
  O  O277  1  0.61996676  0.71549146  0.25495850  1
  O  O278  1  0.87968270  0.21544606  0.25495544  1
  O  O279  1  0.87955024  0.50160415  0.18437496  1
  O  O280  1  0.11894498  0.72071505  0.17450854  1
  O  O281  1  0.12001043  0.43463540  0.24474618  1
  O  O282  1  0.79527225  0.45042630  0.38082649  1
  O  O283  1  0.79598346  0.73750083  0.31047787  1
  O  O284  1  0.20397367  0.33957423  0.32992565  1
  O  O285  1  0.20412237  0.62601332  0.25975438  1
  O  O286  1  0.29556327  0.12598319  0.25974587  1
  O  O287  1  0.29555004  0.83958836  0.32995289  1
  O  O288  1  0.70377885  0.23744182  0.31046777  1
  O  O289  1  0.70452976  0.95044561  0.38083589  1
  O  O290  1  0.70417394  0.11877749  0.33971611  1
  O  O291  1  0.70442100  0.40528291  0.26926956  1
  O  O292  1  0.29563043  0.67086036  0.37151979  1
  O  O293  1  0.29537865  0.95856793  0.30085206  1
  O  O294  1  0.20439027  0.45857690  0.30084053  1
  O  O295  1  0.20423784  0.17085417  0.37151336  1
  O  O296  1  0.79540594  0.90535618  0.26926285  1
  O  O297  1  0.79562172  0.61879404  0.33971334  1
  O  O298  1  0.20205320  0.48801360  0.34477572  1
  O  O299  1  0.20171914  0.77463199  0.27443569  1
  O  O300  1  0.79829741  0.30191218  0.36575131  1
  O  O301  1  0.79721480  0.58905916  0.29580805  1
  O  O302  1  0.70249122  0.08901306  0.29580571  1
  O  O303  1  0.70145619  0.80194657  0.36575873  1
  O  O304  1  0.29789077  0.27460535  0.27443418  1
  O  O305  1  0.29771440  0.98804466  0.34478748  1
  O  O306  1  0.37925783  0.36091754  0.38509179  1
  O  O307  1  0.37942707  0.64847618  0.31533907  1
  O  O308  1  0.62029625  0.42889452  0.32526929  1
  O  O309  1  0.62058333  0.14110835  0.39591488  1
  O  O310  1  0.87936581  0.64111041  0.39592234  1
  O  O311  1  0.87942253  0.92894817  0.32527889  1
  O  O312  1  0.12033811  0.14843302  0.31533279  1
  O  O313  1  0.12052981  0.86092349  0.38509991  1
  O  O314  1  0.79903403  0.16467851  0.45159848  1
  O  O315  1  0.19091895  0.76865708  0.46976818  1
  O  O316  1  0.20386918  0.05220711  0.40083971  1
  O  O317  1  0.29611868  0.55220321  0.40083919  1
  O  O318  1  0.30899024  0.26863607  0.46977315  1
  O  O319  1  0.70078985  0.66461317  0.45163202  1
  O  O320  1  0.70386531  0.54767089  0.48137713  1
  O  O321  1  0.70529907  0.83061183  0.40961776  1
  O  O322  1  0.29166539  0.38586675  0.43999819  1
  O  O323  1  0.20814607  0.88586679  0.43997920  1
  O  O324  1  0.79448393  0.33063635  0.40961506  1
  O  O325  1  0.79603966  0.04780120  0.48136432  1
  O  O326  1  0.20321079  0.91790185  0.48323909  1
  O  O327  1  0.20265180  0.20068085  0.41540968  1
  O  O328  1  0.79604947  0.01588850  0.43753113  1
  O  O329  1  0.70389387  0.51586617  0.43753824  1
  O  O330  1  0.29727927  0.70065647  0.41542139  1
  O  O331  1  0.29649908  0.41784091  0.48327147  1
  O  O332  1  0.37977365  0.07692267  0.45695296  1
  O  O333  1  0.61885483  0.85234340  0.46481857  1
  O  O334  1  0.88097904  0.35231954  0.46483134  1
  O  O335  1  0.12015637  0.57686477  0.45697053  1
  O  O336  1  0.70381397  0.05219478  0.59916468  1
  O  O337  1  0.69100816  0.76866753  0.53022684  1
  O  O338  1  0.29903804  0.16468407  0.54840015  1
  O  O339  1  0.20097247  0.66476998  0.54839731  1
  O  O340  1  0.80883369  0.26873727  0.53031452  1
  O  O341  1  0.79603448  0.55218595  0.59917643  1
  O  O342  1  0.79213324  0.38598644  0.56008786  1
  O  O343  1  0.20526797  0.83059754  0.59038607  1
  O  O344  1  0.20396531  0.54779480  0.51866635  1
  O  O345  1  0.29603230  0.04779885  0.51863679  1
  O  O346  1  0.29459125  0.33043250  0.59045472  1
  O  O347  1  0.70809990  0.88585181  0.56002377  1
  O  O348  1  0.29603199  0.01589449  0.56247024  1
  O  O349  1  0.70265069  0.20065453  0.58460094  1
  O  O350  1  0.70319993  0.91792353  0.51676564  1
  O  O351  1  0.79657856  0.41791365  0.51680876  1
  O  O352  1  0.79724509  0.70065082  0.58459502  1
  O  O353  1  0.20401279  0.51606992  0.56251835  1
  O  O354  1  0.12053989  0.14110130  0.60410118  1
  O  O355  1  0.11887484  0.85237176  0.53519126  1
  O  O356  1  0.87976164  0.07693037  0.54304951  1
  O  O357  1  0.87928743  0.36086099  0.61495060  1
  O  O358  1  0.62046241  0.86091151  0.61490590  1
  O  O359  1  0.62027344  0.57697579  0.54306692  1
  O  O360  1  0.38100940  0.35249166  0.53531161  1
  O  O361  1  0.37937812  0.64111341  0.60410438  1
  O  O362  1  0.70433999  0.62591475  0.74022703  1
  O  O363  1  0.70408770  0.33952036  0.67009131  1
  O  O364  1  0.29612139  0.73741261  0.68954387  1
  O  O365  1  0.29526834  0.45037143  0.61918742  1
  O  O366  1  0.20448474  0.95043902  0.61916243  1
  O  O367  1  0.20368862  0.23740753  0.68954050  1
  O  O368  1  0.79580105  0.83952787  0.67007321  1
  O  O369  1  0.79546735  0.12593874  0.74024642  1
  O  O370  1  0.79532692  0.95853884  0.69915967  1
  O  O371  1  0.79577736  0.67084486  0.62849291  1
  O  O372  1  0.20457286  0.40525225  0.73073800  1
  O  O373  1  0.20397240  0.11871361  0.66028951  1
  O  O374  1  0.29586015  0.61878325  0.66027865  1
  O  O375  1  0.29543983  0.90529185  0.73072659  1
  O  O376  1  0.70412601  0.17081612  0.62849759  1
  O  O377  1  0.70469544  0.45847573  0.69918656  1
  O  O378  1  0.29747239  0.58895166  0.70418177  1
  O  O379  1  0.29826591  0.30186007  0.63430159  1
  O  O380  1  0.70197049  0.77457853  0.72556765  1
  O  O381  1  0.70192640  0.48797698  0.65524859  1
  O  O382  1  0.79774141  0.98795459  0.65522222  1
  O  O383  1  0.79788490  0.27458220  0.72557920  1
  O  O384  1  0.20140607  0.80195004  0.63424823  1
  O  O385  1  0.20239415  0.08897664  0.70419827  1
  O  O386  1  0.12011421  0.71539230  0.74504984  1
  O  O387  1  0.12040663  0.42887012  0.67472807  1
  O  O388  1  0.87963789  0.64838321  0.68466126  1
  O  O389  1  0.87979226  0.93456769  0.75524788  1
  O  O390  1  0.62012594  0.43457906  0.75526172  1
  O  O391  1  0.62016638  0.14838858  0.68466613  1
  O  O392  1  0.37945845  0.92885253  0.67472980  1
  O  O393  1  0.37973777  0.21541252  0.74506777  1
  O  O394  1  0.70572842  0.19991039  0.88106653  1
  O  O395  1  0.70431360  0.91226035  0.81066294  1
  O  O396  1  0.29617565  0.31043480  0.83015457  1
  O  O397  1  0.29563743  0.02402512  0.75998775  1
  O  O398  1  0.20425282  0.52403446  0.75997761  1
  O  O399  1  0.20367269  0.81040665  0.83013151  1
  O  O400  1  0.79551580  0.41220938  0.81067886  1
  O  O401  1  0.79387084  0.69982777  0.88101010  1
  O  O402  1  0.79610511  0.53110861  0.83991059  1
  O  O403  1  0.79636282  0.24455722  0.76948603  1
  O  O404  1  0.20381220  0.97913282  0.87168150  1
  O  O405  1  0.20277247  0.69119050  0.80109475  1
  O  O406  1  0.29708925  0.19123459  0.80110957  1
  O  O407  1  0.29626693  0.47908626  0.87165618  1
  O  O408  1  0.70344224  0.74449402  0.76947161  1
  O  O409  1  0.70386769  0.03111011  0.83991247  1
  O  O410  1  0.29982642  0.16214235  0.84508646  1
  O  O411  1  0.29830079  0.87544392  0.77462741  1
  O  O412  1  0.70160249  0.34815096  0.86587655  1
  O  O413  1  0.70250566  0.06066667  0.79601136  1
  O  O414  1  0.79742103  0.56061913  0.79600783  1
  O  O415  1  0.79827080  0.84813365  0.86584613  1
  O  O416  1  0.20157900  0.37548816  0.77464261  1
  O  O417  1  0.20012230  0.66212418  0.84506833  1
  O  O418  1  0.12095527  0.28977203  0.88525705  1
  O  O419  1  0.12040268  0.00158894  0.81562353  1
  O  O420  1  0.88105435  0.22061001  0.82551918  1
  O  O421  1  0.87951735  0.50888928  0.89597578  1
  O  O422  1  0.62057349  0.00900848  0.89600916  1
  O  O423  1  0.61889496  0.72062404  0.82549261  1
  O  O424  1  0.37951737  0.50157603  0.81561975  1
  O  O425  1  0.37891831  0.78977076  0.88523059  1
  O  O426  1  0.70089723  0.48501413  0.95175561  1
  O  O427  1  0.30816192  0.88105603  0.96969277  1
  O  O428  1  0.29568651  0.59802556  0.90083173  1
  O  O429  1  0.20419076  0.09804351  0.90087467  1
  O  O430  1  0.19163561  0.38108334  0.96973208  1
  O  O431  1  0.79889353  0.98510678  0.95172292  1
  O  O432  1  0.79665776  0.10236924  0.98135765  1
  O  O433  1  0.79465318  0.81974278  0.90971221  1
  O  O434  1  0.20810403  0.26371790  0.93998186  1
  O  O435  1  0.29230278  0.76358963  0.93995879  1
  O  O436  1  0.70540711  0.31988994  0.90974566  1
  O  O437  1  0.70357078  0.60248889  0.98132770  1
  O  O438  1  0.29609261  0.73210821  0.98327665  1
  O  O439  1  0.29733684  0.44971092  0.91557134  1
  O  O440  1  0.70372914  0.63345487  0.93745162  1
  O  O441  1  0.79624703  0.13375771  0.93752659  1
  O  O442  1  0.20289079  0.94966601  0.91558715  1
  O  O443  1  0.20387932  0.23209645  0.98328896  1
  O  O444  1  0.12003683  0.57306067  0.95699761  1
  O  O445  1  0.88073248  0.79724874  0.96465536  1
  O  O446  1  0.61929035  0.29739155  0.96472909  1
  O  O447  1  0.37997052  0.07315569  0.95701847  1
