# generated using pymatgen
data_Li3PO4
_symmetry_space_group_name_H-M   'P 1'
_cell_length_a   4.97784600
_cell_length_b   16.20967300
_cell_length_c   57.00806231
_cell_angle_alpha   90.00000000
_cell_angle_beta   90.00000000
_cell_angle_gamma   90.00000000
_symmetry_Int_Tables_number   1
_chemical_formula_structural   Li3PO4
_chemical_formula_sum   'Li168 P56 O224'
_cell_volume   4599.93812811
_cell_formula_units_Z   56
loop_
 _symmetry_equiv_pos_site_id
 _symmetry_equiv_pos_as_xyz
  1  'x, y, z'
loop_
 _atom_site_type_symbol
 _atom_site_label
 _atom_site_symmetry_multiplicity
 _atom_site_fract_x
 _atom_site_fract_y
 _atom_site_fract_z
 _atom_site_occupancy
  Li  Li0  1  0.19696778  0.55448340  0.09659851  1
  Li  Li1  1  0.18602002  0.83884769  0.02887572  1
  Li  Li2  1  0.80240297  0.41292723  0.05034996  1
  Li  Li3  1  0.80343983  0.12984463  0.12112928  1
  Li  Li4  1  0.69655060  0.62984590  0.12112869  1
  Li  Li5  1  0.69761238  0.91291644  0.05035077  1
  Li  Li6  1  0.31398380  0.33884905  0.02887679  1
  Li  Li7  1  0.30302581  0.05448308  0.09660011  1
  Li  Li8  1  0.30354646  0.19821150  0.06289901  1
  Li  Li9  1  0.30284438  0.91262585  0.13191415  1
  Li  Li10  1  0.69583087  0.77215588  0.08707918  1
  Li  Li11  1  0.69052671  0.05172572  0.01494646  1
  Li  Li12  1  0.80973048  0.55173996  0.01492487  1
  Li  Li13  1  0.80416161  0.27215422  0.08707918  1
  Li  Li14  1  0.19715145  0.41262485  0.13191408  1
  Li  Li15  1  0.19645378  0.69821094  0.06289754  1
  Li  Li16  1  0.79489558  0.58608103  0.06631488  1
  Li  Li17  1  0.20072453  0.38191248  0.08120488  1
  Li  Li18  1  0.18900261  0.66609413  0.01466078  1
  Li  Li19  1  0.31103580  0.16610072  0.01466556  1
  Li  Li20  1  0.29927738  0.88190973  0.08120582  1
  Li  Li21  1  0.70492101  0.08604357  0.06630853  1
  Li  Li22  1  0.19699729  0.97942502  0.23787496  1
  Li  Li23  1  0.19947837  0.26674041  0.16760778  1
  Li  Li24  1  0.80199131  0.84178357  0.19149201  1
  Li  Li25  1  0.80277353  0.55387372  0.26210356  1
  Li  Li26  1  0.69719605  0.05387038  0.26210412  1
  Li  Li27  1  0.69800431  0.34178434  0.19149217  1
  Li  Li28  1  0.30050768  0.76674138  0.16760709  1
  Li  Li29  1  0.30289742  0.47944499  0.23786418  1
  Li  Li30  1  0.30194095  0.62429065  0.20244147  1
  Li  Li31  1  0.30256132  0.33629001  0.27279115  1
  Li  Li32  1  0.69898702  0.19706962  0.22717020  1
  Li  Li33  1  0.69698885  0.48449585  0.15639236  1
  Li  Li34  1  0.80302394  0.98449158  0.15639363  1
  Li  Li35  1  0.80098824  0.69707209  0.22717022  1
  Li  Li36  1  0.19740476  0.83629268  0.27279062  1
  Li  Li37  1  0.19803991  0.12428565  0.20244361  1
  Li  Li38  1  0.79602298  0.01371550  0.20764711  1
  Li  Li39  1  0.79788882  0.30298906  0.13763057  1
  Li  Li40  1  0.20121345  0.80685279  0.22185452  1
  Li  Li41  1  0.20612849  0.09437956  0.15120664  1
  Li  Li42  1  0.29386201  0.59438050  0.15120532  1
  Li  Li43  1  0.29876290  0.30685397  0.22185549  1
  Li  Li44  1  0.70208686  0.80299807  0.13762954  1
  Li  Li45  1  0.70396058  0.51371630  0.20764677  1
  Li  Li46  1  0.19752598  0.40197410  0.37885785  1
  Li  Li47  1  0.19713998  0.69132124  0.30847357  1
  Li  Li48  1  0.80186355  0.26603331  0.33233332  1
  Li  Li49  1  0.80257787  0.97610291  0.40340856  1
  Li  Li50  1  0.69732944  0.47611175  0.40340510  1
  Li  Li51  1  0.69812664  0.76603304  0.33233290  1
  Li  Li52  1  0.30285048  0.19131619  0.30847444  1
  Li  Li53  1  0.30237128  0.90195531  0.37885841  1
  Li  Li54  1  0.30277543  0.04785849  0.34353344  1
  Li  Li55  1  0.30387144  0.75759612  0.41294158  1
  Li  Li56  1  0.69809587  0.61968445  0.36806168  1
  Li  Li57  1  0.69773288  0.90883517  0.29757204  1
  Li  Li58  1  0.80226473  0.40883768  0.29757205  1
  Li  Li59  1  0.80190272  0.11968018  0.36806309  1
  Li  Li60  1  0.19607858  0.25759495  0.41294162  1
  Li  Li61  1  0.19744578  0.54787600  0.34352734  1
  Li  Li62  1  0.79572845  0.43787139  0.34896507  1
  Li  Li63  1  0.79822500  0.72634555  0.27814136  1
  Li  Li64  1  0.20114865  0.22910594  0.36242151  1
  Li  Li65  1  0.20378834  0.51928431  0.29226825  1
  Li  Li66  1  0.29622864  0.01927570  0.29227140  1
  Li  Li67  1  0.29883419  0.72910825  0.36242158  1
  Li  Li68  1  0.70175062  0.22633932  0.27814074  1
  Li  Li69  1  0.70428605  0.93786823  0.34896518  1
  Li  Li70  1  0.20015233  0.11517711  0.44992542  1
  Li  Li71  1  0.81130319  0.68982590  0.47109360  1
  Li  Li72  1  0.68769010  0.18991048  0.47107144  1
  Li  Li73  1  0.29970654  0.61518720  0.44992563  1
  Li  Li74  1  0.30613137  0.47538652  0.48510310  1
  Li  Li75  1  0.69652764  0.33148823  0.43699277  1
  Li  Li76  1  0.80338949  0.83147983  0.43699412  1
  Li  Li77  1  0.19381992  0.97538483  0.48510357  1
  Li  Li78  1  0.81318663  0.86108190  0.48511362  1
  Li  Li79  1  0.79882109  0.14818624  0.41917393  1
  Li  Li80  1  0.20482386  0.94279196  0.43357140  1
  Li  Li81  1  0.29512891  0.44280258  0.43357072  1
  Li  Li82  1  0.70112695  0.64818725  0.41916967  1
  Li  Li83  1  0.68669449  0.36109367  0.48511740  1
  Li  Li84  1  0.30031108  0.97078436  0.59684664  1
  Li  Li85  1  0.31282050  0.68681277  0.52900079  1
  Li  Li86  1  0.69813259  0.11250207  0.55035291  1
  Li  Li87  1  0.69834797  0.39647252  0.62124886  1
  Li  Li88  1  0.80219711  0.89640505  0.62121817  1
  Li  Li89  1  0.80188871  0.61250711  0.55035220  1
  Li  Li90  1  0.18715405  0.18681268  0.52900642  1
  Li  Li91  1  0.19980877  0.47078689  0.59684807  1
  Li  Li92  1  0.19757761  0.32770467  0.56269885  1
  Li  Li93  1  0.19861910  0.61306440  0.63203979  1
  Li  Li94  1  0.80364115  0.75390188  0.58703036  1
  Li  Li95  1  0.80755517  0.47392366  0.51501019  1
  Li  Li96  1  0.69243474  0.97391992  0.51500988  1
  Li  Li97  1  0.69641847  0.25390709  0.58703334  1
  Li  Li98  1  0.30118780  0.11299352  0.63206528  1
  Li  Li99  1  0.30241776  0.82769649  0.56269628  1
  Li  Li100  1  0.70390111  0.93915689  0.56629530  1
  Li  Li101  1  0.30150388  0.14377457  0.58127272  1
  Li  Li102  1  0.31255779  0.85959346  0.51478721  1
  Li  Li103  1  0.18735499  0.35957542  0.51478846  1
  Li  Li104  1  0.19854801  0.64378057  0.58126885  1
  Li  Li105  1  0.79617725  0.43919905  0.56630055  1
  Li  Li106  1  0.30270575  0.54437101  0.73785623  1
  Li  Li107  1  0.30189630  0.25752648  0.66782164  1
  Li  Li108  1  0.69817974  0.68304190  0.69172055  1
  Li  Li109  1  0.69845861  0.97059893  0.76227757  1
  Li  Li110  1  0.80152478  0.47059072  0.76227707  1
  Li  Li111  1  0.80195530  0.18329026  0.69170026  1
  Li  Li112  1  0.19812295  0.75752233  0.66782570  1
  Li  Li113  1  0.19714258  0.04473035  0.73783952  1
  Li  Li114  1  0.19703369  0.90016752  0.70241030  1
  Li  Li115  1  0.19848481  0.18740645  0.77281656  1
  Li  Li116  1  0.80228833  0.32792654  0.72709939  1
  Li  Li117  1  0.80084882  0.04022505  0.65648632  1
  Li  Li118  1  0.69913127  0.54024147  0.65648465  1
  Li  Li119  1  0.69772736  0.82791293  0.72709611  1
  Li  Li120  1  0.30148790  0.68739398  0.77281111  1
  Li  Li121  1  0.30299520  0.40015589  0.70241011  1
  Li  Li122  1  0.70196277  0.51091209  0.70756089  1
  Li  Li123  1  0.69865221  0.22297163  0.63752985  1
  Li  Li124  1  0.29870425  0.71775420  0.72190678  1
  Li  Li125  1  0.29604188  0.43068658  0.65155756  1
  Li  Li126  1  0.20417456  0.93069794  0.65154366  1
  Li  Li127  1  0.20128861  0.21778982  0.72190340  1
  Li  Li128  1  0.80136375  0.72297582  0.63753341  1
  Li  Li129  1  0.79801610  0.01092996  0.70755970  1
  Li  Li130  1  0.30270882  0.12252730  0.87886354  1
  Li  Li131  1  0.30039033  0.83333523  0.80822165  1
  Li  Li132  1  0.69704283  0.25882298  0.83212643  1
  Li  Li133  1  0.69937555  0.54897870  0.90318455  1
  Li  Li134  1  0.80076686  0.04901001  0.90318203  1
  Li  Li135  1  0.80296112  0.75882768  0.83213163  1
  Li  Li136  1  0.19960289  0.33333689  0.80822251  1
  Li  Li137  1  0.19736016  0.62255072  0.87886977  1
  Li  Li138  1  0.19756715  0.47641856  0.84339915  1
  Li  Li139  1  0.19608654  0.76680413  0.91274084  1
  Li  Li140  1  0.80136707  0.90519855  0.86821632  1
  Li  Li141  1  0.80256571  0.61538718  0.79752940  1
  Li  Li142  1  0.69742289  0.11538211  0.79752927  1
  Li  Li143  1  0.69989648  0.40519310  0.86815143  1
  Li  Li144  1  0.30404805  0.26649890  0.91272832  1
  Li  Li145  1  0.30248841  0.97640014  0.84340749  1
  Li  Li146  1  0.70338510  0.08703798  0.84862687  1
  Li  Li147  1  0.70134315  0.79758241  0.77823689  1
  Li  Li148  1  0.29924300  0.29565123  0.86233352  1
  Li  Li149  1  0.29518763  0.00593295  0.79239513  1
  Li  Li150  1  0.20479498  0.50594341  0.79239484  1
  Li  Li151  1  0.20087499  0.79565492  0.86233593  1
  Li  Li152  1  0.79866064  0.29758970  0.77823892  1
  Li  Li153  1  0.79661033  0.58705884  0.84863195  1
  Li  Li154  1  0.30248132  0.40993456  0.94967448  1
  Li  Li155  1  0.68715678  0.83545529  0.97103192  1
  Li  Li156  1  0.81276533  0.33556900  0.97100685  1
  Li  Li157  1  0.19708965  0.91035355  0.94985644  1
  Li  Li158  1  0.19055658  0.05043016  0.98503460  1
  Li  Li159  1  0.80306477  0.19360605  0.93699875  1
  Li  Li160  1  0.69696422  0.69362108  0.93699533  1
  Li  Li161  1  0.30948278  0.55035995  0.98501500  1
  Li  Li162  1  0.68788512  0.66471314  0.98515422  1
  Li  Li163  1  0.70136390  0.37624893  0.91915784  1
  Li  Li164  1  0.29624200  0.58196364  0.93352680  1
  Li  Li165  1  0.20381332  0.08196551  0.93353328  1
  Li  Li166  1  0.79864731  0.87640190  0.91924442  1
  Li  Li167  1  0.81214018  0.16474709  0.98515952  1
  P  P168  1  0.69294498  0.45175681  0.10389522  1
  P  P169  1  0.69473487  0.73646888  0.03534752  1
  P  P170  1  0.30758496  0.51610214  0.04311259  1
  P  P171  1  0.30798815  0.23286797  0.11459738  1
  P  P172  1  0.19199804  0.73287122  0.11459727  1
  P  P173  1  0.19248647  0.01609283  0.04311719  1
  P  P174  1  0.80526601  0.23646837  0.03535293  1
  P  P175  1  0.80705513  0.95175575  0.10389488  1
  P  P176  1  0.69268251  0.87626433  0.24487120  1
  P  P177  1  0.69473486  0.16376208  0.17444374  1
  P  P178  1  0.30659053  0.94464221  0.18454450  1
  P  P179  1  0.30635245  0.65698353  0.25511124  1
  P  P180  1  0.19356096  0.15696939  0.25511111  1
  P  P181  1  0.19338331  0.44465090  0.18454293  1
  P  P182  1  0.80521826  0.66376688  0.17444110  1
  P  P183  1  0.80723681  0.37626465  0.24487313  1
  P  P184  1  0.69212068  0.29819119  0.38538824  1
  P  P185  1  0.69321618  0.58810890  0.31540115  1
  P  P186  1  0.30602958  0.36897468  0.32555710  1
  P  P187  1  0.30651373  0.07906624  0.39620954  1
  P  P188  1  0.19341682  0.57907973  0.39620841  1
  P  P189  1  0.19394318  0.86896894  0.32555663  1
  P  P190  1  0.80684102  0.08810381  0.31540371  1
  P  P191  1  0.80781313  0.79819574  0.38538679  1
  P  P192  1  0.69343284  0.01199826  0.45704391  1
  P  P193  1  0.30451518  0.79192769  0.46448715  1
  P  P194  1  0.19507267  0.29196007  0.46448507  1
  P  P195  1  0.80645139  0.51198129  0.45703886  1
  P  P196  1  0.80629941  0.07384642  0.60394455  1
  P  P197  1  0.80464024  0.78891318  0.53529012  1
  P  P198  1  0.19262545  0.00945507  0.54320202  1
  P  P199  1  0.19237684  0.29291852  0.61466264  1
  P  P200  1  0.30780473  0.79291782  0.61465947  1
  P  P201  1  0.30737934  0.50946104  0.54320138  1
  P  P202  1  0.69531273  0.28892688  0.53529725  1
  P  P203  1  0.69383163  0.57386677  0.60394699  1
  P  P204  1  0.80677781  0.64805370  0.74490187  1
  P  P205  1  0.80637534  0.36086932  0.67454646  1
  P  P206  1  0.19377953  0.58003184  0.68464368  1
  P  P207  1  0.19289483  0.86734122  0.75514073  1
  P  P208  1  0.30710915  0.36730791  0.75514587  1
  P  P209  1  0.30622498  0.08008066  0.68464702  1
  P  P210  1  0.69366544  0.86084247  0.67454098  1
  P  P211  1  0.69322132  0.14813738  0.74490587  1
  P  P212  1  0.80762864  0.22643228  0.88521198  1
  P  P213  1  0.80553174  0.93655139  0.81542432  1
  P  P214  1  0.19335358  0.15585434  0.82550245  1
  P  P215  1  0.19433890  0.44544132  0.89614274  1
  P  P216  1  0.30593321  0.94551047  0.89619270  1
  P  P217  1  0.30662828  0.65586281  0.82550655  1
  P  P218  1  0.69441328  0.43657522  0.81540967  1
  P  P219  1  0.69253963  0.72651210  0.88523098  1
  P  P220  1  0.80831648  0.51337547  0.95691382  1
  P  P221  1  0.19580375  0.73360053  0.96436428  1
  P  P222  1  0.30419579  0.23359623  0.96436272  1
  P  P223  1  0.69180054  0.01344206  0.95697065  1
  O  O224  1  0.79574587  0.54110420  0.09906990  1
  O  O225  1  0.80832158  0.82341772  0.03014557  1
  O  O226  1  0.20111705  0.42751462  0.04836687  1
  O  O227  1  0.20599591  0.14306148  0.11884954  1
  O  O228  1  0.29399089  0.64306417  0.11884873  1
  O  O229  1  0.29894834  0.92750555  0.04837103  1
  O  O230  1  0.69168553  0.32341848  0.03015114  1
  O  O231  1  0.70425014  0.04110301  0.09906925  1
  O  O232  1  0.70931686  0.20642875  0.06000430  1
  O  O233  1  0.70412246  0.92246535  0.12835905  1
  O  O234  1  0.29371857  0.76305663  0.09019909  1
  O  O235  1  0.29551502  0.04412480  0.01857335  1
  O  O236  1  0.20459076  0.54411845  0.01856537  1
  O  O237  1  0.20625764  0.26305398  0.09019999  1
  O  O238  1  0.79587626  0.42246502  0.12835969  1
  O  O239  1  0.79066628  0.70644681  0.06000078  1
  O  O240  1  0.20406967  0.57643326  0.06237030  1
  O  O241  1  0.20133846  0.29146792  0.13406149  1
  O  O242  1  0.79713493  0.39249279  0.08449744  1
  O  O243  1  0.79678742  0.67411232  0.01671449  1
  O  O244  1  0.70323560  0.17411862  0.01671865  1
  O  O245  1  0.70287746  0.89249128  0.08449793  1
  O  O246  1  0.29862826  0.79146903  0.13406247  1
  O  O247  1  0.29599154  0.07642098  0.06237530  1
  O  O248  1  0.37931809  0.45210666  0.10399125  1
  O  O249  1  0.38042084  0.73977157  0.03509521  1
  O  O250  1  0.62063242  0.51523393  0.04298894  1
  O  O251  1  0.62117225  0.23303675  0.11480037  1
  O  O252  1  0.87881054  0.73304107  0.11479999  1
  O  O253  1  0.87944447  0.01520718  0.04299284  1
  O  O254  1  0.11957988  0.23976950  0.03510132  1
  O  O255  1  0.12068397  0.95210428  0.10399152  1
  O  O256  1  0.79535191  0.96570536  0.24017816  1
  O  O257  1  0.79696567  0.25331442  0.16986648  1
  O  O258  1  0.20363756  0.85529053  0.18930315  1
  O  O259  1  0.20396752  0.56750508  0.25979295  1
  O  O260  1  0.29599927  0.06749143  0.25979371  1
  O  O261  1  0.29637189  0.35529780  0.18930176  1
  O  O262  1  0.70299628  0.75332052  0.16986353  1
  O  O263  1  0.70452161  0.46570145  0.24017933  1
  O  O264  1  0.70344035  0.63397512  0.19890300  1
  O  O265  1  0.70434790  0.34642347  0.26929049  1
  O  O266  1  0.29661143  0.18672874  0.23068641  1
  O  O267  1  0.29592020  0.47436227  0.16009558  1
  O  O268  1  0.20408323  0.97436006  0.16009653  1
  O  O269  1  0.20335709  0.68673172  0.23068318  1
  O  O270  1  0.79557179  0.84643361  0.26928973  1
  O  O271  1  0.79651667  0.13397461  0.19890636  1
  O  O272  1  0.20241070  0.00348587  0.20407079  1
  O  O273  1  0.20179540  0.71570965  0.27465229  1
  O  O274  1  0.79708328  0.81756121  0.22531638  1
  O  O275  1  0.80003419  0.10523733  0.15487366  1
  O  O276  1  0.69995074  0.60523920  0.15487152  1
  O  O277  1  0.70287868  0.31755550  0.22531695  1
  O  O278  1  0.29803565  0.21569851  0.27465548  1
  O  O279  1  0.29756682  0.50349474  0.20406915  1
  O  O280  1  0.37911460  0.87642786  0.24493093  1
  O  O281  1  0.38111141  0.16374388  0.17446442  1
  O  O282  1  0.62013142  0.94446688  0.18439702  1
  O  O283  1  0.61989289  0.65686606  0.25505581  1
  O  O284  1  0.88001467  0.15684168  0.25505315  1
  O  O285  1  0.87986990  0.44446871  0.18439712  1
  O  O286  1  0.11882834  0.66374397  0.17446143  1
  O  O287  1  0.12080392  0.37644278  0.24493407  1
  O  O288  1  0.79484518  0.38796666  0.38122604  1
  O  O289  1  0.79617488  0.67746979  0.31065208  1
  O  O290  1  0.20371722  0.27942187  0.33013587  1
  O  O291  1  0.20359714  0.98966512  0.40093509  1
  O  O292  1  0.29633714  0.48968157  0.40093586  1
  O  O293  1  0.29627285  0.77941881  0.33013469  1
  O  O294  1  0.70383559  0.17746030  0.31065119  1
  O  O295  1  0.70508654  0.88797305  0.38122438  1
  O  O296  1  0.70407436  0.05814492  0.33982202  1
  O  O297  1  0.70589143  0.76718250  0.40968427  1
  O  O298  1  0.29663258  0.60913617  0.37182470  1
  O  O299  1  0.29580207  0.89888902  0.30110665  1
  O  O300  1  0.20417563  0.39889092  0.30110740  1
  O  O301  1  0.20334870  0.10912914  0.37182457  1
  O  O302  1  0.79396492  0.26717061  0.40968782  1
  O  O303  1  0.79595339  0.55815309  0.33982000  1
  O  O304  1  0.20042875  0.42741176  0.34514805  1
  O  O305  1  0.20266997  0.13763309  0.41579179  1
  O  O306  1  0.79814130  0.24015185  0.36576593  1
  O  O307  1  0.79708223  0.52936118  0.29583067  1
  O  O308  1  0.70294212  0.02935973  0.29583348  1
  O  O309  1  0.70178765  0.74015876  0.36576383  1
  O  O310  1  0.29718698  0.63765005  0.41579206  1
  O  O311  1  0.29955718  0.92740562  0.34514716  1
  O  O312  1  0.37890872  0.29836579  0.38526135  1
  O  O313  1  0.37958814  0.58841017  0.31555662  1
  O  O314  1  0.61959699  0.36903111  0.32556094  1
  O  O315  1  0.62019757  0.07873794  0.39606135  1
  O  O316  1  0.87972982  0.57874378  0.39605714  1
  O  O317  1  0.88038635  0.86902209  0.32555971  1
  O  O318  1  0.12046293  0.08839705  0.31556065  1
  O  O319  1  0.12102295  0.79836043  0.38526075  1
  O  O320  1  0.79971801  0.10070679  0.45199660  1
  O  O321  1  0.19020730  0.70506908  0.46969286  1
  O  O322  1  0.30923578  0.20508295  0.46967865  1
  O  O323  1  0.70001547  0.60067093  0.45199093  1
  O  O324  1  0.70362513  0.48289188  0.48150052  1
  O  O325  1  0.29185687  0.32257901  0.43993389  1
  O  O326  1  0.20772315  0.82252550  0.43993329  1
  O  O327  1  0.79627738  0.98289803  0.48150357  1
  O  O328  1  0.20378599  0.85391199  0.48323760  1
  O  O329  1  0.79693802  0.95251422  0.43758086  1
  O  O330  1  0.70304217  0.45249479  0.43757518  1
  O  O331  1  0.29592418  0.35391381  0.48323837  1
  O  O332  1  0.38039883  0.01276165  0.45711454  1
  O  O333  1  0.61870737  0.78850534  0.46459110  1
  O  O334  1  0.88088112  0.28854441  0.46460250  1
  O  O335  1  0.11951514  0.51277989  0.45711353  1
  O  O336  1  0.70333527  0.98453095  0.59906979  1
  O  O337  1  0.69126383  0.70192326  0.53010220  1
  O  O338  1  0.29853820  0.09807444  0.54846800  1
  O  O339  1  0.29520295  0.38254226  0.61907774  1
  O  O340  1  0.20500104  0.88254667  0.61907033  1
  O  O341  1  0.20145404  0.59808508  0.54846467  1
  O  O342  1  0.80868900  0.20194001  0.53011065  1
  O  O343  1  0.79692161  0.48455881  0.59908178  1
  O  O344  1  0.79188322  0.31894671  0.55992861  1
  O  O345  1  0.79674422  0.60299329  0.62843574  1
  O  O346  1  0.20578165  0.76308965  0.59022940  1
  O  O347  1  0.20355045  0.48148315  0.51867472  1
  O  O348  1  0.29646304  0.98149188  0.51867403  1
  O  O349  1  0.29430452  0.26308745  0.59022961  1
  O  O350  1  0.70329033  0.10298251  0.62842949  1
  O  O351  1  0.70809031  0.81891381  0.55992449  1
  O  O352  1  0.29564879  0.94901286  0.56244685  1
  O  O353  1  0.29838812  0.23400041  0.63409200  1
  O  O354  1  0.70233528  0.13325153  0.58456512  1
  O  O355  1  0.70315524  0.85131321  0.51666220  1
  O  O356  1  0.79671362  0.35133248  0.51666771  1
  O  O357  1  0.79789251  0.63326201  0.58457004  1
  O  O358  1  0.20171817  0.73402637  0.63409279  1
  O  O359  1  0.20435932  0.44902065  0.56244660  1
  O  O360  1  0.11994655  0.07351480  0.60404820  1
  O  O361  1  0.11893042  0.78572796  0.53506730  1
  O  O362  1  0.87955149  0.01021163  0.54305162  1
  O  O363  1  0.87914840  0.29292663  0.61482376  1
  O  O364  1  0.62101616  0.79289292  0.61481524  1
  O  O365  1  0.62045323  0.51022743  0.54305513  1
  O  O366  1  0.38102619  0.28572683  0.53507436  1
  O  O367  1  0.38020121  0.57354853  0.60404010  1
  O  O368  1  0.70365960  0.55867422  0.74015997  1
  O  O369  1  0.70299106  0.27148212  0.66996442  1
  O  O370  1  0.29684690  0.66929991  0.68947354  1
  O  O371  1  0.29558276  0.95674398  0.75990006  1
  O  O372  1  0.20437615  0.45669341  0.75991228  1
  O  O373  1  0.20307357  0.16935081  0.68947072  1
  O  O374  1  0.79697231  0.77143128  0.66996978  1
  O  O375  1  0.79617690  0.05875041  0.74016512  1
  O  O376  1  0.79574694  0.89073490  0.69897762  1
  O  O377  1  0.79586065  0.17770320  0.76935598  1
  O  O378  1  0.20459084  0.33779092  0.73067999  1
  O  O379  1  0.20311063  0.05060650  0.66019611  1
  O  O380  1  0.29687216  0.55060509  0.66018631  1
  O  O381  1  0.29543106  0.83778677  0.73067759  1
  O  O382  1  0.70412479  0.67764304  0.76934926  1
  O  O383  1  0.70433178  0.39072266  0.69898645  1
  O  O384  1  0.29765975  0.52087972  0.70409453  1
  O  O385  1  0.29742566  0.80822784  0.77459738  1
  O  O386  1  0.70270830  0.70712848  0.72541739  1
  O  O387  1  0.70190876  0.41975555  0.65503586  1
  O  O388  1  0.79816279  0.91969220  0.65502055  1
  O  O389  1  0.79737932  0.20719832  0.72542052  1
  O  O390  1  0.20259771  0.30820471  0.77460303  1
  O  O391  1  0.20242471  0.02093722  0.70410373  1
  O  O392  1  0.12033181  0.64766893  0.74493269  1
  O  O393  1  0.11990934  0.36057917  0.67456606  1
  O  O394  1  0.88026761  0.58030280  0.68449663  1
  O  O395  1  0.87934591  0.86743906  0.75512252  1
  O  O396  1  0.62063692  0.36742323  0.75512578  1
  O  O397  1  0.61973271  0.08040738  0.68449555  1
  O  O398  1  0.38012473  0.86058489  0.67456464  1
  O  O399  1  0.37964993  0.14783194  0.74493428  1
  O  O400  1  0.70458379  0.13670860  0.88097409  1
  O  O401  1  0.70244026  0.84725585  0.81062934  1
  O  O402  1  0.29636584  0.24529976  0.83003558  1
  O  O403  1  0.29741473  0.53483210  0.90086749  1
  O  O404  1  0.20299626  0.03493536  0.90088854  1
  O  O405  1  0.20365442  0.74530920  0.83004042  1
  O  O406  1  0.79755225  0.34727839  0.81062621  1
  O  O407  1  0.79552202  0.63677008  0.88100088  1
  O  O408  1  0.79720201  0.46656123  0.83981165  1
  O  O409  1  0.79456477  0.75736438  0.90954291  1
  O  O410  1  0.20335992  0.91543446  0.87178928  1
  O  O411  1  0.20411700  0.62564901  0.80110755  1
  O  O412  1  0.29583717  0.12563780  0.80110299  1
  O  O413  1  0.29685501  0.41542264  0.87173316  1
  O  O414  1  0.70549477  0.25721835  0.90952714  1
  O  O415  1  0.70284784  0.96650377  0.83983156  1
  O  O416  1  0.29781322  0.09730055  0.84509666  1
  O  O417  1  0.29853800  0.38675181  0.91568129  1
  O  O418  1  0.70214065  0.28472608  0.86563325  1
  O  O419  1  0.70168942  0.99533792  0.79587214  1
  O  O420  1  0.79819650  0.49535078  0.79585392  1
  O  O421  1  0.79822908  0.78474762  0.86564422  1
  O  O422  1  0.20155759  0.88695382  0.91575328  1
  O  O423  1  0.20219660  0.59731154  0.84510068  1
  O  O424  1  0.12085595  0.22614810  0.88512382  1
  O  O425  1  0.11912712  0.93622193  0.81554206  1
  O  O426  1  0.87976426  0.15598631  0.82540061  1
  O  O427  1  0.88062065  0.44581262  0.89608317  1
  O  O428  1  0.61961889  0.94584453  0.89611749  1
  O  O429  1  0.62020896  0.65598368  0.82540222  1
  O  O430  1  0.38085647  0.43622148  0.81553571  1
  O  O431  1  0.37929833  0.72623825  0.88513296  1
  O  O432  1  0.70129169  0.42469716  0.95190747  1
  O  O433  1  0.30942958  0.82052816  0.96953276  1
  O  O434  1  0.19044047  0.32052579  0.96949863  1
  O  O435  1  0.79860594  0.92472289  0.95199293  1
  O  O436  1  0.79475504  0.04285961  0.98139722  1
  O  O437  1  0.20729519  0.20257868  0.93985757  1
  O  O438  1  0.29269434  0.70264788  0.93985516  1
  O  O439  1  0.70555693  0.54275277  0.98135596  1
  O  O440  1  0.29736877  0.67185040  0.98314554  1
  O  O441  1  0.70521372  0.57276007  0.93741105  1
  O  O442  1  0.79492550  0.07270025  0.93744057  1
  O  O443  1  0.20267204  0.17190711  0.98315985  1
  O  O444  1  0.12138517  0.51231066  0.95703262  1
  O  O445  1  0.88155011  0.73694853  0.96450246  1
  O  O446  1  0.61845695  0.23695828  0.96449634  1
  O  O447  1  0.37875494  0.01246222  0.95709934  1
