# generated using pymatgen
data_Li3PO4
_symmetry_space_group_name_H-M   'P 1'
_cell_length_a   4.97784600
_cell_length_b   16.20967300
_cell_length_c   65.03141591
_cell_angle_alpha   90.00000000
_cell_angle_beta   90.00000000
_cell_angle_gamma   90.00000000
_symmetry_Int_Tables_number   1
_chemical_formula_structural   Li3PO4
_chemical_formula_sum   'Li192 P64 O256'
_cell_volume   5247.33655987
_cell_formula_units_Z   64
loop_
 _symmetry_equiv_pos_site_id
 _symmetry_equiv_pos_as_xyz
  1  'x, y, z'
loop_
 _atom_site_type_symbol
 _atom_site_label
 _atom_site_symmetry_multiplicity
 _atom_site_fract_x
 _atom_site_fract_y
 _atom_site_fract_z
 _atom_site_occupancy
  Li  Li0  1  0.19762261  0.53250247  0.08484356  1
  Li  Li1  1  0.18622332  0.81841741  0.02538243  1
  Li  Li2  1  0.80106338  0.39199239  0.04412507  1
  Li  Li3  1  0.80308802  0.10682977  0.10622769  1
  Li  Li4  1  0.69753894  0.60674620  0.10624495  1
  Li  Li5  1  0.69884596  0.89198805  0.04413070  1
  Li  Li6  1  0.31353984  0.31840601  0.02537473  1
  Li  Li7  1  0.30257973  0.03235842  0.08483280  1
  Li  Li8  1  0.30304312  0.17683016  0.05530392  1
  Li  Li9  1  0.30275134  0.88938324  0.11576544  1
  Li  Li10  1  0.69466022  0.75020253  0.07659656  1
  Li  Li11  1  0.69385134  0.03163210  0.01309862  1
  Li  Li12  1  0.80535815  0.53190336  0.01314928  1
  Li  Li13  1  0.80538495  0.25020567  0.07659076  1
  Li  Li14  1  0.19779617  0.38951644  0.11573373  1
  Li  Li15  1  0.19663227  0.67676493  0.05531490  1
  Li  Li16  1  0.79796923  0.56455576  0.05823146  1
  Li  Li17  1  0.79876706  0.27947877  0.12082099  1
  Li  Li18  1  0.20226057  0.35984324  0.07107600  1
  Li  Li19  1  0.18662749  0.64650387  0.01294479  1
  Li  Li20  1  0.31147271  0.14628882  0.01297796  1
  Li  Li21  1  0.29775668  0.85982260  0.07107949  1
  Li  Li22  1  0.70259580  0.77945971  0.12084428  1
  Li  Li23  1  0.70135578  0.06456811  0.05817479  1
  Li  Li24  1  0.19690076  0.95676288  0.20861015  1
  Li  Li25  1  0.19978449  0.24430965  0.14702487  1
  Li  Li26  1  0.80157323  0.81878507  0.16809664  1
  Li  Li27  1  0.80239271  0.53105485  0.22976651  1
  Li  Li28  1  0.69761662  0.03104538  0.22976693  1
  Li  Li29  1  0.69845905  0.31876862  0.16808872  1
  Li  Li30  1  0.30083435  0.74432631  0.14702605  1
  Li  Li31  1  0.30308767  0.45676921  0.20860874  1
  Li  Li32  1  0.30295514  0.60163262  0.17746031  1
  Li  Li33  1  0.30266653  0.31376119  0.23914281  1
  Li  Li34  1  0.69779877  0.17371541  0.19898230  1
  Li  Li35  1  0.69913461  0.46178499  0.13717925  1
  Li  Li36  1  0.80093869  0.96179519  0.13717748  1
  Li  Li37  1  0.80223572  0.67371451  0.19898944  1
  Li  Li38  1  0.19734997  0.81376559  0.23914816  1
  Li  Li39  1  0.19723397  0.10154635  0.17745906  1
  Li  Li40  1  0.79715453  0.99109234  0.18199660  1
  Li  Li41  1  0.79772865  0.70378227  0.24370287  1
  Li  Li42  1  0.20136338  0.78411444  0.19452382  1
  Li  Li43  1  0.20403139  0.07134441  0.13272852  1
  Li  Li44  1  0.29649572  0.57140289  0.13272375  1
  Li  Li45  1  0.29862905  0.28410887  0.19452218  1
  Li  Li46  1  0.70254729  0.20373097  0.24368428  1
  Li  Li47  1  0.70286306  0.49108376  0.18199550  1
  Li  Li48  1  0.19847183  0.38124725  0.33190915  1
  Li  Li49  1  0.19759169  0.66896371  0.27023496  1
  Li  Li50  1  0.80296073  0.24329143  0.29139513  1
  Li  Li51  1  0.80088922  0.95570716  0.35298147  1
  Li  Li52  1  0.69976599  0.45569971  0.35297753  1
  Li  Li53  1  0.69691549  0.74324408  0.29139360  1
  Li  Li54  1  0.30244290  0.16895998  0.27023329  1
  Li  Li55  1  0.30205655  0.88148361  0.33198271  1
  Li  Li56  1  0.30224485  0.02629949  0.30101631  1
  Li  Li57  1  0.30098119  0.73820153  0.36282144  1
  Li  Li58  1  0.69716261  0.59842455  0.32253208  1
  Li  Li59  1  0.69738617  0.88623577  0.26086335  1
  Li  Li60  1  0.80262316  0.38624006  0.26085409  1
  Li  Li61  1  0.80287643  0.09852779  0.32254770  1
  Li  Li62  1  0.19910178  0.23822814  0.36282400  1
  Li  Li63  1  0.19778044  0.52630212  0.30101443  1
  Li  Li64  1  0.79862362  0.41590236  0.30547685  1
  Li  Li65  1  0.79607904  0.12866913  0.36727647  1
  Li  Li66  1  0.20313579  0.20909254  0.31801961  1
  Li  Li67  1  0.20214692  0.49622473  0.25630180  1
  Li  Li68  1  0.29786827  0.99620967  0.25630389  1
  Li  Li69  1  0.29691102  0.70910550  0.31802533  1
  Li  Li70  1  0.70401162  0.62865508  0.36727013  1
  Li  Li71  1  0.70135178  0.91596137  0.30550469  1
  Li  Li72  1  0.19894031  0.80802879  0.45584234  1
  Li  Li73  1  0.19767045  0.09327103  0.39377071  1
  Li  Li74  1  0.80253040  0.66765934  0.41516586  1
  Li  Li75  1  0.81355030  0.38160793  0.47462138  1
  Li  Li76  1  0.68640069  0.88158328  0.47461356  1
  Li  Li77  1  0.69753585  0.16765433  0.41516981  1
  Li  Li78  1  0.30256328  0.59328018  0.39375563  1
  Li  Li79  1  0.30108685  0.30802254  0.45586944  1
  Li  Li80  1  0.30529907  0.45004133  0.42339799  1
  Li  Li81  1  0.30549821  0.16810646  0.48685022  1
  Li  Li82  1  0.69674277  0.02323130  0.44468358  1
  Li  Li83  1  0.69780887  0.31048661  0.38426622  1
  Li  Li84  1  0.80279926  0.81062668  0.38422870  1
  Li  Li85  1  0.80319622  0.52324431  0.44468435  1
  Li  Li86  1  0.19471500  0.66809885  0.48684001  1
  Li  Li87  1  0.19475122  0.94981851  0.42339966  1
  Li  Li88  1  0.79847757  0.84043247  0.42882484  1
  Li  Li89  1  0.81149512  0.55372512  0.48701548  1
  Li  Li90  1  0.20121315  0.63544501  0.44179602  1
  Li  Li91  1  0.20297482  0.92048079  0.37915795  1
  Li  Li92  1  0.29875503  0.42052785  0.37917956  1
  Li  Li93  1  0.29826484  0.13542220  0.44178006  1
  Li  Li94  1  0.68825247  0.05360719  0.48701737  1
  Li  Li95  1  0.70225495  0.34020300  0.42892425  1
  Li  Li96  1  0.30256615  0.66769217  0.58483096  1
  Li  Li97  1  0.31352710  0.38158681  0.52536940  1
  Li  Li98  1  0.69892176  0.80804852  0.54416155  1
  Li  Li99  1  0.69660847  0.09332991  0.60622415  1
  Li  Li100  1  0.80343639  0.59331925  0.60622262  1
  Li  Li101  1  0.80107455  0.30803589  0.54413161  1
  Li  Li102  1  0.18634900  0.88158352  0.52538600  1
  Li  Li103  1  0.19747549  0.16768044  0.58483164  1
  Li  Li104  1  0.19671432  0.02324658  0.55530440  1
  Li  Li105  1  0.19777655  0.31054001  0.61574229  1
  Li  Li106  1  0.80581714  0.45024604  0.57658251  1
  Li  Li107  1  0.80528794  0.16809705  0.51315388  1
  Li  Li108  1  0.69463602  0.66813598  0.51315137  1
  Li  Li109  1  0.69464919  0.95024296  0.57659327  1
  Li  Li110  1  0.30272764  0.81062141  0.61577031  1
  Li  Li111  1  0.30324321  0.52325863  0.55531052  1
  Li  Li112  1  0.70118214  0.63544841  0.55817623  1
  Li  Li113  1  0.70242888  0.92054877  0.62081495  1
  Li  Li114  1  0.29848653  0.84047007  0.57117610  1
  Li  Li115  1  0.31149605  0.55372323  0.51297915  1
  Li  Li116  1  0.18755014  0.05361849  0.51291316  1
  Li  Li117  1  0.20224942  0.34021854  0.57107495  1
  Li  Li118  1  0.79769643  0.42051904  0.62081088  1
  Li  Li119  1  0.79875526  0.13543907  0.55820263  1
  Li  Li120  1  0.30294855  0.24327242  0.70860191  1
  Li  Li121  1  0.30046121  0.95571913  0.64702756  1
  Li  Li122  1  0.69848925  0.38124686  0.66809359  1
  Li  Li123  1  0.69730750  0.66881806  0.72977891  1
  Li  Li124  1  0.80225667  0.16893661  0.72976081  1
  Li  Li125  1  0.80156543  0.88122775  0.66809620  1
  Li  Li126  1  0.19971314  0.45569157  0.64701873  1
  Li  Li127  1  0.19688229  0.74320930  0.70861266  1
  Li  Li128  1  0.19726019  0.59838115  0.67747840  1
  Li  Li129  1  0.19734137  0.88621711  0.73914606  1
  Li  Li130  1  0.80218614  0.02627716  0.69898242  1
  Li  Li131  1  0.80093810  0.73821053  0.63717729  1
  Li  Li132  1  0.69910914  0.23821943  0.63717587  1
  Li  Li133  1  0.69782476  0.52627308  0.69898850  1
  Li  Li134  1  0.30183925  0.38592483  0.73922635  1
  Li  Li135  1  0.30282672  0.09845788  0.67745932  1
  Li  Li136  1  0.70311131  0.20906609  0.68197861  1
  Li  Li137  1  0.70202215  0.49616805  0.74370132  1
  Li  Li138  1  0.29859102  0.41587116  0.69453539  1
  Li  Li139  1  0.29601825  0.12866650  0.63273052  1
  Li  Li140  1  0.20406121  0.62865556  0.63273153  1
  Li  Li141  1  0.20135105  0.91587429  0.69452343  1
  Li  Li142  1  0.79769069  0.99620173  0.74370298  1
  Li  Li143  1  0.79711020  0.70894330  0.68198843  1
  Li  Li144  1  0.30158802  0.81875546  0.83190870  1
  Li  Li145  1  0.30239563  0.53099179  0.77026366  1
  Li  Li146  1  0.69703879  0.95669977  0.79139687  1
  Li  Li147  1  0.69943769  0.24424336  0.85298174  1
  Li  Li148  1  0.80076737  0.74429271  0.85297326  1
  Li  Li149  1  0.80287837  0.45668849  0.79140140  1
  Li  Li150  1  0.19754567  0.03101896  0.77023481  1
  Li  Li151  1  0.19793225  0.31846842  0.83199019  1
  Li  Li152  1  0.19770807  0.17367987  0.80101156  1
  Li  Li153  1  0.19901824  0.46178407  0.86283368  1
  Li  Li154  1  0.80283430  0.60145227  0.82254737  1
  Li  Li155  1  0.80249522  0.31372771  0.76087138  1
  Li  Li156  1  0.69734647  0.81374183  0.76086004  1
  Li  Li157  1  0.69713462  0.10151398  0.82253796  1
  Li  Li158  1  0.30096210  0.96178269  0.86282085  1
  Li  Li159  1  0.30226047  0.67367828  0.80101845  1
  Li  Li160  1  0.70152813  0.78401256  0.80551251  1
  Li  Li161  1  0.70394152  0.07132773  0.86727469  1
  Li  Li162  1  0.29688429  0.99090516  0.81801929  1
  Li  Li163  1  0.29753682  0.70362296  0.75629820  1
  Li  Li164  1  0.20139684  0.20358852  0.75622570  1
  Li  Li165  1  0.20232257  0.49058362  0.81811892  1
  Li  Li166  1  0.79606660  0.57133578  0.86727530  1
  Li  Li167  1  0.79845126  0.28399512  0.80551790  1
  Li  Li168  1  0.30107669  0.39198282  0.95587652  1
  Li  Li169  1  0.30249175  0.10671999  0.89375981  1
  Li  Li170  1  0.69746825  0.53233802  0.91516753  1
  Li  Li171  1  0.68631442  0.81842605  0.97460629  1
  Li  Li172  1  0.81354633  0.31838419  0.97462422  1
  Li  Li173  1  0.80232208  0.03246648  0.91515601  1
  Li  Li174  1  0.19748534  0.60671301  0.89375273  1
  Li  Li175  1  0.19884179  0.89196096  0.95579939  1
  Li  Li176  1  0.19466497  0.74975978  0.92339835  1
  Li  Li177  1  0.19449436  0.03190652  0.98683967  1
  Li  Li178  1  0.80318829  0.17676021  0.94468601  1
  Li  Li179  1  0.80277336  0.88937220  0.88422939  1
  Li  Li180  1  0.69724459  0.38937120  0.88424164  1
  Li  Li181  1  0.69663917  0.67674598  0.94468475  1
  Li  Li182  1  0.30545551  0.53193285  0.98685572  1
  Li  Li183  1  0.30531413  0.25019168  0.92340554  1
  Li  Li184  1  0.70221698  0.35981496  0.92892723  1
  Li  Li185  1  0.68798648  0.64642886  0.98701605  1
  Li  Li186  1  0.29808569  0.56451480  0.94175517  1
  Li  Li187  1  0.29717326  0.27951460  0.87916111  1
  Li  Li188  1  0.20297099  0.77952511  0.87915100  1
  Li  Li189  1  0.20144404  0.06455607  0.94176113  1
  Li  Li190  1  0.81147769  0.14628217  0.98702108  1
  Li  Li191  1  0.79846442  0.85954948  0.92882068  1
  P  P192  1  0.69370006  0.42922269  0.09110983  1
  P  P193  1  0.69435907  0.71580476  0.03114753  1
  P  P194  1  0.30692655  0.49556839  0.03781693  1
  P  P195  1  0.30830757  0.21021447  0.10065691  1
  P  P196  1  0.19216754  0.71017840  0.10065686  1
  P  P197  1  0.19271877  0.99550188  0.03780982  1
  P  P198  1  0.80488173  0.21578860  0.03113641  1
  P  P199  1  0.80649156  0.92921444  0.09111277  1
  P  P200  1  0.69293562  0.85346074  0.21466038  1
  P  P201  1  0.69400472  0.14094991  0.15298231  1
  P  P202  1  0.30609735  0.92181663  0.16187481  1
  P  P203  1  0.30715112  0.63408598  0.22361589  1
  P  P204  1  0.19291202  0.13407942  0.22361301  1
  P  P205  1  0.19399088  0.42184075  0.16187376  1
  P  P206  1  0.80632590  0.64096392  0.15299452  1
  P  P207  1  0.80704259  0.35346715  0.21465423  1
  P  P208  1  0.69398098  0.27820295  0.33813111  1
  P  P209  1  0.69280248  0.56593114  0.27638668  1
  P  P210  1  0.30698559  0.34656042  0.28534049  1
  P  P211  1  0.30624572  0.05914738  0.34702408  1
  P  P212  1  0.19396307  0.55905213  0.34701248  1
  P  P213  1  0.19301210  0.84655760  0.28536179  1
  P  P214  1  0.80723472  0.06594678  0.27639274  1
  P  P215  1  0.80620626  0.77822520  0.33813603  1
  P  P216  1  0.69294076  0.70454331  0.46217047  1
  P  P217  1  0.69223708  0.98986237  0.39934261  1
  P  P218  1  0.30659019  0.77080524  0.40887874  1
  P  P219  1  0.30495053  0.48421380  0.46885255  1
  P  P220  1  0.19493897  0.98417547  0.46883373  1
  P  P221  1  0.19374003  0.27083784  0.40889079  1
  P  P222  1  0.80824170  0.48982537  0.39933971  1
  P  P223  1  0.80706086  0.20446938  0.46218361  1
  P  P224  1  0.80648355  0.77090463  0.59111427  1
  P  P225  1  0.80494735  0.48420122  0.53113214  1
  P  P226  1  0.19289729  0.70455036  0.53782277  1
  P  P227  1  0.19192168  0.98993103  0.60065809  1
  P  P228  1  0.30826385  0.48987045  0.60065253  1
  P  P229  1  0.30703152  0.20447024  0.53781418  1
  P  P230  1  0.69473293  0.98418131  0.53113201  1
  P  P231  1  0.69370698  0.27088681  0.59110637  1
  P  P232  1  0.80683321  0.34650489  0.71468051  1
  P  P233  1  0.80607272  0.05908100  0.65297952  1
  P  P234  1  0.19397731  0.27819030  0.66187203  1
  P  P235  1  0.19291603  0.56580708  0.72362891  1
  P  P236  1  0.30704773  0.06585830  0.72360534  1
  P  P237  1  0.30604542  0.77818937  0.66187321  1
  P  P238  1  0.69404558  0.55904192  0.65298382  1
  P  P239  1  0.69291868  0.84649460  0.71465884  1
  P  P240  1  0.80608193  0.92180273  0.83813194  1
  P  P241  1  0.80724558  0.63403865  0.77639604  1
  P  P242  1  0.19304172  0.85341630  0.78534989  1
  P  P243  1  0.19381897  0.14084150  0.84702152  1
  P  P244  1  0.30620180  0.64088979  0.84701102  1
  P  P245  1  0.30679439  0.35334040  0.78538606  1
  P  P246  1  0.69255216  0.13404202  0.77637959  1
  P  P247  1  0.69369660  0.42171517  0.83815724  1
  P  P248  1  0.80702612  0.49553559  0.96218226  1
  P  P249  1  0.80784033  0.21016935  0.89934496  1
  P  P250  1  0.19352052  0.42917481  0.90888802  1
  P  P251  1  0.19468610  0.71580880  0.96883697  1
  P  P252  1  0.30491663  0.21577112  0.96884951  1
  P  P253  1  0.30643731  0.92913642  0.90887232  1
  P  P254  1  0.69216511  0.71009700  0.89933611  1
  P  P255  1  0.69282617  0.99546899  0.96216162  1
  O  O256  1  0.79693990  0.51858064  0.08692406  1
  O  O257  1  0.80863301  0.80266218  0.02656280  1
  O  O258  1  0.20067414  0.40690913  0.04233878  1
  O  O259  1  0.20563057  0.12051573  0.10437496  1
  O  O260  1  0.29497713  0.62048827  0.10437064  1
  O  O261  1  0.29897643  0.90687203  0.04235778  1
  O  O262  1  0.69085344  0.30267348  0.02654991  1
  O  O263  1  0.70334718  0.01857463  0.08691587  1
  O  O264  1  0.70824760  0.18536831  0.05269409  1
  O  O265  1  0.70360054  0.89950787  0.11253058  1
  O  O266  1  0.29400215  0.74082340  0.07931730  1
  O  O267  1  0.29615894  0.02409330  0.01634007  1
  O  O268  1  0.20352229  0.52428049  0.01635766  1
  O  O269  1  0.20615525  0.24085232  0.07932290  1
  O  O270  1  0.79657667  0.39950989  0.11252619  1
  O  O271  1  0.79114614  0.68532776  0.05269421  1
  O  O272  1  0.20393431  0.55538082  0.05482532  1
  O  O273  1  0.20245925  0.26874955  0.11775974  1
  O  O274  1  0.79730109  0.37022452  0.07402976  1
  O  O275  1  0.79502683  0.65376435  0.01470741  1
  O  O276  1  0.70391126  0.15369371  0.01471532  1
  O  O277  1  0.70281709  0.87020864  0.07403589  1
  O  O278  1  0.29818164  0.76869090  0.11775681  1
  O  O279  1  0.29574353  0.05538001  0.05480236  1
  O  O280  1  0.38003626  0.42978081  0.09122275  1
  O  O281  1  0.38007490  0.71934426  0.03101056  1
  O  O282  1  0.62003758  0.49457567  0.03772853  1
  O  O283  1  0.62147588  0.21012341  0.10076445  1
  O  O284  1  0.87899726  0.71008013  0.10077594  1
  O  O285  1  0.87962212  0.99452334  0.03770973  1
  O  O286  1  0.11918001  0.21932311  0.03099843  1
  O  O287  1  0.12016680  0.92970968  0.09123216  1
  O  O288  1  0.79543840  0.94287148  0.21050249  1
  O  O289  1  0.79683665  0.23045718  0.14904213  1
  O  O290  1  0.20318860  0.83250236  0.16607179  1
  O  O291  1  0.20426744  0.54472969  0.22778662  1
  O  O292  1  0.29568065  0.04471353  0.22778814  1
  O  O293  1  0.29692874  0.33252585  0.16606919  1
  O  O294  1  0.70342712  0.73046472  0.14905388  1
  O  O295  1  0.70457176  0.44288251  0.21050274  1
  O  O296  1  0.70409119  0.61093336  0.17439387  1
  O  O297  1  0.70418977  0.32384742  0.23608003  1
  O  O298  1  0.29591011  0.16375835  0.20219506  1
  O  O299  1  0.29699480  0.45152364  0.14045047  1
  O  O300  1  0.20305965  0.95150491  0.14045411  1
  O  O301  1  0.20421752  0.66379246  0.20219651  1
  O  O302  1  0.79584761  0.82385020  0.23608548  1
  O  O303  1  0.79626489  0.11092682  0.17438242  1
  O  O304  1  0.20237453  0.98075462  0.17898674  1
  O  O305  1  0.20311538  0.69309909  0.24070631  1
  O  O306  1  0.79756226  0.79446107  0.19758693  1
  O  O307  1  0.79872925  0.08242130  0.13582094  1
  O  O308  1  0.70153469  0.58243190  0.13583375  1
  O  O309  1  0.70234825  0.29446950  0.19758209  1
  O  O310  1  0.29690592  0.19308956  0.24070430  1
  O  O311  1  0.29773163  0.48078616  0.17898492  1
  O  O312  1  0.37942458  0.85362713  0.21471652  1
  O  O313  1  0.38049660  0.14105884  0.15301326  1
  O  O314  1  0.61966061  0.92153232  0.16171259  1
  O  O315  1  0.62059602  0.63383152  0.22351985  1
  O  O316  1  0.87945632  0.13384247  0.22350750  1
  O  O317  1  0.88043267  0.42154355  0.16171569  1
  O  O318  1  0.11983344  0.64110024  0.15301645  1
  O  O319  1  0.12055068  0.35361967  0.21470669  1
  O  O320  1  0.79693850  0.36750526  0.33393310  1
  O  O321  1  0.79564611  0.65529045  0.27221462  1
  O  O322  1  0.20452343  0.25715251  0.28950083  1
  O  O323  1  0.20342398  0.96964680  0.35097697  1
  O  O324  1  0.29681035  0.46954798  0.35095600  1
  O  O325  1  0.29545403  0.75713372  0.28950794  1
  O  O326  1  0.70442464  0.15530182  0.27221458  1
  O  O327  1  0.70325285  0.86755074  0.33395403  1
  O  O328  1  0.70432736  0.03629103  0.29781653  1
  O  O329  1  0.70321462  0.74850147  0.35955513  1
  O  O330  1  0.29618531  0.58910967  0.32561500  1
  O  O331  1  0.29581833  0.87614960  0.26393138  1
  O  O332  1  0.20410562  0.37615252  0.26391528  1
  O  O333  1  0.20395517  0.08914752  0.32562437  1
  O  O334  1  0.79697835  0.24849131  0.35955093  1
  O  O335  1  0.79580364  0.53623917  0.29780468  1
  O  O336  1  0.20232471  0.40554871  0.30241613  1
  O  O337  1  0.20153439  0.11766037  0.36418782  1
  O  O338  1  0.79765550  0.21927621  0.32101626  1
  O  O339  1  0.79684819  0.50691258  0.25929581  1
  O  O340  1  0.70315696  0.00692753  0.25930356  1
  O  O341  1  0.70254659  0.71929380  0.32102242  1
  O  O342  1  0.29870902  0.61759117  0.36417289  1
  O  O343  1  0.29787920  0.90553331  0.30243426  1
  O  O344  1  0.38042593  0.27851326  0.33829450  1
  O  O345  1  0.37934686  0.56616430  0.27648404  1
  O  O346  1  0.62048119  0.34642846  0.28528690  1
  O  O347  1  0.61975446  0.05899462  0.34699283  1
  O  O348  1  0.88044558  0.55892841  0.34698461  1
  O  O349  1  0.87950669  0.84642557  0.28531396  1
  O  O350  1  0.12069515  0.06616273  0.27648619  1
  O  O351  1  0.11978141  0.77859315  0.33830303  1
  O  O352  1  0.79913555  0.79317106  0.45761462  1
  O  O353  1  0.79485000  0.07956990  0.39563440  1
  O  O354  1  0.20351572  0.68145176  0.41308288  1
  O  O355  1  0.19089951  0.39733766  0.47343881  1
  O  O356  1  0.30900103  0.89731040  0.47342826  1
  O  O357  1  0.29695584  0.18148084  0.41308455  1
  O  O358  1  0.70557492  0.57952899  0.39562312  1
  O  O359  1  0.70081275  0.29311532  0.45765201  1
  O  O360  1  0.70622091  0.45920474  0.42067783  1
  O  O361  1  0.70363812  0.17579872  0.48364777  1
  O  O362  1  0.29164267  0.01460511  0.44727965  1
  O  O363  1  0.29659856  0.30048451  0.38746793  1
  O  O364  1  0.20358311  0.80047641  0.38746124  1
  O  O365  1  0.20824114  0.51465501  0.44730003  1
  O  O366  1  0.79640223  0.67592729  0.48364070  1
  O  O367  1  0.79416336  0.95921798  0.42067967  1
  O  O368  1  0.20285247  0.82983600  0.42594663  1
  O  O369  1  0.20401339  0.54628895  0.48527918  1
  O  O370  1  0.79588772  0.64463249  0.44517879  1
  O  O371  1  0.79826760  0.93134384  0.38224416  1
  O  O372  1  0.70235100  0.43127289  0.38224303  1
  O  O373  1  0.70404563  0.14462848  0.44518199  1
  O  O374  1  0.29582153  0.04627656  0.48525310  1
  O  O375  1  0.29741572  0.32988723  0.42595697  1
  O  O376  1  0.37983829  0.70549122  0.46226612  1
  O  O377  1  0.37907384  0.98991511  0.39922527  1
  O  O378  1  0.62023827  0.77034416  0.40875087  1
  O  O379  1  0.61922522  0.48069582  0.46898849  1
  O  O380  1  0.88065797  0.98065174  0.46897289  1
  O  O381  1  0.88007755  0.27029118  0.40878302  1
  O  O382  1  0.12141563  0.48993336  0.39922346  1
  O  O383  1  0.12016523  0.20543961  0.46227301  1
  O  O384  1  0.70345983  0.68154842  0.58690031  1
  O  O385  1  0.69084414  0.39732489  0.52655223  1
  O  O386  1  0.29905020  0.79317219  0.54238834  1
  O  O387  1  0.29464578  0.07962225  0.60437253  1
  O  O388  1  0.20555070  0.57957365  0.60436780  1
  O  O389  1  0.20072185  0.29311423  0.54234343  1
  O  O390  1  0.80880657  0.89729973  0.52655488  1
  O  O391  1  0.79679862  0.18152089  0.58690695  1
  O  O392  1  0.79151112  0.01466824  0.55268007  1
  O  O393  1  0.79653688  0.30050132  0.61253378  1
  O  O394  1  0.20622958  0.45926195  0.57931574  1
  O  O395  1  0.20359672  0.17579060  0.51635135  1
  O  O396  1  0.29635104  0.67595235  0.51635146  1
  O  O397  1  0.29386129  0.95933809  0.57931803  1
  O  O398  1  0.70353026  0.80050720  0.61253957  1
  O  O399  1  0.70827110  0.51467324  0.55268280  1
  O  O400  1  0.29582612  0.64461910  0.55480947  1
  O  O401  1  0.29789769  0.93137898  0.61774916  1
  O  O402  1  0.70263993  0.82999878  0.57406193  1
  O  O403  1  0.70397797  0.54627397  0.51470645  1
  O  O404  1  0.79563530  0.04622712  0.51469899  1
  O  O405  1  0.79746800  0.32996507  0.57404927  1
  O  O406  1  0.20241255  0.43131561  0.61774887  1
  O  O407  1  0.20405325  0.14463870  0.55481954  1
  O  O408  1  0.12015528  0.77041732  0.59123813  1
  O  O409  1  0.11923666  0.48067666  0.53099723  1
  O  O410  1  0.87978580  0.70550418  0.53772444  1
  O  O411  1  0.87876402  0.99005866  0.60077331  1
  O  O412  1  0.62143954  0.49001056  0.60076456  1
  O  O413  1  0.62013609  0.20546076  0.53772438  1
  O  O414  1  0.38044334  0.98070946  0.53099327  1
  O  O415  1  0.38002859  0.27035758  0.59121546  1
  O  O416  1  0.70440708  0.25710795  0.71050272  1
  O  O417  1  0.70330529  0.96956905  0.64903370  1
  O  O418  1  0.29694491  0.36749286  0.66607577  1
  O  O419  1  0.29568659  0.65518830  0.72779030  1
  O  O420  1  0.20413417  0.15522107  0.72776610  1
  O  O421  1  0.20304913  0.86749797  0.66606876  1
  O  O422  1  0.79683388  0.46953576  0.64903546  1
  O  O423  1  0.79536333  0.75707836  0.71050682  1
  O  O424  1  0.79627734  0.58905379  0.67438738  1
  O  O425  1  0.79583848  0.87612666  0.73608201  1
  O  O426  1  0.20420747  0.03615634  0.70218716  1
  O  O427  1  0.20309645  0.74849607  0.64045039  1
  O  O428  1  0.29700381  0.24849785  0.64045251  1
  O  O429  1  0.29590709  0.53614371  0.70220869  1
  O  O430  1  0.70374934  0.37603161  0.73610518  1
  O  O431  1  0.70386598  0.08909983  0.67438074  1
  O  O432  1  0.29761733  0.21924971  0.67898563  1
  O  O433  1  0.29702765  0.50682008  0.74072067  1
  O  O434  1  0.70247281  0.40551848  0.69760024  1
  O  O435  1  0.70133765  0.11762833  0.63582054  1
  O  O436  1  0.79883822  0.61758737  0.63582637  1
  O  O437  1  0.79757536  0.90548500  0.69758341  1
  O  O438  1  0.20296243  0.00687907  0.74070157  1
  O  O439  1  0.20236492  0.71924367  0.67898487  1
  O  O440  1  0.12033882  0.34632877  0.71475619  1
  O  O441  1  0.11958579  0.05896127  0.65300842  1
  O  O442  1  0.88042283  0.27850711  0.66170698  1
  O  O443  1  0.87948810  0.56603374  0.72353089  1
  O  O444  1  0.62049559  0.06612005  0.72351403  1
  O  O445  1  0.61959838  0.77849713  0.66170893  1
  O  O446  1  0.38053349  0.55892366  0.65301661  1
  O  O447  1  0.37941052  0.84635287  0.71471428  1
  O  O448  1  0.70319201  0.83248239  0.83394224  1
  O  O449  1  0.70441575  0.54468197  0.77221893  1
  O  O450  1  0.29549408  0.94283707  0.78950199  1
  O  O451  1  0.29669070  0.23033149  0.85097688  1
  O  O452  1  0.20343366  0.73041312  0.85094376  1
  O  O453  1  0.20446019  0.44277639  0.78953708  1
  O  O454  1  0.79552300  0.04468520  0.77221406  1
  O  O455  1  0.79676920  0.33241209  0.83396972  1
  O  O456  1  0.79545147  0.16371495  0.79780354  1
  O  O457  1  0.79676996  0.45148487  0.85956896  1
  O  O458  1  0.20395184  0.61078955  0.82561945  1
  O  O459  1  0.20371629  0.32370373  0.76396904  1
  O  O460  1  0.29582372  0.82380910  0.76392261  1
  O  O461  1  0.29604374  0.11084010  0.82562104  1
  O  O462  1  0.70310835  0.95151012  0.85955220  1
  O  O463  1  0.70437148  0.66370373  0.79781966  1
  O  O464  1  0.29780016  0.79444960  0.80242743  1
  O  O465  1  0.29853451  0.08232612  0.86418393  1
  O  O466  1  0.70236219  0.98072065  0.82101798  1
  O  O467  1  0.70316507  0.69305678  0.75930682  1
  O  O468  1  0.79669624  0.19304109  0.75928846  1
  O  O469  1  0.79720212  0.48062314  0.82103643  1
  O  O470  1  0.20141165  0.58238876  0.86417799  1
  O  O471  1  0.20210819  0.29438861  0.80246775  1
  O  O472  1  0.11964547  0.92149601  0.83829516  1
  O  O473  1  0.12071488  0.63380892  0.77649193  1
  O  O474  1  0.87953821  0.85356043  0.78530429  1
  O  O475  1  0.88030730  0.14100079  0.84698919  1
  O  O476  1  0.61971973  0.64101771  0.84699196  1
  O  O477  1  0.62030408  0.35349398  0.78531423  1
  O  O478  1  0.37910294  0.13380515  0.77646706  1
  O  O479  1  0.38012053  0.42130624  0.83833234  1
  O  O480  1  0.70072121  0.40688594  0.95766062  1
  O  O481  1  0.70512648  0.12047012  0.89562797  1
  O  O482  1  0.29668318  0.51854153  0.91307130  1
  O  O483  1  0.30882668  0.80268433  0.97340317  1
  O  O484  1  0.19088257  0.30265188  0.97343751  1
  O  O485  1  0.20322581  0.01847810  0.91308018  1
  O  O486  1  0.79481392  0.62039547  0.89562530  1
  O  O487  1  0.79903695  0.90684656  0.95760373  1
  O  O488  1  0.79396850  0.74070473  0.92067866  1
  O  O489  1  0.79619642  0.02405699  0.98363615  1
  O  O490  1  0.20824954  0.18535746  0.94729230  1
  O  O491  1  0.20354525  0.89952790  0.88744707  1
  O  O492  1  0.29639820  0.39948549  0.88746995  1
  O  O493  1  0.29148797  0.68527431  0.94729335  1
  O  O494  1  0.70362670  0.52424588  0.98364253  1
  O  O495  1  0.70588375  0.24081659  0.92068042  1
  O  O496  1  0.29726079  0.37019968  0.92596727  1
  O  O497  1  0.29535327  0.65380136  0.98528349  1
  O  O498  1  0.70402730  0.55534935  0.94517326  1
  O  O499  1  0.70191693  0.26869042  0.88224354  1
  O  O500  1  0.79823464  0.76863527  0.88224448  1
  O  O501  1  0.79584449  0.05538907  0.94517635  1
  O  O502  1  0.20391379  0.15369538  0.98527286  1
  O  O503  1  0.20263509  0.87002840  0.92592042  1
  O  O504  1  0.12013354  0.49455572  0.96227183  1
  O  O505  1  0.12101600  0.21006676  0.89922987  1
  O  O506  1  0.87986436  0.42966859  0.90877576  1
  O  O507  1  0.88039986  0.71935649  0.96896311  1
  O  O508  1  0.61920319  0.21928323  0.96899148  1
  O  O509  1  0.62009872  0.92966292  0.90875452  1
  O  O510  1  0.37900127  0.71001689  0.89921081  1
  O  O511  1  0.37973098  0.99453152  0.96225930  1
