# generated using pymatgen
data_Li3PO4
_symmetry_space_group_name_H-M   'P 1'
_cell_length_a   4.97784600
_cell_length_b   16.20967300
_cell_length_c   57.02328941
_cell_angle_alpha   90.00000000
_cell_angle_beta   90.00000000
_cell_angle_gamma   90.00000000
_symmetry_Int_Tables_number   1
_chemical_formula_structural   Li3PO4
_chemical_formula_sum   'Li168 P56 O224'
_cell_volume   4601.16679171
_cell_formula_units_Z   56
loop_
 _symmetry_equiv_pos_site_id
 _symmetry_equiv_pos_as_xyz
  1  'x, y, z'
loop_
 _atom_site_type_symbol
 _atom_site_label
 _atom_site_symmetry_multiplicity
 _atom_site_fract_x
 _atom_site_fract_y
 _atom_site_fract_z
 _atom_site_occupancy
  Li  Li0  1  0.19884717  0.60257290  0.09689004  1
  Li  Li1  1  0.18622532  0.88712431  0.02914117  1
  Li  Li2  1  0.80191876  0.46161585  0.05015192  1
  Li  Li3  1  0.69810217  0.96164334  0.05016142  1
  Li  Li4  1  0.31390453  0.38715526  0.02912198  1
  Li  Li5  1  0.30126155  0.10259732  0.09687342  1
  Li  Li6  1  0.30328692  0.24611566  0.06302937  1
  Li  Li7  1  0.69633663  0.82014711  0.08705609  1
  Li  Li8  1  0.69250492  0.10045395  0.01485439  1
  Li  Li9  1  0.80748681  0.60045747  0.01486030  1
  Li  Li10  1  0.80358129  0.32017611  0.08706928  1
  Li  Li11  1  0.19659760  0.74604871  0.06303162  1
  Li  Li12  1  0.79744543  0.63365858  0.06658353  1
  Li  Li13  1  0.20109233  0.42936424  0.08123803  1
  Li  Li14  1  0.18674994  0.71503584  0.01486951  1
  Li  Li15  1  0.31326417  0.21504458  0.01486702  1
  Li  Li16  1  0.29884200  0.92938143  0.08123124  1
  Li  Li17  1  0.70311009  0.13444619  0.06640250  1
  Li  Li18  1  0.19651385  0.02697055  0.23763075  1
  Li  Li19  1  0.19715715  0.31390493  0.16788094  1
  Li  Li20  1  0.79998634  0.88892761  0.19174996  1
  Li  Li21  1  0.80272007  0.17674158  0.12120009  1
  Li  Li22  1  0.69703809  0.67681751  0.12120230  1
  Li  Li23  1  0.69997113  0.38894683  0.19175685  1
  Li  Li24  1  0.30279980  0.81391400  0.16787089  1
  Li  Li25  1  0.30348455  0.52698315  0.23763432  1
  Li  Li26  1  0.30265753  0.67100977  0.20251379  1
  Li  Li27  1  0.30132741  0.95943189  0.13195004  1
  Li  Li28  1  0.69987176  0.24436127  0.22699129  1
  Li  Li29  1  0.69749153  0.53172828  0.15660665  1
  Li  Li30  1  0.80240582  0.03173439  0.15660125  1
  Li  Li31  1  0.80009209  0.74435676  0.22698723  1
  Li  Li32  1  0.19789437  0.45938040  0.13199742  1
  Li  Li33  1  0.19722150  0.17101269  0.20253215  1
  Li  Li34  1  0.79422430  0.06148882  0.20759063  1
  Li  Li35  1  0.79825596  0.34997608  0.13768664  1
  Li  Li36  1  0.20062727  0.85394147  0.22166918  1
  Li  Li37  1  0.20301960  0.14195159  0.15153078  1
  Li  Li38  1  0.29633676  0.64188540  0.15150239  1
  Li  Li39  1  0.29932500  0.35390261  0.22167784  1
  Li  Li40  1  0.70060310  0.85038182  0.13761759  1
  Li  Li41  1  0.70627374  0.56157645  0.20760286  1
  Li  Li42  1  0.19733026  0.45000509  0.37857806  1
  Li  Li43  1  0.19777523  0.73908827  0.30818891  1
  Li  Li44  1  0.80242065  0.31328742  0.33201713  1
  Li  Li45  1  0.80300221  0.60156544  0.26194807  1
  Li  Li46  1  0.69693647  0.10156719  0.26194132  1
  Li  Li47  1  0.69752547  0.81328877  0.33201667  1
  Li  Li48  1  0.30216112  0.23907929  0.30818932  1
  Li  Li49  1  0.30262972  0.94999204  0.37857362  1
  Li  Li50  1  0.30290481  0.09532033  0.34322032  1
  Li  Li51  1  0.30334153  0.38476196  0.27263801  1
  Li  Li52  1  0.69953814  0.66688434  0.36770279  1
  Li  Li53  1  0.69721383  0.95617146  0.29749767  1
  Li  Li54  1  0.80246698  0.45614744  0.29748647  1
  Li  Li55  1  0.80044513  0.16687117  0.36769320  1
  Li  Li56  1  0.19697409  0.88470392  0.27264665  1
  Li  Li57  1  0.19714251  0.59533769  0.34323133  1
  Li  Li58  1  0.79538625  0.48609613  0.34842539  1
  Li  Li59  1  0.79853495  0.77379444  0.27806857  1
  Li  Li60  1  0.20071185  0.27661299  0.36194848  1
  Li  Li61  1  0.20101461  0.56659429  0.29215916  1
  Li  Li62  1  0.29796438  0.06656812  0.29207020  1
  Li  Li63  1  0.29928124  0.77659680  0.36194347  1
  Li  Li64  1  0.70142550  0.27379457  0.27806979  1
  Li  Li65  1  0.70457854  0.98609118  0.34842615  1
  Li  Li66  1  0.19837374  0.16450968  0.44944596  1
  Li  Li67  1  0.81437221  0.73863435  0.47097155  1
  Li  Li68  1  0.80237312  0.02399868  0.40323351  1
  Li  Li69  1  0.69747923  0.52406309  0.40322199  1
  Li  Li70  1  0.68562333  0.23863040  0.47097508  1
  Li  Li71  1  0.30138834  0.66444122  0.44944974  1
  Li  Li72  1  0.30584383  0.52465687  0.48504777  1
  Li  Li73  1  0.30602478  0.80654286  0.41251746  1
  Li  Li74  1  0.69620191  0.37961807  0.43695384  1
  Li  Li75  1  0.80396060  0.87966590  0.43693716  1
  Li  Li76  1  0.19384338  0.30656926  0.41252239  1
  Li  Li77  1  0.19419064  0.02464494  0.48504612  1
  Li  Li78  1  0.81203094  0.91035337  0.48534062  1
  Li  Li79  1  0.79841096  0.19636916  0.41873857  1
  Li  Li80  1  0.20439013  0.99216187  0.43358240  1
  Li  Li81  1  0.29565765  0.49215219  0.43358745  1
  Li  Li82  1  0.70156825  0.69636844  0.41874571  1
  Li  Li83  1  0.68798030  0.41035289  0.48534214  1
  Li  Li84  1  0.30303614  0.02278195  0.59686501  1
  Li  Li85  1  0.31397401  0.73791968  0.52905268  1
  Li  Li86  1  0.69913890  0.16344419  0.55059464  1
  Li  Li87  1  0.80086160  0.66343245  0.55059760  1
  Li  Li88  1  0.18578516  0.23796539  0.52907156  1
  Li  Li89  1  0.19698039  0.52279218  0.59685968  1
  Li  Li90  1  0.19640129  0.37934905  0.56301476  1
  Li  Li91  1  0.80548892  0.80533652  0.58742139  1
  Li  Li92  1  0.80594097  0.52428174  0.51505267  1
  Li  Li93  1  0.69403335  0.02428786  0.51504857  1
  Li  Li94  1  0.69451302  0.30533165  0.58741503  1
  Li  Li95  1  0.30357249  0.87936427  0.56301910  1
  Li  Li96  1  0.70453588  0.99089456  0.56650290  1
  Li  Li97  1  0.29936109  0.19525769  0.58125157  1
  Li  Li98  1  0.31204785  0.90975511  0.51471022  1
  Li  Li99  1  0.18829961  0.40997592  0.51469826  1
  Li  Li100  1  0.20098731  0.69557377  0.58125852  1
  Li  Li101  1  0.79544382  0.49088330  0.56649984  1
  Li  Li102  1  0.30333191  0.59829293  0.73803484  1
  Li  Li103  1  0.30075120  0.31094881  0.66770804  1
  Li  Li104  1  0.69847713  0.73573570  0.69165115  1
  Li  Li105  1  0.69689146  0.44787329  0.62126395  1
  Li  Li106  1  0.80350987  0.94798955  0.62126579  1
  Li  Li107  1  0.80169051  0.23574670  0.69166042  1
  Li  Li108  1  0.19925081  0.81093402  0.66770285  1
  Li  Li109  1  0.19669805  0.09829369  0.73803738  1
  Li  Li110  1  0.19793997  0.95350581  0.70255785  1
  Li  Li111  1  0.19845322  0.66514923  0.63216978  1
  Li  Li112  1  0.80235061  0.38075457  0.72724856  1
  Li  Li113  1  0.80187716  0.09245510  0.65682463  1
  Li  Li114  1  0.69800404  0.59247064  0.65679566  1
  Li  Li115  1  0.69766320  0.88075444  0.72724884  1
  Li  Li116  1  0.30155814  0.16515451  0.63217681  1
  Li  Li117  1  0.30205642  0.45351858  0.70255778  1
  Li  Li118  1  0.70381203  0.56386404  0.70783391  1
  Li  Li119  1  0.70264782  0.27498259  0.63786479  1
  Li  Li120  1  0.29852948  0.77087404  0.72189413  1
  Li  Li121  1  0.29431684  0.48326546  0.65132865  1
  Li  Li122  1  0.20568306  0.98325176  0.65134242  1
  Li  Li123  1  0.20152819  0.27087163  0.72189763  1
  Li  Li124  1  0.79722863  0.77487186  0.63787247  1
  Li  Li125  1  0.79619264  0.06384323  0.70783687  1
  Li  Li126  1  0.30361140  0.17513453  0.87886623  1
  Li  Li127  1  0.30299150  0.88629655  0.80850160  1
  Li  Li128  1  0.69944274  0.31128145  0.83236815  1
  Li  Li129  1  0.69705529  0.02387309  0.76216105  1
  Li  Li130  1  0.80294312  0.52388422  0.76215753  1
  Li  Li131  1  0.80314197  0.81125005  0.83240586  1
  Li  Li132  1  0.19720950  0.38628348  0.80849630  1
  Li  Li133  1  0.19646710  0.67512996  0.87886290  1
  Li  Li134  1  0.19828722  0.52935013  0.84360425  1
  Li  Li135  1  0.19753520  0.24144421  0.77282556  1
  Li  Li136  1  0.80187507  0.95763729  0.86804430  1
  Li  Li137  1  0.80220513  0.66885096  0.79757435  1
  Li  Li138  1  0.69800044  0.16878404  0.79757499  1
  Li  Li139  1  0.69805137  0.45762943  0.86802952  1
  Li  Li140  1  0.30256385  0.74146073  0.77282173  1
  Li  Li141  1  0.30176818  0.02933914  0.84360596  1
  Li  Li142  1  0.70606979  0.13894623  0.84878563  1
  Li  Li143  1  0.70178898  0.85131931  0.77816244  1
  Li  Li144  1  0.29862267  0.34817715  0.86235470  1
  Li  Li145  1  0.29627094  0.05850299  0.79249182  1
  Li  Li146  1  0.20375810  0.55852023  0.79248967  1
  Li  Li147  1  0.20149388  0.84821669  0.86240571  1
  Li  Li148  1  0.79839518  0.35127732  0.77815564  1
  Li  Li149  1  0.79403721  0.63894779  0.84878440  1
  Li  Li150  1  0.30177866  0.46092993  0.94985979  1
  Li  Li151  1  0.68652122  0.88645560  0.97104092  1
  Li  Li152  1  0.69718670  0.60065955  0.90321679  1
  Li  Li153  1  0.80279813  0.10067257  0.90321920  1
  Li  Li154  1  0.81343367  0.38646710  0.97104792  1
  Li  Li155  1  0.19817284  0.96092240  0.94986427  1
  Li  Li156  1  0.19231370  0.10040521  0.98518963  1
  Li  Li157  1  0.19532286  0.81842958  0.91279597  1
  Li  Li158  1  0.80337857  0.24512088  0.93704408  1
  Li  Li159  1  0.69657313  0.74510884  0.93704819  1
  Li  Li160  1  0.30469870  0.31842705  0.91279067  1
  Li  Li161  1  0.30761896  0.60035050  0.98516968  1
  Li  Li162  1  0.68718869  0.71485932  0.98516826  1
  Li  Li163  1  0.70117277  0.42791637  0.91888029  1
  Li  Li164  1  0.29737184  0.63314185  0.93341529  1
  Li  Li165  1  0.20241248  0.13313846  0.93347947  1
  Li  Li166  1  0.79880808  0.92791639  0.91888410  1
  Li  Li167  1  0.81262127  0.21488784  0.98516137  1
  P  P168  1  0.69362433  0.49925046  0.10398109  1
  P  P169  1  0.69460710  0.78466659  0.03549985  1
  P  P170  1  0.30766047  0.56462659  0.04321990  1
  P  P171  1  0.30740463  0.28026069  0.11478540  1
  P  P172  1  0.19213561  0.78035038  0.11477864  1
  P  P173  1  0.19241958  0.06469827  0.04320887  1
  P  P174  1  0.80548345  0.28492201  0.03543723  1
  P  P175  1  0.80615581  0.99942265  0.10392816  1
  P  P176  1  0.69216943  0.92381599  0.24479792  1
  P  P177  1  0.69318013  0.21111053  0.17457056  1
  P  P178  1  0.30524711  0.99197485  0.18456005  1
  P  P179  1  0.30647988  0.70460018  0.25498966  1
  P  P180  1  0.19341975  0.20464984  0.25498236  1
  P  P181  1  0.19475975  0.49198701  0.18457037  1
  P  P182  1  0.80673557  0.71116647  0.17453684  1
  P  P183  1  0.80782262  0.42382774  0.24479567  1
  P  P184  1  0.69159223  0.34634282  0.38502509  1
  P  P185  1  0.69299182  0.63572199  0.31512313  1
  P  P186  1  0.30603262  0.41654387  0.32528181  1
  P  P187  1  0.30590596  0.12712309  0.39584765  1
  P  P188  1  0.19410524  0.62714688  0.39586330  1
  P  P189  1  0.19386139  0.91653734  0.32528192  1
  P  P190  1  0.80679798  0.13570531  0.31510604  1
  P  P191  1  0.80843355  0.84629936  0.38502056  1
  P  P192  1  0.69333940  0.06115073  0.45685527  1
  P  P193  1  0.30569117  0.84080862  0.46437680  1
  P  P194  1  0.19434694  0.34081369  0.46438186  1
  P  P195  1  0.80669500  0.56111990  0.45686832  1
  P  P196  1  0.80679902  0.12567820  0.60417634  1
  P  P197  1  0.80527457  0.84007788  0.53562604  1
  P  P198  1  0.19348559  0.06053917  0.54321465  1
  P  P199  1  0.19196765  0.34471427  0.61477306  1
  P  P200  1  0.30808085  0.84474457  0.61477978  1
  P  P201  1  0.30649214  0.56056874  0.54322139  1
  P  P202  1  0.69463277  0.34008699  0.53561984  1
  P  P203  1  0.69322283  0.62563606  0.60416030  1
  P  P204  1  0.80738432  0.70149251  0.74495543  1
  P  P205  1  0.80564752  0.41371867  0.67460100  1
  P  P206  1  0.19377855  0.63289020  0.68476348  1
  P  P207  1  0.19326039  0.92078795  0.75519701  1
  P  P208  1  0.30675851  0.42078675  0.75519460  1
  P  P209  1  0.30621532  0.13289054  0.68477111  1
  P  P210  1  0.69435561  0.91369563  0.67459558  1
  P  P211  1  0.69281706  0.20145452  0.74496212  1
  P  P212  1  0.80846413  0.27843337  0.88528652  1
  P  P213  1  0.80660159  0.98920603  0.81545529  1
  P  P214  1  0.19478985  0.20847113  0.82557280  1
  P  P215  1  0.19364257  0.49752192  0.89611738  1
  P  P216  1  0.30629264  0.99754424  0.89612573  1
  P  P217  1  0.30592729  0.70853319  0.82557153  1
  P  P218  1  0.69348182  0.48924190  0.81544177  1
  P  P219  1  0.69176314  0.77839494  0.88530109  1
  P  P220  1  0.80774603  0.56394640  0.95687647  1
  P  P221  1  0.19497346  0.78419799  0.96451156  1
  P  P222  1  0.30497112  0.28422169  0.96450765  1
  P  P223  1  0.69206226  0.06396147  0.95689526  1
  O  O224  1  0.79648731  0.58865789  0.09922654  1
  O  O225  1  0.80827706  0.87165652  0.03034100  1
  O  O226  1  0.20176504  0.47593848  0.04840720  1
  O  O227  1  0.20505279  0.19053302  0.11910363  1
  O  O228  1  0.29457917  0.69062468  0.11909650  1
  O  O229  1  0.29834331  0.97602838  0.04839700  1
  O  O230  1  0.69243166  0.37189989  0.03016213  1
  O  O231  1  0.70365785  0.08881950  0.09912434  1
  O  O232  1  0.70813374  0.25485298  0.06003227  1
  O  O233  1  0.29401593  0.81055349  0.09039058  1
  O  O234  1  0.29625640  0.09305937  0.01871099  1
  O  O235  1  0.20379270  0.59301817  0.01872715  1
  O  O236  1  0.20548720  0.31048455  0.09040107  1
  O  O237  1  0.79149262  0.75426365  0.06007543  1
  O  O238  1  0.20458701  0.62456322  0.06258111  1
  O  O239  1  0.79773549  0.44039991  0.08447884  1
  O  O240  1  0.79558408  0.72268581  0.01674637  1
  O  O241  1  0.70450482  0.22269716  0.01674967  1
  O  O242  1  0.70198573  0.94042065  0.08446577  1
  O  O243  1  0.29543394  0.12473035  0.06254963  1
  O  O244  1  0.38002143  0.49955302  0.10407691  1
  O  O245  1  0.38037287  0.78814771  0.03534056  1
  O  O246  1  0.62068952  0.56387500  0.04303198  1
  O  O247  1  0.62058785  0.28031514  0.11489400  1
  O  O248  1  0.87895160  0.78042646  0.11490206  1
  O  O249  1  0.87939312  0.06393121  0.04301942  1
  O  O250  1  0.11975124  0.28820325  0.03533168  1
  O  O251  1  0.11977302  0.99965703  0.10404025  1
  O  O252  1  0.79493184  0.01319818  0.24005787  1
  O  O253  1  0.79590375  0.30058755  0.17002595  1
  O  O254  1  0.20243581  0.90264863  0.18934135  1
  O  O255  1  0.20418858  0.61512302  0.25969724  1
  O  O256  1  0.29564847  0.11514799  0.25966607  1
  O  O257  1  0.29754081  0.40264710  0.18933669  1
  O  O258  1  0.70398808  0.80062520  0.16997773  1
  O  O259  1  0.70508156  0.51321081  0.24005698  1
  O  O260  1  0.70423223  0.68123273  0.19895116  1
  O  O261  1  0.70314746  0.96997815  0.12837638  1
  O  O262  1  0.29640356  0.23419341  0.23054202  1
  O  O263  1  0.29715522  0.52169484  0.16013976  1
  O  O264  1  0.20266243  0.02166634  0.16013536  1
  O  O265  1  0.20346454  0.73412855  0.23054671  1
  O  O266  1  0.79648933  0.46967865  0.12841831  1
  O  O267  1  0.79575775  0.18116728  0.19897966  1
  O  O268  1  0.20102610  0.05086896  0.20406143  1
  O  O269  1  0.20088985  0.33874052  0.13427986  1
  O  O270  1  0.79687283  0.86481942  0.22532654  1
  O  O271  1  0.79791400  0.15249119  0.15501226  1
  O  O272  1  0.70204094  0.65247259  0.15499333  1
  O  O273  1  0.70307945  0.36482914  0.22532562  1
  O  O274  1  0.29867964  0.83886983  0.13425966  1
  O  O275  1  0.29900339  0.55089131  0.20406646  1
  O  O276  1  0.37867387  0.92397492  0.24476433  1
  O  O277  1  0.37964763  0.21114639  0.17465228  1
  O  O278  1  0.61875862  0.99178364  0.18446687  1
  O  O279  1  0.62004872  0.70453202  0.25491529  1
  O  O280  1  0.87984795  0.20457113  0.25491450  1
  O  O281  1  0.88122006  0.49178024  0.18447968  1
  O  O282  1  0.12026343  0.71119363  0.17462105  1
  O  O283  1  0.12131401  0.42398298  0.24476263  1
  O  O284  1  0.79462791  0.43607561  0.38079858  1
  O  O285  1  0.79628012  0.72502305  0.31038837  1
  O  O286  1  0.20256622  0.32711587  0.32978377  1
  O  O287  1  0.20308922  0.03781497  0.40073947  1
  O  O288  1  0.29702488  0.53785751  0.40076191  1
  O  O289  1  0.29729802  0.82710087  0.32978122  1
  O  O290  1  0.70359478  0.22502401  0.31038316  1
  O  O291  1  0.70545088  0.93603330  0.38078765  1
  O  O292  1  0.70306131  0.10573951  0.33947868  1
  O  O293  1  0.70540651  0.39411868  0.26922920  1
  O  O294  1  0.29717753  0.65660804  0.37142001  1
  O  O295  1  0.29568808  0.94676801  0.30087749  1
  O  O296  1  0.20413616  0.44677707  0.30088163  1
  O  O297  1  0.20281457  0.15659912  0.37140459  1
  O  O298  1  0.79456948  0.89411806  0.26923193  1
  O  O299  1  0.79673678  0.60576763  0.33949836  1
  O  O300  1  0.20137288  0.47504062  0.34486591  1
  O  O301  1  0.20202948  0.76354448  0.27448351  1
  O  O302  1  0.79782007  0.28784572  0.36550799  1
  O  O303  1  0.79638704  0.57683147  0.29559655  1
  O  O304  1  0.70336615  0.07684380  0.29557283  1
  O  O305  1  0.70214524  0.78780383  0.36550557  1
  O  O306  1  0.29795435  0.26355598  0.27448124  1
  O  O307  1  0.29857544  0.97501880  0.34486697  1
  O  O308  1  0.37836716  0.34638878  0.38483071  1
  O  O309  1  0.37950637  0.63608023  0.31533430  1
  O  O310  1  0.61953647  0.41622647  0.32527599  1
  O  O311  1  0.61963651  0.12672130  0.39571595  1
  O  O312  1  0.88037848  0.62672100  0.39572875  1
  O  O313  1  0.88034242  0.91622017  0.32527896  1
  O  O314  1  0.12027960  0.13604158  0.31531123  1
  O  O315  1  0.12166264  0.84631940  0.38483414  1
  O  O316  1  0.79979669  0.14979408  0.45166425  1
  O  O317  1  0.19153080  0.75391382  0.46950469  1
  O  O318  1  0.30849647  0.25392256  0.46950758  1
  O  O319  1  0.70019314  0.64975095  0.45167734  1
  O  O320  1  0.70378428  0.53238951  0.48136974  1
  O  O321  1  0.70714236  0.81568401  0.40939576  1
  O  O322  1  0.28994289  0.37134554  0.43978807  1
  O  O323  1  0.21006735  0.87134741  0.43978368  1
  O  O324  1  0.79286696  0.31570365  0.40939833  1
  O  O325  1  0.79623229  0.03240634  0.48135426  1
  O  O326  1  0.20395127  0.90277770  0.48313093  1
  O  O327  1  0.20203417  0.18618819  0.41531122  1
  O  O328  1  0.79635691  0.00129324  0.43746750  1
  O  O329  1  0.70374899  0.50124987  0.43748181  1
  O  O330  1  0.29790099  0.68623307  0.41532482  1
  O  O331  1  0.29611020  0.40279327  0.48312953  1
  O  O332  1  0.38021871  0.06220592  0.45697476  1
  O  O333  1  0.62004950  0.83747586  0.46465442  1
  O  O334  1  0.88001323  0.33745819  0.46466841  1
  O  O335  1  0.11981936  0.56217570  0.45699278  1
  O  O336  1  0.70428179  0.03629710  0.59930634  1
  O  O337  1  0.69142777  0.75312330  0.53051462  1
  O  O338  1  0.29950388  0.14921364  0.54840373  1
  O  O339  1  0.29393964  0.43450318  0.61903966  1
  O  O340  1  0.20598340  0.93451040  0.61905826  1
  O  O341  1  0.20052736  0.64925073  0.54840968  1
  O  O342  1  0.80842207  0.25311657  0.53051492  1
  O  O343  1  0.79561744  0.53624746  0.59928943  1
  O  O344  1  0.79026244  0.37051702  0.56023083  1
  O  O345  1  0.20643296  0.81457927  0.59039015  1
  O  O346  1  0.20338610  0.53201046  0.51871540  1
  O  O347  1  0.29657162  0.03195807  0.51871375  1
  O  O348  1  0.29352696  0.31451579  0.59038718  1
  O  O349  1  0.70960786  0.87052672  0.56023443  1
  O  O350  1  0.29694212  0.00067960  0.56258393  1
  O  O351  1  0.70241798  0.18482629  0.58475067  1
  O  O352  1  0.70337435  0.90208716  0.51689424  1
  O  O353  1  0.79669893  0.40208533  0.51689290  1
  O  O354  1  0.79768609  0.68481597  0.58474649  1
  O  O355  1  0.20300499  0.50068181  0.56258172  1
  O  O356  1  0.12051103  0.12535555  0.60422634  1
  O  O357  1  0.11955544  0.83685566  0.53532176  1
  O  O358  1  0.88034714  0.06130319  0.54310219  1
  O  O359  1  0.87879312  0.34455673  0.61500834  1
  O  O360  1  0.62123859  0.84461593  0.61500535  1
  O  O361  1  0.61964064  0.56130795  0.54310511  1
  O  O362  1  0.38032473  0.33688075  0.53531044  1
  O  O363  1  0.37954771  0.62538108  0.60420925  1
  O  O364  1  0.70499205  0.61201608  0.74028320  1
  O  O365  1  0.70364193  0.32413886  0.67005860  1
  O  O366  1  0.29635065  0.72231035  0.68946797  1
  O  O367  1  0.29553157  0.01023582  0.75992899  1
  O  O368  1  0.20447667  0.51023051  0.75992810  1
  O  O369  1  0.20368219  0.22231500  0.68947390  1
  O  O370  1  0.79632583  0.82412356  0.67003534  1
  O  O371  1  0.79510384  0.11197447  0.74028709  1
  O  O372  1  0.79636702  0.94356638  0.69902949  1
  O  O373  1  0.79602502  0.65488679  0.62863005  1
  O  O374  1  0.20365142  0.39108553  0.73077324  1
  O  O375  1  0.20368344  0.10309985  0.66034339  1
  O  O376  1  0.29628777  0.60310310  0.66033445  1
  O  O377  1  0.29640789  0.89108468  0.73077669  1
  O  O378  1  0.70403264  0.15494446  0.62864619  1
  O  O379  1  0.70372444  0.44361419  0.69903573  1
  O  O380  1  0.29819238  0.57414454  0.70429915  1
  O  O381  1  0.29887054  0.28620362  0.63424686  1
  O  O382  1  0.70283998  0.76019256  0.72541297  1
  O  O383  1  0.70001532  0.47215275  0.65502681  1
  O  O384  1  0.79994960  0.97216921  0.65502936  1
  O  O385  1  0.79737878  0.26016547  0.72542376  1
  O  O386  1  0.20120204  0.78618883  0.63424229  1
  O  O387  1  0.20175442  0.07414390  0.70430663  1
  O  O388  1  0.12091241  0.70133887  0.74500881  1
  O  O389  1  0.11920423  0.41387169  0.67459695  1
  O  O390  1  0.88020578  0.63297794  0.68464657  1
  O  O391  1  0.87974100  0.92089452  0.75511866  1
  O  O392  1  0.62028206  0.42089981  0.75511833  1
  O  O393  1  0.61977310  0.13296421  0.68466413  1
  O  O394  1  0.38080244  0.91384802  0.67459617  1
  O  O395  1  0.37930511  0.20134033  0.74501615  1
  O  O396  1  0.70640899  0.18864768  0.88103549  1
  O  O397  1  0.70411049  0.89982804  0.81069566  1
  O  O398  1  0.29684360  0.29802769  0.83015401  1
  O  O399  1  0.29615573  0.58698428  0.90083102  1
  O  O400  1  0.20378594  0.08700716  0.90084055  1
  O  O401  1  0.20397366  0.79808160  0.83016799  1
  O  O402  1  0.79619584  0.39988645  0.81067203  1
  O  O403  1  0.79384585  0.68861800  0.88104220  1
  O  O404  1  0.79658624  0.51904873  0.83985816  1
  O  O405  1  0.79595212  0.23122365  0.76937084  1
  O  O406  1  0.20309622  0.96778597  0.87171875  1
  O  O407  1  0.20378866  0.67873696  0.80112541  1
  O  O408  1  0.29669380  0.17864603  0.80112201  1
  O  O409  1  0.29687413  0.46777053  0.87171247  1
  O  O410  1  0.70435252  0.73128116  0.76936618  1
  O  O411  1  0.70350239  0.01901886  0.83987084  1
  O  O412  1  0.30014231  0.14996365  0.84513696  1
  O  O413  1  0.29775002  0.86198373  0.77471710  1
  O  O414  1  0.70231941  0.33684047  0.86576890  1
  O  O415  1  0.70265238  0.04806655  0.79592885  1
  O  O416  1  0.79731219  0.54813623  0.79591787  1
  O  O417  1  0.79803979  0.83681689  0.86579278  1
  O  O418  1  0.20229653  0.36197063  0.77471149  1
  O  O419  1  0.20036136  0.64999890  0.84512723  1
  O  O420  1  0.12166410  0.27847533  0.88515491  1
  O  O421  1  0.12015068  0.98904381  0.81563934  1
  O  O422  1  0.88122387  0.20836129  0.82554001  1
  O  O423  1  0.88004156  0.49785980  0.89598961  1
  O  O424  1  0.61989552  0.99784981  0.89600032  1
  O  O425  1  0.61948060  0.70843491  0.82553579  1
  O  O426  1  0.37990020  0.48902897  0.81563059  1
  O  O427  1  0.37856763  0.77844167  0.88517179  1
  O  O428  1  0.70179073  0.47523687  0.95174850  1
  O  O429  1  0.30870511  0.87115323  0.96966936  1
  O  O430  1  0.19124307  0.37116958  0.96966486  1
  O  O431  1  0.79809191  0.97526781  0.95175676  1
  O  O432  1  0.79577543  0.09268980  0.98136747  1
  O  O433  1  0.79392251  0.80891350  0.90963975  1
  O  O434  1  0.20818239  0.25356794  0.93995376  1
  O  O435  1  0.29173605  0.75355640  0.93995454  1
  O  O436  1  0.70624368  0.30893611  0.90962462  1
  O  O437  1  0.70412404  0.59268489  0.98135241  1
  O  O438  1  0.29584431  0.72230471  0.98329517  1
  O  O439  1  0.29810979  0.43877027  0.91562034  1
  O  O440  1  0.70425418  0.62364562  0.93746863  1
  O  O441  1  0.79545399  0.12367545  0.93748669  1
  O  O442  1  0.20177673  0.93878543  0.91562742  1
  O  O443  1  0.20409488  0.22234077  0.98329317  1
  O  O444  1  0.12081083  0.56327644  0.95703035  1
  O  O445  1  0.88073754  0.78768120  0.96466248  1
  O  O446  1  0.61918679  0.28768201  0.96465714  1
  O  O447  1  0.37900373  0.06326634  0.95705535  1
