# generated using pymatgen
data_Li3PO4
_symmetry_space_group_name_H-M   'P 1'
_cell_length_a   4.97784600
_cell_length_b   16.20967300
_cell_length_c   49.00975209
_cell_angle_alpha   90.00000000
_cell_angle_beta   90.00000000
_cell_angle_gamma   90.00000000
_symmetry_Int_Tables_number   1
_chemical_formula_structural   Li3PO4
_chemical_formula_sum   'Li144 P48 O192'
_cell_volume   3954.56042828
_cell_formula_units_Z   48
loop_
 _symmetry_equiv_pos_site_id
 _symmetry_equiv_pos_as_xyz
  1  'x, y, z'
loop_
 _atom_site_type_symbol
 _atom_site_label
 _atom_site_symmetry_multiplicity
 _atom_site_fract_x
 _atom_site_fract_y
 _atom_site_fract_z
 _atom_site_occupancy
  Li  Li0  1  0.19998708  0.63354175  0.11275443  1
  Li  Li1  1  0.18558311  0.91885171  0.03398430  1
  Li  Li2  1  0.80137154  0.49306979  0.05885121  1
  Li  Li3  1  0.69784607  0.99300353  0.05881444  1
  Li  Li4  1  0.31409558  0.41887154  0.03404343  1
  Li  Li5  1  0.29961424  0.13352456  0.11271951  1
  Li  Li6  1  0.30122059  0.27754255  0.07336289  1
  Li  Li7  1  0.69599885  0.85080585  0.10137056  1
  Li  Li8  1  0.69325309  0.13188285  0.01723532  1
  Li  Li9  1  0.80663867  0.63187429  0.01723916  1
  Li  Li10  1  0.80353307  0.35133838  0.10154602  1
  Li  Li11  1  0.19812940  0.77756357  0.07333307  1
  Li  Li12  1  0.79811824  0.66625745  0.07727702  1
  Li  Li13  1  0.20193546  0.46106555  0.09464394  1
  Li  Li14  1  0.18736702  0.74652771  0.01712673  1
  Li  Li15  1  0.31256097  0.24654561  0.01713265  1
  Li  Li16  1  0.29803220  0.96104103  0.09463642  1
  Li  Li17  1  0.70195690  0.16628992  0.07725931  1
  Li  Li18  1  0.19795731  0.05824410  0.27704498  1
  Li  Li19  1  0.19790702  0.34625372  0.19553286  1
  Li  Li20  1  0.80031098  0.92115677  0.22329152  1
  Li  Li21  1  0.80155680  0.20785603  0.14116985  1
  Li  Li22  1  0.69812020  0.70791058  0.14119016  1
  Li  Li23  1  0.69958479  0.42118422  0.22331132  1
  Li  Li24  1  0.30159936  0.84600929  0.19545024  1
  Li  Li25  1  0.30197598  0.55822758  0.27705774  1
  Li  Li26  1  0.30189785  0.70305938  0.23586757  1
  Li  Li27  1  0.30131978  0.99133981  0.15382994  1
  Li  Li28  1  0.69731027  0.27594328  0.26437094  1
  Li  Li29  1  0.69806472  0.56371757  0.18243482  1
  Li  Li30  1  0.80170503  0.06372454  0.18241060  1
  Li  Li31  1  0.80262918  0.77594513  0.26436501  1
  Li  Li32  1  0.19756980  0.49094504  0.15382606  1
  Li  Li33  1  0.19768896  0.20314463  0.23588159  1
  Li  Li34  1  0.79616791  0.09317379  0.24190787  1
  Li  Li35  1  0.79814887  0.38135487  0.16037103  1
  Li  Li36  1  0.20244356  0.88628285  0.25837301  1
  Li  Li37  1  0.20291780  0.17369627  0.17647835  1
  Li  Li38  1  0.29687917  0.67350189  0.17643414  1
  Li  Li39  1  0.29753012  0.38629509  0.25839404  1
  Li  Li40  1  0.70177321  0.88140618  0.16034002  1
  Li  Li41  1  0.70388521  0.59323061  0.24196497  1
  Li  Li42  1  0.19996924  0.48393750  0.44127989  1
  Li  Li43  1  0.19707051  0.77006165  0.35891759  1
  Li  Li44  1  0.80038663  0.34431698  0.38749179  1
  Li  Li45  1  0.80033336  0.63325707  0.30479631  1
  Li  Li46  1  0.69945872  0.13323315  0.30477757  1
  Li  Li47  1  0.69948448  0.84429721  0.38748469  1
  Li  Li48  1  0.30220397  0.27002896  0.35891739  1
  Li  Li49  1  0.29995334  0.98394648  0.44126977  1
  Li  Li50  1  0.30433670  0.12643629  0.39849204  1
  Li  Li51  1  0.30161609  0.41506026  0.31773886  1
  Li  Li52  1  0.69648676  0.69996172  0.42673897  1
  Li  Li53  1  0.69751173  0.98715889  0.34635513  1
  Li  Li54  1  0.80249186  0.48727618  0.34641868  1
  Li  Li55  1  0.80349376  0.19995621  0.42673856  1
  Li  Li56  1  0.19843827  0.91510576  0.31766646  1
  Li  Li57  1  0.19538305  0.62635648  0.39849972  1
  Li  Li58  1  0.79566626  0.51693192  0.40584329  1
  Li  Li59  1  0.79509459  0.80551588  0.32393173  1
  Li  Li60  1  0.20236418  0.31123286  0.42272956  1
  Li  Li61  1  0.20098867  0.59669610  0.33968339  1
  Li  Li62  1  0.29837541  0.09658685  0.33965602  1
  Li  Li63  1  0.29762772  0.81119383  0.42269136  1
  Li  Li64  1  0.70483925  0.30551018  0.32393696  1
  Li  Li65  1  0.70159107  0.01702638  0.40559181  1
  Li  Li66  1  0.81337102  0.05783125  0.46615731  1
  Li  Li67  1  0.68665991  0.55784680  0.46618817  1
  Li  Li68  1  0.30536602  0.84412161  0.48265747  1
  Li  Li69  1  0.19484690  0.34417275  0.48269405  1
  Li  Li70  1  0.81367941  0.22957100  0.48281189  1
  Li  Li71  1  0.68635990  0.72957879  0.48280260  1
  Li  Li72  1  0.30078084  0.34031873  0.61273389  1
  Li  Li73  1  0.31491268  0.05701667  0.53403771  1
  Li  Li74  1  0.69928730  0.48197557  0.55876154  1
  Li  Li75  1  0.80105496  0.98201957  0.55877384  1
  Li  Li76  1  0.18561532  0.55683447  0.53408262  1
  Li  Li77  1  0.19958136  0.84039162  0.61270307  1
  Li  Li78  1  0.19805549  0.69769365  0.57355014  1
  Li  Li79  1  0.80492336  0.12321896  0.60149972  1
  Li  Li80  1  0.80669023  0.84321670  0.51725506  1
  Li  Li81  1  0.69353186  0.34311419  0.51733315  1
  Li  Li82  1  0.69531231  0.62318791  0.60148028  1
  Li  Li83  1  0.30347729  0.19768629  0.57366389  1
  Li  Li84  1  0.70395209  0.30953366  0.57731583  1
  Li  Li85  1  0.29879711  0.51246286  0.59465727  1
  Li  Li86  1  0.31269379  0.22890383  0.51736571  1
  Li  Li87  1  0.18733093  0.72897296  0.51733549  1
  Li  Li88  1  0.20350185  0.01321833  0.59464238  1
  Li  Li89  1  0.79635185  0.80961292  0.57728809  1
  Li  Li90  1  0.30051424  0.91576608  0.77665883  1
  Li  Li91  1  0.30275926  0.62780812  0.69541788  1
  Li  Li92  1  0.69824665  0.05346936  0.72295213  1
  Li  Li93  1  0.69959140  0.76634249  0.64116523  1
  Li  Li94  1  0.80080449  0.26632691  0.64122948  1
  Li  Li95  1  0.80256459  0.55367483  0.72306073  1
  Li  Li96  1  0.19737845  0.12781077  0.69542667  1
  Li  Li97  1  0.19955161  0.41577440  0.77667103  1
  Li  Li98  1  0.19975172  0.27089316  0.73570490  1
  Li  Li99  1  0.19890623  0.98280965  0.65386034  1
  Li  Li100  1  0.80261057  0.69893766  0.76424327  1
  Li  Li101  1  0.80300200  0.41039756  0.68230550  1
  Li  Li102  1  0.69720741  0.91041496  0.68227914  1
  Li  Li103  1  0.69743841  0.19891010  0.76424776  1
  Li  Li104  1  0.30134060  0.48278289  0.65386658  1
  Li  Li105  1  0.30044602  0.77088788  0.73563810  1
  Li  Li106  1  0.70215816  0.88098133  0.74163999  1
  Li  Li107  1  0.70162031  0.59274443  0.66035606  1
  Li  Li108  1  0.29919124  0.08872364  0.75825904  1
  Li  Li109  1  0.29867679  0.80023274  0.67631854  1
  Li  Li110  1  0.20210143  0.30022548  0.67643393  1
  Li  Li111  1  0.20107325  0.58877959  0.75828198  1
  Li  Li112  1  0.79875943  0.09269248  0.66037894  1
  Li  Li113  1  0.79784044  0.38107816  0.74171562  1
  Li  Li114  1  0.30157106  0.49219544  0.94100152  1
  Li  Li115  1  0.30014837  0.20492823  0.85863939  1
  Li  Li116  1  0.70032051  0.63229293  0.88733589  1
  Li  Li117  1  0.69793974  0.34218530  0.80447005  1
  Li  Li118  1  0.80207285  0.84219322  0.80446358  1
  Li  Li119  1  0.79961421  0.13228980  0.88732846  1
  Li  Li120  1  0.19987110  0.70491433  0.85864064  1
  Li  Li121  1  0.19844067  0.99220288  0.94100649  1
  Li  Li122  1  0.19548268  0.84853503  0.89816607  1
  Li  Li123  1  0.19803579  0.55925563  0.81741046  1
  Li  Li124  1  0.80293582  0.27678175  0.92650131  1
  Li  Li125  1  0.80248006  0.98822163  0.84626893  1
  Li  Li126  1  0.69756912  0.48822759  0.84627490  1
  Li  Li127  1  0.69718571  0.77680922  0.92648523  1
  Li  Li128  1  0.30255648  0.05924556  0.81742575  1
  Li  Li129  1  0.30436450  0.34852402  0.89817875  1
  Li  Li130  1  0.70403382  0.45841056  0.90534693  1
  Li  Li131  1  0.70375192  0.16928254  0.82345316  1
  Li  Li132  1  0.29609045  0.66466111  0.92257939  1
  Li  Li133  1  0.30119599  0.37838194  0.83937635  1
  Li  Li134  1  0.19898313  0.87831325  0.83935316  1
  Li  Li135  1  0.20381770  0.16443347  0.92245832  1
  Li  Li136  1  0.79641391  0.66927651  0.82346144  1
  Li  Li137  1  0.79594191  0.95842564  0.90535199  1
  Li  Li138  1  0.68590381  0.91860093  0.96598285  1
  Li  Li139  1  0.81400893  0.41859940  0.96595669  1
  Li  Li140  1  0.19383532  0.13157723  0.98252053  1
  Li  Li141  1  0.30610855  0.63156166  0.98253211  1
  Li  Li142  1  0.68624079  0.74656970  0.98268633  1
  Li  Li143  1  0.81363653  0.24665126  0.98273881  1
  P  P144  1  0.69437615  0.53074949  0.12115094  1
  P  P145  1  0.69490142  0.81658321  0.04118163  1
  P  P146  1  0.30771087  0.59624975  0.05029992  1
  P  P147  1  0.19199572  0.09622595  0.05026755  1
  P  P148  1  0.80495692  0.31665030  0.04122972  1
  P  P149  1  0.80525156  0.03064261  0.12109707  1
  P  P150  1  0.69349460  0.95530039  0.28514814  1
  P  P151  1  0.69344799  0.24300967  0.20331080  1
  P  P152  1  0.30573900  0.02386720  0.21507038  1
  P  P153  1  0.30736968  0.31143745  0.13369840  1
  P  P154  1  0.19240297  0.81145387  0.13367498  1
  P  P155  1  0.19401722  0.52388191  0.21509405  1
  P  P156  1  0.80622621  0.74292473  0.20329886  1
  P  P157  1  0.80646180  0.45525594  0.28519460  1
  P  P158  1  0.69300562  0.38059791  0.44983759  1
  P  P159  1  0.69161124  0.66648452  0.36644461  1
  P  P160  1  0.30530760  0.44730365  0.37903376  1
  P  P161  1  0.30547870  0.73624857  0.29688984  1
  P  P162  1  0.19439206  0.23624214  0.29689827  1
  P  P163  1  0.19421943  0.94727310  0.37898970  1
  P  P164  1  0.80802348  0.16649848  0.36643111  1
  P  P165  1  0.80692096  0.88062169  0.44978895  1
  P  P166  1  0.30538805  0.16034515  0.45872390  1
  P  P167  1  0.19466944  0.66033613  0.45871665  1
  P  P168  1  0.80611235  0.44342800  0.62114074  1
  P  P169  1  0.80614867  0.15902842  0.54136873  1
  P  P170  1  0.19303328  0.37911287  0.55030658  1
  P  P171  1  0.30729475  0.87924222  0.55027474  1
  P  P172  1  0.69438865  0.65903099  0.54132213  1
  P  P173  1  0.69438457  0.94357383  0.62112408  1
  P  P174  1  0.80653992  0.01935776  0.78484862  1
  P  P175  1  0.80666416  0.73120339  0.70315800  1
  P  P176  1  0.19323773  0.95022003  0.71489775  1
  P  P177  1  0.19252577  0.66239558  0.63369574  1
  P  P178  1  0.30787059  0.16245843  0.63374013  1
  P  P179  1  0.30717829  0.45027448  0.71494101  1
  P  P180  1  0.69370711  0.23118492  0.70320844  1
  P  P181  1  0.69360238  0.51938592  0.78487263  1
  P  P182  1  0.80729982  0.59555929  0.94962194  1
  P  P183  1  0.80792814  0.30896457  0.86606419  1
  P  P184  1  0.19470073  0.52821529  0.87880249  1
  P  P185  1  0.19377716  0.23857810  0.79669566  1
  P  P186  1  0.30628858  0.73858347  0.79668473  1
  P  P187  1  0.30528786  0.02817515  0.87878818  1
  P  P188  1  0.69207598  0.80896337  0.86605790  1
  P  P189  1  0.69263684  0.09556697  0.94961183  1
  P  P190  1  0.19447629  0.81589245  0.95852850  1
  P  P191  1  0.30549809  0.31580295  0.95850505  1
  O  O192  1  0.79687624  0.62009060  0.11545252  1
  O  O193  1  0.80803309  0.90362165  0.03521163  1
  O  O194  1  0.20205463  0.50760974  0.05645364  1
  O  O195  1  0.29780918  0.00760244  0.05641500  1
  O  O196  1  0.69180713  0.40367414  0.03522881  1
  O  O197  1  0.70271758  0.11998801  0.11538464  1
  O  O198  1  0.70793484  0.28645355  0.06985720  1
  O  O199  1  0.29435997  0.84157711  0.10528629  1
  O  O200  1  0.29587354  0.12448839  0.02174218  1
  O  O201  1  0.20381389  0.62448141  0.02177384  1
  O  O202  1  0.20557784  0.34170717  0.10532257  1
  O  O203  1  0.79205492  0.78627666  0.06979253  1
  O  O204  1  0.20450473  0.65625937  0.07280909  1
  O  O205  1  0.79887952  0.47162867  0.09855174  1
  O  O206  1  0.79583946  0.75445700  0.01940059  1
  O  O207  1  0.70399267  0.25449234  0.01945667  1
  O  O208  1  0.70090041  0.97146447  0.09851276  1
  O  O209  1  0.29513889  0.15626916  0.07277029  1
  O  O210  1  0.38074784  0.53087737  0.12127091  1
  O  O211  1  0.38059506  0.81979730  0.04102364  1
  O  O212  1  0.62082171  0.59556879  0.05010203  1
  O  O213  1  0.87888001  0.09548065  0.05007658  1
  O  O214  1  0.11928868  0.31982814  0.04105474  1
  O  O215  1  0.11890603  0.03082948  0.12121289  1
  O  O216  1  0.79627978  0.04464625  0.27959979  1
  O  O217  1  0.79595302  0.33254814  0.19803114  1
  O  O218  1  0.20333040  0.93449261  0.22064220  1
  O  O219  1  0.20474696  0.22172403  0.13868721  1
  O  O220  1  0.29500128  0.72175612  0.13870706  1
  O  O221  1  0.29636170  0.43450885  0.22068626  1
  O  O222  1  0.70375876  0.83245444  0.19800458  1
  O  O223  1  0.70354210  0.54459642  0.27965671  1
  O  O224  1  0.70390197  0.71303998  0.23172000  1
  O  O225  1  0.70272606  0.00150918  0.14959654  1
  O  O226  1  0.29655548  0.26628383  0.26849922  1
  O  O227  1  0.29692301  0.55326657  0.18663961  1
  O  O228  1  0.20282947  0.05338979  0.18662973  1
  O  O229  1  0.20328934  0.76627951  0.26849043  1
  O  O230  1  0.79705301  0.50149535  0.14962869  1
  O  O231  1  0.79589431  0.21306064  0.23171855  1
  O  O232  1  0.20135994  0.08273044  0.23776372  1
  O  O233  1  0.20130473  0.37005146  0.15637711  1
  O  O234  1  0.79724827  0.89647468  0.26242713  1
  O  O235  1  0.79829765  0.18435047  0.18056235  1
  O  O236  1  0.70125102  0.68423325  0.18056138  1
  O  O237  1  0.70273411  0.39646655  0.26246024  1
  O  O238  1  0.29830413  0.87015398  0.15633705  1
  O  O239  1  0.29846816  0.58273917  0.23778470  1
  O  O240  1  0.37992708  0.95555973  0.28529952  1
  O  O241  1  0.37991640  0.24305018  0.20336455  1
  O  O242  1  0.61929595  0.02379616  0.21491649  1
  O  O243  1  0.62061054  0.31146482  0.13385326  1
  O  O244  1  0.87915280  0.81146604  0.13379939  1
  O  O245  1  0.88044839  0.52384605  0.21495267  1
  O  O246  1  0.11975539  0.74291023  0.20333599  1
  O  O247  1  0.12003015  0.45554849  0.28534356  1
  O  O248  1  0.79895744  0.46925246  0.44380434  1
  O  O249  1  0.79436823  0.75620567  0.36150949  1
  O  O250  1  0.20284057  0.35791295  0.38466185  1
  O  O251  1  0.20308784  0.64669802  0.30214886  1
  O  O252  1  0.29683369  0.14668384  0.30214722  1
  O  O253  1  0.29674931  0.85790499  0.38463779  1
  O  O254  1  0.70538608  0.25623177  0.36150743  1
  O  O255  1  0.70085750  0.96926155  0.44375304  1
  O  O256  1  0.70642225  0.13600633  0.39478318  1
  O  O257  1  0.70350741  0.42548490  0.31360322  1
  O  O258  1  0.29137094  0.69106310  0.43014908  1
  O  O259  1  0.29689170  0.97675415  0.35053440  1
  O  O260  1  0.20272485  0.47681917  0.35058181  1
  O  O261  1  0.20860597  0.19106559  0.43015892  1
  O  O262  1  0.79646522  0.92555111  0.31355561  1
  O  O263  1  0.79308597  0.63594893  0.39479547  1
  O  O264  1  0.20055783  0.50620208  0.40167623  1
  O  O265  1  0.20021338  0.79469102  0.31966742  1
  O  O266  1  0.79604637  0.32087039  0.42725564  1
  O  O267  1  0.79795785  0.60806918  0.34373381  1
  O  O268  1  0.70167536  0.10805463  0.34372517  1
  O  O269  1  0.70391454  0.82084626  0.42721690  1
  O  O270  1  0.29970933  0.29467492  0.31967773  1
  O  O271  1  0.29894410  0.00624204  0.40161772  1
  O  O272  1  0.37994992  0.38144920  0.44998905  1
  O  O273  1  0.37836997  0.66650361  0.36623651  1
  O  O274  1  0.61895079  0.44712225  0.37894871  1
  O  O275  1  0.61899915  0.73627975  0.29686137  1
  O  O276  1  0.88089454  0.23626345  0.29687362  1
  O  O277  1  0.88058042  0.94708047  0.37890135  1
  O  O278  1  0.12126198  0.16647158  0.36623198  1
  O  O279  1  0.11999026  0.88146453  0.44994726  1
  O  O280  1  0.19121897  0.07342445  0.46465559  1
  O  O281  1  0.30889004  0.57341613  0.46464525  1
  O  O282  1  0.70344223  0.85181317  0.47826239  1
  O  O283  1  0.79652517  0.35179636  0.47830716  1
  O  O284  1  0.20470761  0.22225643  0.48057305  1
  O  O285  1  0.29538549  0.72224343  0.48056156  1
  O  O286  1  0.61964249  0.15685825  0.45886949  1
  O  O287  1  0.88040125  0.65683432  0.45886820  1
  O  O288  1  0.70302064  0.35414789  0.61547301  1
  O  O289  1  0.69315069  0.07198628  0.53533586  1
  O  O290  1  0.29845906  0.46777260  0.55644342  1
  O  O291  1  0.20189897  0.96789653  0.55642578  1
  O  O292  1  0.80740045  0.57198208  0.53530226  1
  O  O293  1  0.79756413  0.85431018  0.61545440  1
  O  O294  1  0.79131590  0.68915969  0.56995762  1
  O  O295  1  0.20635852  0.13238427  0.60533301  1
  O  O296  1  0.20307278  0.85111881  0.52176636  1
  O  O297  1  0.29713662  0.35099713  0.52179836  1
  O  O298  1  0.29411436  0.63223067  0.60530346  1
  O  O299  1  0.70903676  0.18915044  0.57000122  1
  O  O300  1  0.29612943  0.31904338  0.57280181  1
  O  O301  1  0.70237776  0.50260861  0.59852939  1
  O  O302  1  0.70500522  0.22115068  0.51958335  1
  O  O303  1  0.79552463  0.72116826  0.51954388  1
  O  O304  1  0.79813240  0.00280054  0.59852906  1
  O  O305  1  0.20438431  0.81910297  0.57275916  1
  O  O306  1  0.11972464  0.44292721  0.62128415  1
  O  O307  1  0.12045365  0.15584823  0.54122284  1
  O  O308  1  0.88001642  0.37979871  0.55010739  1
  O  O309  1  0.62034180  0.87993010  0.55005919  1
  O  O310  1  0.38010045  0.65578716  0.54114374  1
  O  O311  1  0.38077374  0.94306411  0.62125480  1
  O  O312  1  0.70312946  0.93011528  0.77924213  1
  O  O313  1  0.70360929  0.64176696  0.69788509  1
  O  O314  1  0.29669534  0.03948047  0.72046317  1
  O  O315  1  0.29528739  0.75212985  0.63868522  1
  O  O316  1  0.20515952  0.25217393  0.63874382  1
  O  O317  1  0.20367210  0.53953264  0.72050287  1
  O  O318  1  0.79685367  0.14177464  0.69789687  1
  O  O319  1  0.79698735  0.43014442  0.77927038  1
  O  O320  1  0.79646307  0.26132212  0.73157237  1
  O  O321  1  0.79700001  0.97288496  0.64959255  1
  O  O322  1  0.20377242  0.70835937  0.76831560  1
  O  O323  1  0.20370101  0.42048050  0.68655585  1
  O  O324  1  0.29672531  0.92044513  0.68651178  1
  O  O325  1  0.29631204  0.20831782  0.76833137  1
  O  O326  1  0.70331107  0.47279154  0.64959474  1
  O  O327  1  0.70394965  0.76132608  0.73152875  1
  O  O328  1  0.29641704  0.89121267  0.73760099  1
  O  O329  1  0.29854476  0.60374336  0.65635484  1
  O  O330  1  0.70334434  0.07839286  0.76215383  1
  O  O331  1  0.70254200  0.78985423  0.68039172  1
  O  O332  1  0.79771050  0.28987901  0.68044868  1
  O  O333  1  0.79686910  0.57843714  0.76218850  1
  O  O334  1  0.20179166  0.10375167  0.65637470  1
  O  O335  1  0.20391357  0.39126512  0.73764482  1
  O  O336  1  0.12011348  0.01888729  0.78505686  1
  O  O337  1  0.12013124  0.73091686  0.70320804  1
  O  O338  1  0.87972868  0.95063475  0.71471381  1
  O  O339  1  0.87927297  0.66244996  0.63384533  1
  O  O340  1  0.62110498  0.16245934  0.63388479  1
  O  O341  1  0.62067682  0.45070927  0.71476175  1
  O  O342  1  0.38024686  0.23081807  0.70327913  1
  O  O343  1  0.38005150  0.51890534  0.78506307  1
  O  O344  1  0.70107748  0.50697130  0.94353309  1
  O  O345  1  0.70446853  0.21933188  0.86112041  1
  O  O346  1  0.29841052  0.61747084  0.88444295  1
  O  O347  1  0.29758822  0.32797100  0.80194603  1
  O  O348  1  0.20249119  0.82796573  0.80194205  1
  O  O349  1  0.20149830  0.11743112  0.88441040  1
  O  O350  1  0.79553231  0.71933130  0.86111924  1
  O  O351  1  0.79886325  0.00695572  0.94354046  1
  O  O352  1  0.79357505  0.83961407  0.89439875  1
  O  O353  1  0.79682995  0.54921754  0.81326040  1
  O  O354  1  0.20910285  0.28485102  0.92994115  1
  O  O355  1  0.20297491  0.99838006  0.85035966  1
  O  O356  1  0.29706241  0.49843926  0.85036774  1
  O  O357  1  0.29099189  0.78501512  0.92995897  1
  O  O358  1  0.70325602  0.04919627  0.81323799  1
  O  O359  1  0.70642090  0.33960476  0.89440662  1
  O  O360  1  0.29827164  0.46905918  0.90143386  1
  O  O361  1  0.29774600  0.17989977  0.81945648  1
  O  O362  1  0.70457032  0.65548584  0.92707346  1
  O  O363  1  0.70221535  0.36754173  0.84337709  1
  O  O364  1  0.79779918  0.86753094  0.84336993  1
  O  O365  1  0.79538984  0.15543472  0.92704411  1
  O  O366  1  0.20228540  0.67989516  0.81944020  1
  O  O367  1  0.20169101  0.96906268  0.90143109  1
  O  O368  1  0.12045347  0.59451358  0.94980354  1
  O  O369  1  0.12112626  0.30877920  0.86589040  1
  O  O370  1  0.88103645  0.52896515  0.87869640  1
  O  O371  1  0.88026852  0.23900736  0.79661390  1
  O  O372  1  0.61978186  0.73900750  0.79660821  1
  O  O373  1  0.61894189  0.02895465  0.87868868  1
  O  O374  1  0.37889014  0.80876621  0.86588572  1
  O  O375  1  0.37946464  0.09452625  0.94978319  1
  O  O376  1  0.30890287  0.90279050  0.96444404  1
  O  O377  1  0.19102419  0.40272116  0.96437751  1
  O  O378  1  0.79606205  0.12425805  0.97810412  1
  O  O379  1  0.70382814  0.62420395  0.97811744  1
  O  O380  1  0.29505488  0.75390593  0.98037203  1
  O  O381  1  0.20484994  0.25391340  0.98037333  1
  O  O382  1  0.88018172  0.81949287  0.95868570  1
  O  O383  1  0.61979794  0.31943611  0.95868602  1
