# generated using pymatgen
data_Li3PO4
_symmetry_space_group_name_H-M   'P 1'
_cell_length_a   4.97784600
_cell_length_b   16.20967300
_cell_length_c   57.02377580
_cell_angle_alpha   90.00000000
_cell_angle_beta   90.00000000
_cell_angle_gamma   90.00000000
_symmetry_Int_Tables_number   1
_chemical_formula_structural   Li3PO4
_chemical_formula_sum   'Li168 P56 O224'
_cell_volume   4601.20603829
_cell_formula_units_Z   56
loop_
 _symmetry_equiv_pos_site_id
 _symmetry_equiv_pos_as_xyz
  1  'x, y, z'
loop_
 _atom_site_type_symbol
 _atom_site_label
 _atom_site_symmetry_multiplicity
 _atom_site_fract_x
 _atom_site_fract_y
 _atom_site_fract_z
 _atom_site_occupancy
  Li  Li0  1  0.19733679  0.58762896  0.09662060  1
  Li  Li1  1  0.18559116  0.87238659  0.02904002  1
  Li  Li2  1  0.80151281  0.44655967  0.05053238  1
  Li  Li3  1  0.80345443  0.16279429  0.12122036  1
  Li  Li4  1  0.69655933  0.66278859  0.12121796  1
  Li  Li5  1  0.69842379  0.94657677  0.05053008  1
  Li  Li6  1  0.31435278  0.37241853  0.02901739  1
  Li  Li7  1  0.30297740  0.08773877  0.09662783  1
  Li  Li8  1  0.30376445  0.23155094  0.06300575  1
  Li  Li9  1  0.69452838  0.80531515  0.08740098  1
  Li  Li10  1  0.69312094  0.08584173  0.01500372  1
  Li  Li11  1  0.80687455  0.58584562  0.01499833  1
  Li  Li12  1  0.80549270  0.30531594  0.08740169  1
  Li  Li13  1  0.19625352  0.73154096  0.06300687  1
  Li  Li14  1  0.79527469  0.61910001  0.06637572  1
  Li  Li15  1  0.20089649  0.41521854  0.08122590  1
  Li  Li16  1  0.18858787  0.70032351  0.01464152  1
  Li  Li17  1  0.31141439  0.20032407  0.01464405  1
  Li  Li18  1  0.29912807  0.91523716  0.08123031  1
  Li  Li19  1  0.70511218  0.11922126  0.06636757  1
  Li  Li20  1  0.19673330  0.01278101  0.23799018  1
  Li  Li21  1  0.19937715  0.30000346  0.16769719  1
  Li  Li22  1  0.80268900  0.87505440  0.19153491  1
  Li  Li23  1  0.80317738  0.58723724  0.26200601  1
  Li  Li24  1  0.69679281  0.08724078  0.26200760  1
  Li  Li25  1  0.69730682  0.37505439  0.19153396  1
  Li  Li26  1  0.30062932  0.80000043  0.16769755  1
  Li  Li27  1  0.30324603  0.51278132  0.23799032  1
  Li  Li28  1  0.30196797  0.65750229  0.20253286  1
  Li  Li29  1  0.30150850  0.94564510  0.13212341  1
  Li  Li30  1  0.69754471  0.23033639  0.22720260  1
  Li  Li31  1  0.69712139  0.51775948  0.15642862  1
  Li  Li32  1  0.80288383  0.01776140  0.15642939  1
  Li  Li33  1  0.80242577  0.73033435  0.22720311  1
  Li  Li34  1  0.19864106  0.44573154  0.13211647  1
  Li  Li35  1  0.19801806  0.15750199  0.20253226  1
  Li  Li36  1  0.79636671  0.04704985  0.20774331  1
  Li  Li37  1  0.79927452  0.33551805  0.13786555  1
  Li  Li38  1  0.20156529  0.84026342  0.22186884  1
  Li  Li39  1  0.20573496  0.12762833  0.15130953  1
  Li  Li40  1  0.29426004  0.62762972  0.15131038  1
  Li  Li41  1  0.29841217  0.34026426  0.22186913  1
  Li  Li42  1  0.70076152  0.83551598  0.13786530  1
  Li  Li43  1  0.70362709  0.54704532  0.20774272  1
  Li  Li44  1  0.19712137  0.43733667  0.37879088  1
  Li  Li45  1  0.19728746  0.72497677  0.30846263  1
  Li  Li46  1  0.80062975  0.30002102  0.33229858  1
  Li  Li47  1  0.80275096  0.01242053  0.40333103  1
  Li  Li48  1  0.69734248  0.51240234  0.40339007  1
  Li  Li49  1  0.69920538  0.80002683  0.33231420  1
  Li  Li50  1  0.30270328  0.22496784  0.30845946  1
  Li  Li51  1  0.30338582  0.93721834  0.37877468  1
  Li  Li52  1  0.30214736  0.08215467  0.34353119  1
  Li  Li53  1  0.30240587  0.36967667  0.27279579  1
  Li  Li54  1  0.69864206  0.65428762  0.36788682  1
  Li  Li55  1  0.69796811  0.94250812  0.29746485  1
  Li  Li56  1  0.80207939  0.44254842  0.29745803  1
  Li  Li57  1  0.80259529  0.15497955  0.36784123  1
  Li  Li58  1  0.19756198  0.86967484  0.27279486  1
  Li  Li59  1  0.19817258  0.58204874  0.34351053  1
  Li  Li60  1  0.79516432  0.47265446  0.34863074  1
  Li  Li61  1  0.79843900  0.75985639  0.27812399  1
  Li  Li62  1  0.20177389  0.26434277  0.36219637  1
  Li  Li63  1  0.20366030  0.55296483  0.29224983  1
  Li  Li64  1  0.29632145  0.05296077  0.29224967  1
  Li  Li65  1  0.29774533  0.76420776  0.36218510  1
  Li  Li66  1  0.70152786  0.25986298  0.27812064  1
  Li  Li67  1  0.70459878  0.97282791  0.34862330  1
  Li  Li68  1  0.19839952  0.15341698  0.44945880  1
  Li  Li69  1  0.81435317  0.72757723  0.47098173  1
  Li  Li70  1  0.68566819  0.22755743  0.47098463  1
  Li  Li71  1  0.30175719  0.65338379  0.44947853  1
  Li  Li72  1  0.30651885  0.51376126  0.48504254  1
  Li  Li73  1  0.30539049  0.79472717  0.41260023  1
  Li  Li74  1  0.69628952  0.36846105  0.43699644  1
  Li  Li75  1  0.80371379  0.86847094  0.43698895  1
  Li  Li76  1  0.19465825  0.29472379  0.41259770  1
  Li  Li77  1  0.19353212  0.01375869  0.48503132  1
  Li  Li78  1  0.81104239  0.89962602  0.48534795  1
  Li  Li79  1  0.79896799  0.18486197  0.41877192  1
  Li  Li80  1  0.20472434  0.98091317  0.43361735  1
  Li  Li81  1  0.29492370  0.48076885  0.43364106  1
  Li  Li82  1  0.70087878  0.68481237  0.41878059  1
  Li  Li83  1  0.68896697  0.39962206  0.48535036  1
  Li  Li84  1  0.30299262  0.01225983  0.59663251  1
  Li  Li85  1  0.31426980  0.72757418  0.52902323  1
  Li  Li86  1  0.69844844  0.15341472  0.55053182  1
  Li  Li87  1  0.69652942  0.43720175  0.62121960  1
  Li  Li88  1  0.80346752  0.93720026  0.62122113  1
  Li  Li89  1  0.80129328  0.65332551  0.55054424  1
  Li  Li90  1  0.18563471  0.22756251  0.52901969  1
  Li  Li91  1  0.19701109  0.51226250  0.59663299  1
  Li  Li92  1  0.19620733  0.36843952  0.56300987  1
  Li  Li93  1  0.80548297  0.79467017  0.58740600  1
  Li  Li94  1  0.80681417  0.51413750  0.51501068  1
  Li  Li95  1  0.69319323  0.01414210  0.51500365  1
  Li  Li96  1  0.69451337  0.29467163  0.58740527  1
  Li  Li97  1  0.30378464  0.86845351  0.56301443  1
  Li  Li98  1  0.70512030  0.98077748  0.56637240  1
  Li  Li99  1  0.29912493  0.18477023  0.58123006  1
  Li  Li100  1  0.31152428  0.89961332  0.51466467  1
  Li  Li101  1  0.18854271  0.39964513  0.51465724  1
  Li  Li102  1  0.20083191  0.68475573  0.58123516  1
  Li  Li103  1  0.79466614  0.48071721  0.56638640  1
  Li  Li104  1  0.30326929  0.58722519  0.73800040  1
  Li  Li105  1  0.30063134  0.29999679  0.66769900  1
  Li  Li106  1  0.69733487  0.72493406  0.69153434  1
  Li  Li107  1  0.69677647  0.01276528  0.76200112  1
  Li  Li108  1  0.80304972  0.51272379  0.76210570  1
  Li  Li109  1  0.80270447  0.22494396  0.69153576  1
  Li  Li110  1  0.19940190  0.79999834  0.66769906  1
  Li  Li111  1  0.19676007  0.08722842  0.73798679  1
  Li  Li112  1  0.19810598  0.94250512  0.70253257  1
  Li  Li113  1  0.19848125  0.65421857  0.63213482  1
  Li  Li114  1  0.80242029  0.36967406  0.72720822  1
  Li  Li115  1  0.80294264  0.08225078  0.65642883  1
  Li  Li116  1  0.69805395  0.58201146  0.65650306  1
  Li  Li117  1  0.69890579  0.86956849  0.72717268  1
  Li  Li118  1  0.30204141  0.15432779  0.63210425  1
  Li  Li119  1  0.30199490  0.44250847  0.70253622  1
  Li  Li120  1  0.70355370  0.55294643  0.70777304  1
  Li  Li121  1  0.70079765  0.26448397  0.63787519  1
  Li  Li122  1  0.29869847  0.75980039  0.72187537  1
  Li  Li123  1  0.29431188  0.47238571  0.65130964  1
  Li  Li124  1  0.20575640  0.97238117  0.65130801  1
  Li  Li125  1  0.20158530  0.25974175  0.72186969  1
  Li  Li126  1  0.79923401  0.76445924  0.63787625  1
  Li  Li127  1  0.79638552  0.05296225  0.70774266  1
  Li  Li128  1  0.30335957  0.16277953  0.87878089  1
  Li  Li129  1  0.30269426  0.87505440  0.80846245  1
  Li  Li130  1  0.69936821  0.29999192  0.83231516  1
  Li  Li131  1  0.69700031  0.58774435  0.90336635  1
  Li  Li132  1  0.80267065  0.08761596  0.90337701  1
  Li  Li133  1  0.80062781  0.79998774  0.83230383  1
  Li  Li134  1  0.19727356  0.37504319  0.80846479  1
  Li  Li135  1  0.19660409  0.66278676  0.87877267  1
  Li  Li136  1  0.19711157  0.51774147  0.84356958  1
  Li  Li137  1  0.19756882  0.23032879  0.77279598  1
  Li  Li138  1  0.80124360  0.94572642  0.86787897  1
  Li  Li139  1  0.80202220  0.65751521  0.79746516  1
  Li  Li140  1  0.69790723  0.15745975  0.79746002  1
  Li  Li141  1  0.69781599  0.44559615  0.86790130  1
  Li  Li142  1  0.30248850  0.73034466  0.77279799  1
  Li  Li143  1  0.30180362  0.01796532  0.84350275  1
  Li  Li144  1  0.70485167  0.12735482  0.84862910  1
  Li  Li145  1  0.70175731  0.84021539  0.77812392  1
  Li  Li146  1  0.29835409  0.33572440  0.86219743  1
  Li  Li147  1  0.29633954  0.04705649  0.79224369  1
  Li  Li148  1  0.20364598  0.54705185  0.79226203  1
  Li  Li149  1  0.20073200  0.83553379  0.86212685  1
  Li  Li150  1  0.79842607  0.34013974  0.77813080  1
  Li  Li151  1  0.79486195  0.62736839  0.84862461  1
  Li  Li152  1  0.30158398  0.44659820  0.94946754  1
  Li  Li153  1  0.68558424  0.87238836  0.97096314  1
  Li  Li154  1  0.81429156  0.37239587  0.97097592  1
  Li  Li155  1  0.19856086  0.94655594  0.94945658  1
  Li  Li156  1  0.19312133  0.08584449  0.98499541  1
  Li  Li157  1  0.19449162  0.80529831  0.91259155  1
  Li  Li158  1  0.80375230  0.23153465  0.93698858  1
  Li  Li159  1  0.69621916  0.73155226  0.93699201  1
  Li  Li160  1  0.30538384  0.30530050  0.91259465  1
  Li  Li161  1  0.30686387  0.58584570  0.98499276  1
  Li  Li162  1  0.68857432  0.70032170  0.98535276  1
  Li  Li163  1  0.70081605  0.41520973  0.91876950  1
  Li  Li164  1  0.29486739  0.61923811  0.93363169  1
  Li  Li165  1  0.20507692  0.11921989  0.93362923  1
  Li  Li166  1  0.79888736  0.91515464  0.91876933  1
  Li  Li167  1  0.81140157  0.20032533  0.98535358  1
  P  P168  1  0.69345864  0.48482579  0.10403242  1
  P  P169  1  0.69464044  0.77017673  0.03560352  1
  P  P170  1  0.30674283  0.54980924  0.04311559  1
  P  P171  1  0.30840063  0.26596577  0.11473988  1
  P  P172  1  0.19163173  0.76594513  0.11473761  1
  P  P173  1  0.19327229  0.04982436  0.04312410  1
  P  P174  1  0.80537215  0.27020489  0.03560006  1
  P  P175  1  0.80667295  0.98484069  0.10403640  1
  P  P176  1  0.69288515  0.90959380  0.24489059  1
  P  P177  1  0.69455359  0.19690353  0.17454203  1
  P  P178  1  0.30683360  0.97793886  0.18465059  1
  P  P179  1  0.30704314  0.69044891  0.25510667  1
  P  P180  1  0.19286841  0.19044698  0.25510291  1
  P  P181  1  0.19316657  0.47793909  0.18464946  1
  P  P182  1  0.80545265  0.69690127  0.17454198  1
  P  P183  1  0.80704194  0.40959271  0.24489082  1
  P  P184  1  0.69213719  0.33430067  0.38525914  1
  P  P185  1  0.69326239  0.62211741  0.31533616  1
  P  P186  1  0.30565670  0.40310803  0.32545903  1
  P  P187  1  0.30686793  0.11525684  0.39594291  1
  P  P188  1  0.19338885  0.61518512  0.39598419  1
  P  P189  1  0.19430994  0.90310949  0.32546122  1
  P  P190  1  0.80672339  0.12217681  0.31533053  1
  P  P191  1  0.80798905  0.83413854  0.38524816  1
  P  P192  1  0.69331487  0.05016035  0.45686970  1
  P  P193  1  0.30528110  0.82976514  0.46439528  1
  P  P194  1  0.19473587  0.32972533  0.46440211  1
  P  P195  1  0.80681132  0.55012849  0.45691335  1
  P  P196  1  0.80674157  0.11514938  0.60403573  1
  P  P197  1  0.80538438  0.82976218  0.53561240  1
  P  P198  1  0.19330566  0.05014575  0.54313564  1
  P  P199  1  0.19160868  0.33403578  0.61474465  1
  P  P200  1  0.30837203  0.83402610  0.61474369  1
  P  P201  1  0.30661451  0.55012603  0.54313829  1
  P  P202  1  0.69462733  0.32976694  0.53560544  1
  P  P203  1  0.69327227  0.61512468  0.60406377  1
  P  P204  1  0.80726069  0.69041440  0.74489649  1
  P  P205  1  0.80551727  0.40308092  0.67454603  1
  P  P206  1  0.19331398  0.62206247  0.68467354  1
  P  P207  1  0.19323416  0.90960307  0.75510079  1
  P  P208  1  0.30699615  0.40956145  0.75511621  1
  P  P209  1  0.30687816  0.12206612  0.68464478  1
  P  P210  1  0.69461353  0.90310894  0.67453910  1
  P  P211  1  0.69295710  0.19042131  0.74489279  1
  P  P212  1  0.80798772  0.26585507  0.88525176  1
  P  P213  1  0.80664612  0.97791489  0.81532772  1
  P  P214  1  0.19436383  0.19693176  0.82545922  1
  P  P215  1  0.19309371  0.48486559  0.89596446  1
  P  P216  1  0.30637645  0.98482344  0.89594932  1
  P  P217  1  0.30554338  0.69688460  0.82545520  1
  P  P218  1  0.69311225  0.47788095  0.81536229  1
  P  P219  1  0.69160112  0.76591047  0.88524193  1
  P  P220  1  0.80672033  0.54982737  0.95686444  1
  P  P221  1  0.19460983  0.77020941  0.96439696  1
  P  P222  1  0.30536018  0.27021070  0.96439188  1
  P  P223  1  0.69328645  0.04981906  0.95687375  1
  O  O224  1  0.79598940  0.57420697  0.09918337  1
  O  O225  1  0.80864116  0.85707247  0.03045873  1
  O  O226  1  0.20017859  0.46121803  0.04832857  1
  O  O227  1  0.20620031  0.17616771  0.11895575  1
  O  O228  1  0.29382728  0.67614071  0.11894944  1
  O  O229  1  0.29979116  0.96122501  0.04833478  1
  O  O230  1  0.69135202  0.35709929  0.03045046  1
  O  O231  1  0.70415803  0.07422736  0.09918843  1
  O  O232  1  0.71012856  0.23996384  0.06023804  1
  O  O233  1  0.29308293  0.79627860  0.09035720  1
  O  O234  1  0.29573052  0.07829539  0.01859535  1
  O  O235  1  0.20423618  0.57828730  0.01858880  1
  O  O236  1  0.20695849  0.29627925  0.09035665  1
  O  O237  1  0.78989489  0.73990687  0.06023843  1
  O  O238  1  0.20321106  0.60985852  0.06243390  1
  O  O239  1  0.79781304  0.42568001  0.08462128  1
  O  O240  1  0.79687153  0.70799704  0.01692871  1
  O  O241  1  0.70311253  0.20800844  0.01693200  1
  O  O242  1  0.70226785  0.92568659  0.08462773  1
  O  O243  1  0.29684068  0.10988792  0.06243638  1
  O  O244  1  0.37979581  0.48517908  0.10409984  1
  O  O245  1  0.38033862  0.77346986  0.03526120  1
  O  O246  1  0.61981707  0.54880462  0.04303660  1
  O  O247  1  0.62155625  0.26609920  0.11498763  1
  O  O248  1  0.87847947  0.76608055  0.11498776  1
  O  O249  1  0.88019932  0.04881874  0.04304753  1
  O  O250  1  0.11967750  0.27348460  0.03526003  1
  O  O251  1  0.12035202  0.98521527  0.10410309  1
  O  O252  1  0.79541704  0.99905585  0.24021526  1
  O  O253  1  0.79691081  0.28646454  0.17000883  1
  O  O254  1  0.20388142  0.88856370  0.18938371  1
  O  O255  1  0.20450142  0.60098621  0.25977810  1
  O  O256  1  0.29538064  0.10098179  0.25977491  1
  O  O257  1  0.29610623  0.38856556  0.18938433  1
  O  O258  1  0.70308999  0.78646283  0.17000905  1
  O  O259  1  0.70448989  0.49905263  0.24021623  1
  O  O260  1  0.70364609  0.66708808  0.19899138  1
  O  O261  1  0.70386317  0.95548062  0.12849506  1
  O  O262  1  0.29597125  0.22021547  0.23069267  1
  O  O263  1  0.29618637  0.50767895  0.16022444  1
  O  O264  1  0.20384128  0.00767379  0.16022421  1
  O  O265  1  0.20395365  0.72022299  0.23069557  1
  O  O266  1  0.79626892  0.45547841  0.12848950  1
  O  O267  1  0.79634163  0.16709177  0.19899183  1
  O  O268  1  0.20295033  0.03672463  0.20419893  1
  O  O269  1  0.20147561  0.32445079  0.13421800  1
  O  O270  1  0.79730307  0.85089939  0.22534755  1
  O  O271  1  0.79993748  0.13848449  0.15496086  1
  O  O272  1  0.70006100  0.63848484  0.15495963  1
  O  O273  1  0.70261426  0.35090059  0.22534903  1
  O  O274  1  0.29852555  0.82443064  0.13421772  1
  O  O275  1  0.29703770  0.53673094  0.20419758  1
  O  O276  1  0.37938814  0.90976639  0.24496399  1
  O  O277  1  0.38099924  0.19693513  0.17454776  1
  O  O278  1  0.62031354  0.97773677  0.18448380  1
  O  O279  1  0.62052987  0.69028115  0.25503442  1
  O  O280  1  0.87937578  0.19028189  0.25503077  1
  O  O281  1  0.87968386  0.47773845  0.18448141  1
  O  O282  1  0.11900990  0.69693122  0.17454935  1
  O  O283  1  0.12052657  0.40976780  0.24496524  1
  O  O284  1  0.79427402  0.42410525  0.38105618  1
  O  O285  1  0.79596402  0.71149790  0.31059252  1
  O  O286  1  0.20350604  0.31354452  0.33000332  1
  O  O287  1  0.20438840  0.02587286  0.40079391  1
  O  O288  1  0.29606835  0.52583358  0.40084164  1
  O  O289  1  0.29648775  0.81355139  0.33001533  1
  O  O290  1  0.70403713  0.21155197  0.31057177  1
  O  O291  1  0.70578903  0.92392758  0.38101655  1
  O  O292  1  0.70353244  0.09260788  0.33976507  1
  O  O293  1  0.70392540  0.37983998  0.26930341  1
  O  O294  1  0.29612973  0.64446954  0.37151783  1
  O  O295  1  0.29625523  0.93289588  0.30101098  1
  O  O296  1  0.20366793  0.43292589  0.30101338  1
  O  O297  1  0.20384924  0.14462007  0.37148919  1
  O  O298  1  0.79601699  0.87983416  0.26930219  1
  O  O299  1  0.79647466  0.59241790  0.33975891  1
  O  O300  1  0.20035140  0.46157532  0.34503408  1
  O  O301  1  0.20257154  0.74913243  0.27465124  1
  O  O302  1  0.79920096  0.27589714  0.36576390  1
  O  O303  1  0.79709333  0.56329652  0.29579434  1
  O  O304  1  0.70272134  0.06331550  0.29580575  1
  O  O305  1  0.70118312  0.77555465  0.36578700  1
  O  O306  1  0.29735978  0.24912979  0.27464599  1
  O  O307  1  0.29975666  0.96159883  0.34502322  1
  O  O308  1  0.37898911  0.33407485  0.38501813  1
  O  O309  1  0.37975023  0.62228142  0.31550831  1
  O  O310  1  0.61919396  0.40312517  0.32544821  1
  O  O311  1  0.62055388  0.11501917  0.39584815  1
  O  O312  1  0.87972760  0.61483765  0.39591704  1
  O  O313  1  0.88076819  0.90313019  0.32545679  1
  O  O314  1  0.12024370  0.12228124  0.31550250  1
  O  O315  1  0.12116480  0.83400883  0.38501442  1
  O  O316  1  0.79977271  0.13877436  0.45166619  1
  O  O317  1  0.19136550  0.74285705  0.46953193  1
  O  O318  1  0.30866444  0.24282915  0.46954972  1
  O  O319  1  0.70030914  0.63872764  0.45169540  1
  O  O320  1  0.70417190  0.52161431  0.48143213  1
  O  O321  1  0.70660422  0.80382313  0.40963674  1
  O  O322  1  0.29014048  0.36000412  0.43977344  1
  O  O323  1  0.20994130  0.86012807  0.43977315  1
  O  O324  1  0.79353800  0.30386858  0.40963254  1
  O  O325  1  0.79592174  0.02162304  0.48139030  1
  O  O326  1  0.20312379  0.89184764  0.48309900  1
  O  O327  1  0.20240629  0.17438497  0.41535926  1
  O  O328  1  0.79681448  0.99017506  0.43753394  1
  O  O329  1  0.70322241  0.49011577  0.43758651  1
  O  O330  1  0.29773103  0.67437118  0.41538835  1
  O  O331  1  0.29689582  0.39186236  0.48308986  1
  O  O332  1  0.38022419  0.05113410  0.45696377  1
  O  O333  1  0.61957869  0.82648131  0.46471942  1
  O  O334  1  0.88044042  0.32645106  0.46472982  1
  O  O335  1  0.11987409  0.55109736  0.45699308  1
  O  O336  1  0.70421809  0.02576520  0.59918997  1
  O  O337  1  0.69136391  0.74286437  0.53046453  1
  O  O338  1  0.29982353  0.13874921  0.54833423  1
  O  O339  1  0.29378749  0.42383432  0.61896216  1
  O  O340  1  0.20621034  0.92383167  0.61895736  1
  O  O341  1  0.20014320  0.63873311  0.54833571  1
  O  O342  1  0.80864041  0.24287587  0.53044693  1
  O  O343  1  0.79572305  0.52574324  0.59919113  1
  O  O344  1  0.78988845  0.36001665  0.56024113  1
  O  O345  1  0.20694702  0.80371631  0.59035929  1
  O  O346  1  0.20403681  0.52160362  0.51861796  1
  O  O347  1  0.29588723  0.02161213  0.51861580  1
  O  O348  1  0.29306903  0.30372226  0.59036186  1
  O  O349  1  0.71009156  0.86004081  0.56024380  1
  O  O350  1  0.29680379  0.99012092  0.56245885  1
  O  O351  1  0.70228848  0.17429503  0.58462583  1
  O  O352  1  0.70321621  0.89193811  0.51693178  1
  O  O353  1  0.79683943  0.39197198  0.51693725  1
  O  O354  1  0.79767085  0.67429487  0.58465469  1
  O  O355  1  0.20310441  0.49010427  0.56246087  1
  O  O356  1  0.12041283  0.11479550  0.60409960  1
  O  O357  1  0.11968390  0.82648087  0.53528613  1
  O  O358  1  0.88023004  0.05115860  0.54305076  1
  O  O359  1  0.87845448  0.33389727  0.61499201  1
  O  O360  1  0.62152866  0.83388884  0.61499570  1
  O  O361  1  0.61967621  0.55110414  0.54305771  1
  O  O362  1  0.38032661  0.32647384  0.53527158  1
  O  O363  1  0.37960653  0.61479298  0.60412535  1
  O  O364  1  0.70478434  0.60093843  0.74024348  1
  O  O365  1  0.70312215  0.31352924  0.67001019  1
  O  O366  1  0.29609856  0.71145651  0.68940077  1
  O  O367  1  0.29566597  0.99907398  0.75977631  1
  O  O368  1  0.20446579  0.49901922  0.75980043  1
  O  O369  1  0.20388637  0.21143548  0.68938262  1
  O  O370  1  0.79700854  0.81354965  0.67001064  1
  O  O371  1  0.79556064  0.10097214  0.74021547  1
  O  O372  1  0.79649797  0.93293940  0.69898445  1
  O  O373  1  0.79620585  0.64439692  0.62852572  1
  O  O374  1  0.20398633  0.37979709  0.73070066  1
  O  O375  1  0.20399675  0.09233819  0.66021430  1
  O  O376  1  0.29629433  0.59233170  0.66024716  1
  O  O377  1  0.29643541  0.87985193  0.73069010  1
  O  O378  1  0.70392888  0.14451984  0.62849211  1
  O  O379  1  0.70367446  0.43291157  0.69899106  1
  O  O380  1  0.29735869  0.56329403  0.70422050  1
  O  O381  1  0.29856261  0.27555432  0.63422272  1
  O  O382  1  0.70283123  0.74907342  0.72534160  1
  O  O383  1  0.70021917  0.46149280  0.65495891  1
  O  O384  1  0.79996995  0.96152582  0.65495803  1
  O  O385  1  0.79739288  0.24912120  0.72535151  1
  O  O386  1  0.20139595  0.77553864  0.63421988  1
  O  O387  1  0.20298742  0.06327310  0.70419046  1
  O  O388  1  0.12076798  0.69026592  0.74497140  1
  O  O389  1  0.11907637  0.40306138  0.67455445  1
  O  O390  1  0.87978391  0.62220746  0.68452120  1
  O  O391  1  0.87972768  0.90975850  0.75502587  1
  O  O392  1  0.62048305  0.40973628  0.75505351  1
  O  O393  1  0.62037171  0.12227739  0.68448287  1
  O  O394  1  0.38106336  0.90307122  0.67454680  1
  O  O395  1  0.37946920  0.19024494  0.74496470  1
  O  O396  1  0.70577496  0.17606170  0.88103334  1
  O  O397  1  0.70396924  0.88852449  0.81059353  1
  O  O398  1  0.29652774  0.28649684  0.83000775  1
  O  O399  1  0.29571744  0.57423871  0.90081291  1
  O  O400  1  0.20391468  0.07419409  0.90082302  1
  O  O401  1  0.20319431  0.78644005  0.82999535  1
  O  O402  1  0.79601827  0.38852924  0.81060512  1
  O  O403  1  0.79372608  0.67611449  0.88100698  1
  O  O404  1  0.79609635  0.50753474  0.83979545  1
  O  O405  1  0.79603160  0.22017639  0.76930715  1
  O  O406  1  0.20352423  0.95555755  0.87148467  1
  O  O407  1  0.20363575  0.66709472  0.80100653  1
  O  O408  1  0.29632842  0.16711794  0.80101293  1
  O  O409  1  0.29589654  0.45553677  0.87150439  1
  O  O410  1  0.70415284  0.72022928  0.76930297  1
  O  O411  1  0.70344398  0.00760658  0.83975019  1
  O  O412  1  0.29971524  0.13848429  0.84503619  1
  O  O413  1  0.29757412  0.85090531  0.77464873  1
  O  O414  1  0.70104909  0.32440556  0.86578581  1
  O  O415  1  0.70269211  0.03670092  0.79578310  1
  O  O416  1  0.79711531  0.53675416  0.79584139  1
  O  O417  1  0.79855786  0.82445385  0.86577746  1
  O  O418  1  0.20246607  0.35085824  0.77465385  1
  O  O419  1  0.20018330  0.63841890  0.84502552  1
  O  O420  1  0.12114474  0.26600431  0.88500919  1
  O  O421  1  0.12017078  0.97778214  0.81549187  1
  O  O422  1  0.88081859  0.19689800  0.82544853  1
  O  O423  1  0.87944020  0.48520278  0.89589500  1
  O  O424  1  0.62006270  0.98516317  0.89588991  1
  O  O425  1  0.61908753  0.69690929  0.82544887  1
  O  O426  1  0.37963583  0.47771709  0.81552158  1
  O  O427  1  0.37843538  0.76607241  0.88499626  1
  O  O428  1  0.70022281  0.46122653  0.95165426  1
  O  O429  1  0.30857289  0.85710126  0.96955811  1
  O  O430  1  0.19138062  0.35711031  0.96954636  1
  O  O431  1  0.79981276  0.96121725  0.95166540  1
  O  O432  1  0.79576384  0.07830438  0.98140180  1
  O  O433  1  0.79300629  0.79617904  0.90963303  1
  O  O434  1  0.21006724  0.23996492  0.93975700  1
  O  O435  1  0.28989021  0.73998275  0.93976015  1
  O  O436  1  0.70659156  0.29619739  0.90963674  1
  O  O437  1  0.70422478  0.57829535  0.98139211  1
  O  O438  1  0.29685092  0.70798647  0.98306003  1
  O  O439  1  0.29750385  0.42567589  0.91536446  1
  O  O440  1  0.70313870  0.60988811  0.93755367  1
  O  O441  1  0.79681588  0.10986682  0.93755838  1
  O  O442  1  0.20207397  0.92562388  0.91535349  1
  O  O443  1  0.20313840  0.20802136  0.98306430  1
  O  O444  1  0.11979330  0.54882382  0.95694028  1
  O  O445  1  0.88030846  0.77348737  0.96473595  1
  O  O446  1  0.61966640  0.27348205  0.96472379  1
  O  O447  1  0.38020255  0.04882205  0.95695202  1
