# generated using pymatgen
data_Li3PO4
_symmetry_space_group_name_H-M   'P 1'
_cell_length_a   6.15119200
_cell_length_b   10.55485100
_cell_length_c   50.19698488
_cell_angle_alpha   90.00000000
_cell_angle_beta   90.00000000
_cell_angle_gamma   90.00000000
_symmetry_Int_Tables_number   1
_chemical_formula_structural   Li3PO4
_chemical_formula_sum   'Li120 P40 O160'
_cell_volume   3259.03497811
_cell_formula_units_Z   40
loop_
 _symmetry_equiv_pos_site_id
 _symmetry_equiv_pos_as_xyz
  1  'x, y, z'
loop_
 _atom_site_type_symbol
 _atom_site_label
 _atom_site_symmetry_multiplicity
 _atom_site_fract_x
 _atom_site_fract_y
 _atom_site_fract_z
 _atom_site_occupancy
  Li  Li0  1  0.44705971  0.81064262  0.05282329  1
  Li  Li1  1  0.47403911  0.30846071  0.05769031  1
  Li  Li2  1  0.96090878  0.30961906  0.04296236  1
  Li  Li3  1  0.92153772  0.64917238  0.00892628  1
  Li  Li4  1  0.93537249  0.14148834  0.99329337  1
  Li  Li5  1  0.94433686  0.80996815  0.05749107  1
  Li  Li6  1  0.70619793  0.88776879  0.99365341  1
  Li  Li7  1  0.18893414  0.05224428  0.05626922  1
  Li  Li8  1  0.22471511  0.54483988  0.04432579  1
  Li  Li9  1  0.44615847  0.81141665  0.15563568  1
  Li  Li10  1  0.44692120  0.13051919  0.09783437  1
  Li  Li11  1  0.45962991  0.63618089  0.10479666  1
  Li  Li12  1  0.45057523  0.31125732  0.14537953  1
  Li  Li13  1  0.95389069  0.30967226  0.14630010  1
  Li  Li14  1  0.95748307  0.63641904  0.10653566  1
  Li  Li15  1  0.94431771  0.13744825  0.09527872  1
  Li  Li16  1  0.95094813  0.81055256  0.15569934  1
  Li  Li17  1  0.69465149  0.89910232  0.09640998  1
  Li  Li18  1  0.19742445  0.04973043  0.15558610  1
  Li  Li19  1  0.20597855  0.54925099  0.14613780  1
  Li  Li20  1  0.71214438  0.39637029  0.10662932  1
  Li  Li21  1  0.44735084  0.80980339  0.25487271  1
  Li  Li22  1  0.45072017  0.13839680  0.19532313  1
  Li  Li23  1  0.45216305  0.63857983  0.20538445  1
  Li  Li24  1  0.44736873  0.30993347  0.24515088  1
  Li  Li25  1  0.95205569  0.31031415  0.24474543  1
  Li  Li26  1  0.94747267  0.63765885  0.20558393  1
  Li  Li27  1  0.94672333  0.13754207  0.19531854  1
  Li  Li28  1  0.95199739  0.81031346  0.25526596  1
  Li  Li29  1  0.69866100  0.89898122  0.19562777  1
  Li  Li30  1  0.19925532  0.04884066  0.25482555  1
  Li  Li31  1  0.19942968  0.54884917  0.24518168  1
  Li  Li32  1  0.69892143  0.39960962  0.20532261  1
  Li  Li33  1  0.45001711  0.81082046  0.35464810  1
  Li  Li34  1  0.45145142  0.13762636  0.29457734  1
  Li  Li35  1  0.45150027  0.63765264  0.30474758  1
  Li  Li36  1  0.44587672  0.31117556  0.34436355  1
  Li  Li37  1  0.95128904  0.31023316  0.34440848  1
  Li  Li38  1  0.94681766  0.63740863  0.30469475  1
  Li  Li39  1  0.94695918  0.13743900  0.29447653  1
  Li  Li40  1  0.95357170  0.80943247  0.35371061  1
  Li  Li41  1  0.69798468  0.89922859  0.29469005  1
  Li  Li42  1  0.20559107  0.04886951  0.35386477  1
  Li  Li43  1  0.19728866  0.54947415  0.34444281  1
  Li  Li44  1  0.69899009  0.39861287  0.30444807  1
  Li  Li45  1  0.47401753  0.80851166  0.44231075  1
  Li  Li46  1  0.45956729  0.13614793  0.39520497  1
  Li  Li47  1  0.44710006  0.63042997  0.40238131  1
  Li  Li48  1  0.44697979  0.31064549  0.44716542  1
  Li  Li49  1  0.94438315  0.30997276  0.44250641  1
  Li  Li50  1  0.94384628  0.63719929  0.40467088  1
  Li  Li51  1  0.95745023  0.13637362  0.39346592  1
  Li  Li52  1  0.96085655  0.80965577  0.45704000  1
  Li  Li53  1  0.71185668  0.89631512  0.39337244  1
  Li  Li54  1  0.22471767  0.04483409  0.45567366  1
  Li  Li55  1  0.18838139  0.55292622  0.44379718  1
  Li  Li56  1  0.69462795  0.39901559  0.40359100  1
  Li  Li57  1  0.93532142  0.64142352  0.50667805  1
  Li  Li58  1  0.92154436  0.14916941  0.49106352  1
  Li  Li59  1  0.70620502  0.38757494  0.50626134  1
  Li  Li60  1  0.87900838  0.99009188  0.55282530  1
  Li  Li61  1  0.84830452  0.49156277  0.55837498  1
  Li  Li62  1  0.36235004  0.49171619  0.54316708  1
  Li  Li63  1  0.39839345  0.15264922  0.50842619  1
  Li  Li64  1  0.39128845  0.65856092  0.49335311  1
  Li  Li65  1  0.38293246  0.99030518  0.55720181  1
  Li  Li66  1  0.61929383  0.91264204  0.49376760  1
  Li  Li67  1  0.13450384  0.74907885  0.55604642  1
  Li  Li68  1  0.09775533  0.25622744  0.54394087  1
  Li  Li69  1  0.87853025  0.98894879  0.65542559  1
  Li  Li70  1  0.87726600  0.67063354  0.59715431  1
  Li  Li71  1  0.86647232  0.16382633  0.60458461  1
  Li  Li72  1  0.87573776  0.48893521  0.64537317  1
  Li  Li73  1  0.37290855  0.48950757  0.64635503  1
  Li  Li74  1  0.36833736  0.16345607  0.60641766  1
  Li  Li75  1  0.37941249  0.66311097  0.59557705  1
  Li  Li76  1  0.37466285  0.98860556  0.65566602  1
  Li  Li77  1  0.62963164  0.90248980  0.59643792  1
  Li  Li78  1  0.12693401  0.75096405  0.65584788  1
  Li  Li79  1  0.12178763  0.25046895  0.64609862  1
  Li  Li80  1  0.61228934  0.40159042  0.60679714  1
  Li  Li81  1  0.87779882  0.98887317  0.75529364  1
  Li  Li82  1  0.87396928  0.66241127  0.69528963  1
  Li  Li83  1  0.87373124  0.16205011  0.70542371  1
  Li  Li84  1  0.87780492  0.48887519  0.74470605  1
  Li  Li85  1  0.37390862  0.48845070  0.74475889  1
  Li  Li86  1  0.37752969  0.16184168  0.70540704  1
  Li  Li87  1  0.37786453  0.66262945  0.69555641  1
  Li  Li88  1  0.37396278  0.98844771  0.75522909  1
  Li  Li89  1  0.62612490  0.90113692  0.69558328  1
  Li  Li90  1  0.12567636  0.75075697  0.75477240  1
  Li  Li91  1  0.12594757  0.25065222  0.74521291  1
  Li  Li92  1  0.62559289  0.40075328  0.70491512  1
  Li  Li93  1  0.87568396  0.98889269  0.85461765  1
  Li  Li94  1  0.87366141  0.66200571  0.79456537  1
  Li  Li95  1  0.87400314  0.16236041  0.80471497  1
  Li  Li96  1  0.87846924  0.48893104  0.84456339  1
  Li  Li97  1  0.37479685  0.48865593  0.84431242  1
  Li  Li98  1  0.37781714  0.16257884  0.80444637  1
  Li  Li99  1  0.37745126  0.66181151  0.79455726  1
  Li  Li100  1  0.37284764  0.98945651  0.85363881  1
  Li  Li101  1  0.62556815  0.90075019  0.79508113  1
  Li  Li102  1  0.12120105  0.75015262  0.85385084  1
  Li  Li103  1  0.12697892  0.25098540  0.84415804  1
  Li  Li104  1  0.62627998  0.40037947  0.80434825  1
  Li  Li105  1  0.84822405  0.99159892  0.94161068  1
  Li  Li106  1  0.86626726  0.66372538  0.89539649  1
  Li  Li107  1  0.87749431  0.17051420  0.90273639  1
  Li  Li108  1  0.87823874  0.49013240  0.94744864  1
  Li  Li109  1  0.38277466  0.49032164  0.94279471  1
  Li  Li110  1  0.37943689  0.16307176  0.90440924  1
  Li  Li111  1  0.36830507  0.66343578  0.89357128  1
  Li  Li112  1  0.36223736  0.99171273  0.95682312  1
  Li  Li113  1  0.61221151  0.90151140  0.89319260  1
  Li  Li114  1  0.09772071  0.75623668  0.95605292  1
  Li  Li115  1  0.13471981  0.24884755  0.94381587  1
  Li  Li116  1  0.62965059  0.40250198  0.90356969  1
  Li  Li117  1  0.39127675  0.15856717  0.00665987  1
  Li  Li118  1  0.39818525  0.65288685  0.99158096  1
  Li  Li119  1  0.61915886  0.41262708  0.00620995  1
  P  P120  1  0.21629773  0.88340161  0.00819795  1
  P  P121  1  0.70332415  0.05834246  0.04401859  1
  P  P122  1  0.70588627  0.55923991  0.05787421  1
  P  P123  1  0.19872044  0.88497564  0.10668738  1
  P  P124  1  0.69893569  0.06306404  0.14527510  1
  P  P125  1  0.70259685  0.56276301  0.15633725  1
  P  P126  1  0.20181333  0.38419500  0.09526008  1
  P  P127  1  0.19876339  0.88555690  0.20592253  1
  P  P128  1  0.69927285  0.06238105  0.24439602  1
  P  P129  1  0.69956876  0.56230127  0.25563133  1
  P  P130  1  0.20075552  0.38544965  0.19481398  1
  P  P131  1  0.20027824  0.88505638  0.30519629  1
  P  P132  1  0.70216715  0.06244488  0.34367077  1
  P  P133  1  0.69874824  0.56277564  0.35476614  1
  P  P134  1  0.19889998  0.38532910  0.29411083  1
  P  P135  1  0.20161661  0.88407230  0.40474889  1
  P  P136  1  0.70588155  0.05922234  0.44212207  1
  P  P137  1  0.70310387  0.55833678  0.45595562  1
  P  P138  1  0.19875292  0.38494494  0.39334809  1
  P  P139  1  0.21625834  0.38338124  0.49179613  1
  P  P140  1  0.10984441  0.91735298  0.50799382  1
  P  P141  1  0.62127106  0.74205330  0.54414587  1
  P  P142  1  0.61788160  0.24082734  0.55766897  1
  P  P143  1  0.12675676  0.91553229  0.60657413  1
  P  P144  1  0.62639326  0.73688930  0.64526932  1
  P  P145  1  0.62389386  0.23676209  0.65630257  1
  P  P146  1  0.12290900  0.41591532  0.59524058  1
  P  P147  1  0.12576710  0.91448464  0.70600875  1
  P  P148  1  0.62599871  0.73677307  0.74446308  1
  P  P149  1  0.62614920  0.23667806  0.75550333  1
  P  P150  1  0.12452430  0.41439832  0.69469350  1
  P  P151  1  0.12446052  0.91438375  0.80530193  1
  P  P152  1  0.62371797  0.73672721  0.84365804  1
  P  P153  1  0.62633014  0.23686859  0.85472786  1
  P  P154  1  0.12578347  0.41443321  0.79398108  1
  P  P155  1  0.12275549  0.91575027  0.90472698  1
  P  P156  1  0.61771892  0.74087213  0.94233021  1
  P  P157  1  0.62109389  0.24205138  0.95584451  1
  P  P158  1  0.12668635  0.41559661  0.89340372  1
  P  P159  1  0.10972664  0.41731074  0.99199132  1
  O  O160  1  0.43762788  0.81407326  0.00544177  1
  O  O161  1  0.48353707  0.13299762  0.04910822  1
  O  O162  1  0.49704029  0.63121926  0.05020168  1
  O  O163  1  0.91133639  0.62985553  0.04687766  1
  O  O164  1  0.89394816  0.13793332  0.05614108  1
  O  O165  1  0.03397416  0.80084606  0.99490924  1
  O  O166  1  0.69110594  0.92752824  0.05807946  1
  O  O167  1  0.22260104  0.01466646  0.99410915  1
  O  O168  1  0.69675339  0.42068887  0.04668872  1
  O  O169  1  0.17278712  0.89478004  0.03869912  1
  O  O170  1  0.73524235  0.04140530  0.01380378  1
  O  O171  1  0.19332616  0.38552090  0.06428549  1
  O  O172  1  0.40496803  0.81437983  0.09688565  1
  O  O173  1  0.49065987  0.13377350  0.15507048  1
  O  O174  1  0.49742409  0.63379313  0.14597515  1
  O  O175  1  0.41747280  0.31183513  0.10292021  1
  O  O176  1  0.00290101  0.31137080  0.10672466  1
  O  O177  1  0.91172660  0.63169741  0.14640503  1
  O  O178  1  0.90471241  0.13333345  0.15572695  1
  O  O179  1  0.99037135  0.81497752  0.09691389  1
  O  O180  1  0.69822736  0.92446484  0.15561905  1
  O  O181  1  0.19880496  0.02385528  0.09588093  1
  O  O182  1  0.20928097  0.52047353  0.10662215  1
  O  O183  1  0.70121818  0.42344792  0.14602856  1
  O  O184  1  0.19780113  0.88763932  0.13783623  1
  O  O185  1  0.70039921  0.06373299  0.11419149  1
  O  O186  1  0.71986501  0.55511942  0.08897704  1
  O  O187  1  0.20354775  0.38438227  0.16371468  1
  O  O188  1  0.40560639  0.81533896  0.19566202  1
  O  O189  1  0.49243668  0.13232035  0.25473298  1
  O  O190  1  0.49286454  0.63239047  0.24529852  1
  O  O191  1  0.40680443  0.31521316  0.20528087  1
  O  O192  1  0.99284581  0.31540961  0.20482046  1
  O  O193  1  0.90671107  0.63265748  0.24548367  1
  O  O194  1  0.90635328  0.13272382  0.25456095  1
  O  O195  1  0.99166658  0.81546574  0.19573336  1
  O  O196  1  0.69986117  0.92338368  0.25464533  1
  O  O197  1  0.19900505  0.02455897  0.19566185  1
  O  O198  1  0.20002060  0.52437027  0.20508488  1
  O  O199  1  0.70007989  0.42336685  0.24535336  1
  O  O200  1  0.19921995  0.88469355  0.23702150  1
  O  O201  1  0.69839930  0.06341670  0.21330601  1
  O  O202  1  0.70040140  0.56284246  0.18745197  1
  O  O203  1  0.19920307  0.38468302  0.26300956  1
  O  O204  1  0.40626177  0.81469415  0.29474067  1
  O  O205  1  0.49707321  0.13356066  0.35402151  1
  O  O206  1  0.49059260  0.63346751  0.34493993  1
  O  O207  1  0.40569486  0.31495920  0.30434137  1
  O  O208  1  0.99181737  0.31523990  0.30431207  1
  O  O209  1  0.90458971  0.63300400  0.34431679  1
  O  O210  1  0.91128505  0.13142388  0.35359545  1
  O  O211  1  0.99223438  0.81512708  0.29520221  1
  O  O212  1  0.70077087  0.92315481  0.35398642  1
  O  O213  1  0.19970255  0.02395710  0.29491002  1
  O  O214  1  0.19927370  0.52430471  0.30439381  1
  O  O215  1  0.69817169  0.42412813  0.34445155  1
  O  O216  1  0.20308069  0.88405006  0.33629662  1
  O  O217  1  0.70002984  0.06243593  0.31255674  1
  O  O218  1  0.69876477  0.56308147  0.28672119  1
  O  O219  1  0.19797726  0.38755978  0.36220005  1
  O  O220  1  0.41724433  0.81165401  0.39709884  1
  O  O221  1  0.49704612  0.13119651  0.44980189  1
  O  O222  1  0.48333626  0.63295919  0.45082084  1
  O  O223  1  0.40492961  0.31430971  0.40316320  1
  O  O224  1  0.99034968  0.31487673  0.40308876  1
  O  O225  1  0.89366734  0.63800910  0.44385092  1
  O  O226  1  0.91135475  0.12984958  0.45310999  1
  O  O227  1  0.00268471  0.81125773  0.39328819  1
  O  O228  1  0.69674653  0.92066537  0.45330542  1
  O  O229  1  0.20918797  0.02034107  0.39338296  1
  O  O230  1  0.19862074  0.52380533  0.40415462  1
  O  O231  1  0.69111684  0.42748601  0.44191622  1
  O  O232  1  0.19326704  0.88547099  0.43572566  1
  O  O233  1  0.71982030  0.05507605  0.41102041  1
  O  O234  1  0.70002299  0.56356244  0.38585121  1
  O  O235  1  0.17275549  0.39494349  0.46129963  1
  O  O236  1  0.43750869  0.31396017  0.49455663  1
  O  O237  1  0.03382422  0.30084828  0.50507305  1
  O  O238  1  0.22261999  0.51463250  0.50589264  1
  O  O239  1  0.73475353  0.54151496  0.48617503  1
  O  O240  1  0.88914742  0.98713294  0.50503081  1
  O  O241  1  0.84056138  0.66716255  0.54949529  1
  O  O242  1  0.82701531  0.16913099  0.54995534  1
  O  O243  1  0.41280447  0.17045921  0.54656547  1
  O  O244  1  0.42995161  0.66307065  0.55624421  1
  O  O245  1  0.29341844  0.99864108  0.49464737  1
  O  O246  1  0.63456661  0.87316758  0.55806631  1
  O  O247  1  0.10264310  0.78551104  0.49412408  1
  O  O248  1  0.62726100  0.37964032  0.54665942  1
  O  O249  1  0.15256079  0.90636361  0.53852623  1
  O  O250  1  0.59082840  0.75856578  0.51389712  1
  O  O251  1  0.13136521  0.41425796  0.56426635  1
  O  O252  1  0.92061957  0.98617550  0.59674040  1
  O  O253  1  0.83459675  0.66612323  0.65505540  1
  O  O254  1  0.82926180  0.16617706  0.64591333  1
  O  O255  1  0.90683708  0.48840353  0.60274937  1
  O  O256  1  0.32176430  0.48863683  0.60674355  1
  O  O257  1  0.41510142  0.16777934  0.64629212  1
  O  O258  1  0.42054638  0.66667492  0.65573847  1
  O  O259  1  0.33503167  0.98549295  0.59678116  1
  O  O260  1  0.62749178  0.87547683  0.65567562  1
  O  O261  1  0.12631351  0.77681265  0.59574409  1
  O  O262  1  0.11558107  0.27979285  0.60668147  1
  O  O263  1  0.62494797  0.37630622  0.64609282  1
  O  O264  1  0.12772186  0.91269507  0.63772685  1
  O  O265  1  0.62477973  0.73702117  0.61418338  1
  O  O266  1  0.60466183  0.24413484  0.58879839  1
  O  O267  1  0.12283337  0.41500312  0.66360025  1
  O  O268  1  0.91921212  0.98472652  0.69571704  1
  O  O269  1  0.83285291  0.66636521  0.75464767  1
  O  O270  1  0.83308369  0.16636747  0.74532070  1
  O  O271  1  0.91806348  0.48482890  0.70496816  1
  O  O272  1  0.33218976  0.48453536  0.70474599  1
  O  O273  1  0.41889088  0.16630508  0.74539950  1
  O  O274  1  0.41865204  0.66639243  0.75454221  1
  O  O275  1  0.33317251  0.98420486  0.69579227  1
  O  O276  1  0.62575007  0.87540547  0.75493611  1
  O  O277  1  0.12544874  0.77541911  0.69575116  1
  O  O278  1  0.12518788  0.27562844  0.70506455  1
  O  O279  1  0.62579270  0.37537014  0.74506517  1
  O  O280  1  0.12554852  0.91504107  0.73710852  1
  O  O281  1  0.62639627  0.73676645  0.71336675  1
  O  O282  1  0.62537088  0.23650384  0.68740263  1
  O  O283  1  0.12554295  0.41496934  0.76287953  1
  O  O284  1  0.91802214  0.98483240  0.79502103  1
  O  O285  1  0.82909233  0.66614156  0.85405285  1
  O  O286  1  0.83458754  0.16610080  0.84495859  1
  O  O287  1  0.91916198  0.48463225  0.80426758  1
  O  O288  1  0.33325830  0.48411683  0.80418206  1
  O  O289  1  0.42050045  0.16662218  0.84426123  1
  O  O290  1  0.41494654  0.66776497  0.85367678  1
  O  O291  1  0.33213295  0.98451709  0.79525282  1
  O  O292  1  0.62484301  0.87627302  0.85386205  1
  O  O293  1  0.12507421  0.77561691  0.79492582  1
  O  O294  1  0.12544537  0.27536651  0.80424776  1
  O  O295  1  0.62742697  0.37540243  0.84430016  1
  O  O296  1  0.12268313  0.91495594  0.83639369  1
  O  O297  1  0.62521068  0.73643333  0.81255945  1
  O  O298  1  0.62637645  0.23645602  0.78660069  1
  O  O299  1  0.12785693  0.41285879  0.86224719  1
  O  O300  1  0.90675576  0.98825543  0.89718770  1
  O  O301  1  0.82680983  0.66924832  0.95007807  1
  O  O302  1  0.84038348  0.16719267  0.95048380  1
  O  O303  1  0.92043850  0.48611392  0.90322688  1
  O  O304  1  0.33493189  0.48549886  0.90322672  1
  O  O305  1  0.42982374  0.16304245  0.94374294  1
  O  O306  1  0.41259165  0.67055419  0.95343378  1
  O  O307  1  0.32169115  0.98845722  0.89323442  1
  O  O308  1  0.62701232  0.87974679  0.95331060  1
  O  O309  1  0.11538383  0.77959171  0.89330589  1
  O  O310  1  0.12633023  0.27677213  0.90418643  1
  O  O311  1  0.63420165  0.37324079  0.94195010  1
  O  O312  1  0.13106328  0.91422991  0.93570333  1
  O  O313  1  0.60464450  0.74405177  0.91120197  1
  O  O314  1  0.62470054  0.23705610  0.88581259  1
  O  O315  1  0.15260218  0.40606584  0.96146939  1
  O  O316  1  0.88895248  0.48717396  0.99488733  1
  O  O317  1  0.29309264  0.49874416  0.00534131  1
  O  O318  1  0.10232230  0.28562540  0.00591209  1
  O  O319  1  0.59074788  0.25850111  0.98609618  1
