# generated using pymatgen
data_Li3PO4
_symmetry_space_group_name_H-M   'P 1'
_cell_length_a   6.15119200
_cell_length_b   10.55485100
_cell_length_c   54.72218738
_cell_angle_alpha   90.00000000
_cell_angle_beta   90.00000000
_cell_angle_gamma   90.00000000
_symmetry_Int_Tables_number   1
_chemical_formula_structural   Li3PO4
_chemical_formula_sum   'Li132 P44 O176'
_cell_volume   3552.83336601
_cell_formula_units_Z   44
loop_
 _symmetry_equiv_pos_site_id
 _symmetry_equiv_pos_as_xyz
  1  'x, y, z'
loop_
 _atom_site_type_symbol
 _atom_site_label
 _atom_site_symmetry_multiplicity
 _atom_site_fract_x
 _atom_site_fract_y
 _atom_site_fract_z
 _atom_site_occupancy
  Li  Li0  1  0.50023645  0.82874313  0.05173362  1
  Li  Li1  1  0.51337670  0.33590420  0.03949050  1
  Li  Li2  1  0.98420946  0.33735210  0.03958293  1
  Li  Li3  1  0.99355003  0.65493192  0.00535243  1
  Li  Li4  1  0.00211556  0.15446946  0.99467211  1
  Li  Li5  1  0.99816357  0.82856300  0.05171653  1
  Li  Li6  1  0.74849220  0.90587295  0.00644144  1
  Li  Li7  1  0.24785419  0.07100187  0.04660574  1
  Li  Li8  1  0.24985260  0.58748133  0.05195541  1
  Li  Li9  1  0.49817222  0.83903789  0.14107926  1
  Li  Li10  1  0.50061194  0.16336319  0.08527410  1
  Li  Li11  1  0.49976826  0.66729320  0.09713123  1
  Li  Li12  1  0.49895588  0.33708982  0.13067292  1
  Li  Li13  1  0.99996964  0.33745634  0.13075176  1
  Li  Li14  1  0.99968586  0.66723261  0.09712502  1
  Li  Li15  1  0.99807369  0.16343995  0.08523419  1
  Li  Li16  1  0.00152030  0.83902472  0.14107033  1
  Li  Li17  1  0.74923856  0.92452110  0.08711631  1
  Li  Li18  1  0.24918911  0.07713697  0.14055336  1
  Li  Li19  1  0.24991914  0.57510365  0.13333793  1
  Li  Li20  1  0.74964499  0.42625287  0.09179272  1
  Li  Li21  1  0.49857176  0.83574706  0.23203068  1
  Li  Li22  1  0.50230697  0.16397120  0.17687600  1
  Li  Li23  1  0.50205177  0.66340554  0.18637089  1
  Li  Li24  1  0.49807786  0.33596929  0.22260480  1
  Li  Li25  1  0.00187033  0.33597088  0.22260505  1
  Li  Li26  1  0.99757089  0.66369853  0.18633686  1
  Li  Li27  1  0.99751744  0.16396687  0.17688051  1
  Li  Li28  1  0.00133694  0.83574811  0.23203591  1
  Li  Li29  1  0.74965642  0.92575516  0.17760689  1
  Li  Li30  1  0.24958913  0.07488765  0.23156296  1
  Li  Li31  1  0.24995511  0.57399556  0.22247149  1
  Li  Li32  1  0.74993961  0.42317966  0.18619403  1
  Li  Li33  1  0.49773012  0.83607570  0.32311175  1
  Li  Li34  1  0.50137088  0.16445231  0.26796603  1
  Li  Li35  1  0.50189537  0.66406972  0.27739348  1
  Li  Li36  1  0.49795444  0.33662075  0.31362716  1
  Li  Li37  1  0.00237672  0.33637321  0.31366625  1
  Li  Li38  1  0.99814639  0.66407910  0.27739727  1
  Li  Li39  1  0.99861621  0.16429263  0.26796855  1
  Li  Li40  1  0.00246336  0.83607551  0.32311943  1
  Li  Li41  1  0.74980061  0.92540664  0.26841340  1
  Li  Li42  1  0.25031612  0.07429133  0.32239534  1
  Li  Li43  1  0.25022279  0.57685363  0.31383169  1
  Li  Li44  1  0.75005481  0.42603219  0.27752690  1
  Li  Li45  1  0.49937970  0.83663958  0.41471028  1
  Li  Li46  1  0.50181982  0.16094747  0.35892132  1
  Li  Li47  1  0.50111907  0.66293226  0.36932779  1
  Li  Li48  1  0.50038737  0.33264310  0.40288451  1
  Li  Li49  1  0.00030691  0.33275398  0.40287644  1
  Li  Li50  1  0.00038927  0.66222436  0.36921168  1
  Li  Li51  1  0.99845611  0.16097523  0.35893310  1
  Li  Li52  1  0.00195038  0.83655405  0.41475711  1
  Li  Li53  1  0.75068788  0.92292996  0.35944948  1
  Li  Li54  1  0.25074302  0.07548660  0.41288230  1
  Li  Li55  1  0.25053441  0.57365546  0.40821943  1
  Li  Li56  1  0.75007320  0.42489516  0.36666277  1
  Li  Li57  1  0.49968325  0.17124201  0.44827569  1
  Li  Li58  1  0.48663049  0.66407765  0.46051008  1
  Li  Li59  1  0.00646902  0.34507529  0.49465049  1
  Li  Li60  1  0.01590042  0.66259469  0.46039806  1
  Li  Li61  1  0.00178222  0.17139479  0.44828465  1
  Li  Li62  1  0.99786564  0.84554340  0.50533304  1
  Li  Li63  1  0.75165034  0.92802787  0.45336364  1
  Li  Li64  1  0.25151915  0.09413454  0.49355623  1
  Li  Li65  1  0.75018141  0.41253875  0.44804764  1
  Li  Li66  1  0.99957464  0.67120169  0.55177312  1
  Li  Li67  1  0.98671435  0.16302774  0.53964123  1
  Li  Li68  1  0.51582246  0.16259127  0.53960535  1
  Li  Li69  1  0.50625517  0.84519086  0.50538873  1
  Li  Li70  1  0.49791473  0.34554209  0.49467385  1
  Li  Li71  1  0.50175869  0.67129084  0.55172437  1
  Li  Li72  1  0.75153564  0.59405252  0.50645712  1
  Li  Li73  1  0.25142191  0.42797619  0.54669231  1
  Li  Li74  1  0.25015476  0.91244066  0.55196105  1
  Li  Li75  1  0.00173880  0.66101136  0.64108085  1
  Li  Li76  1  0.99929651  0.33662043  0.58529481  1
  Li  Li77  1  0.00029481  0.83266454  0.59714206  1
  Li  Li78  1  0.00081108  0.16273690  0.63069015  1
  Li  Li79  1  0.49945938  0.16267332  0.63070452  1
  Li  Li80  1  0.50024963  0.83270078  0.59714016  1
  Li  Li81  1  0.50192478  0.33657596  0.58524520  1
  Li  Li82  1  0.49841675  0.66100006  0.64108338  1
  Li  Li83  1  0.75067550  0.57545282  0.58712620  1
  Li  Li84  1  0.25003589  0.42323811  0.64063743  1
  Li  Li85  1  0.25005380  0.92488770  0.63334062  1
  Li  Li86  1  0.75019775  0.07346321  0.59181749  1
  Li  Li87  1  0.00140098  0.66429615  0.73203238  1
  Li  Li88  1  0.99769051  0.33602112  0.67689383  1
  Li  Li89  1  0.99791977  0.83662922  0.68637042  1
  Li  Li90  1  0.00191449  0.16404272  0.72260467  1
  Li  Li91  1  0.49811190  0.16406631  0.72260471  1
  Li  Li92  1  0.50242113  0.83632044  0.68633804  1
  Li  Li93  1  0.50244577  0.33604621  0.67688078  1
  Li  Li94  1  0.49867388  0.66427459  0.73203821  1
  Li  Li95  1  0.75033437  0.57425281  0.67760674  1
  Li  Li96  1  0.24982123  0.42537131  0.73158702  1
  Li  Li97  1  0.25004249  0.92601689  0.72247146  1
  Li  Li98  1  0.75004373  0.07684137  0.68619479  1
  Li  Li99  1  0.00238052  0.66394397  0.82311596  1
  Li  Li100  1  0.99861785  0.33553188  0.76796604  1
  Li  Li101  1  0.99809940  0.83593879  0.77739370  1
  Li  Li102  1  0.00224716  0.16347758  0.81363376  1
  Li  Li103  1  0.49768128  0.16347841  0.81366306  1
  Li  Li104  1  0.50189136  0.83585840  0.77740049  1
  Li  Li105  1  0.50133406  0.33570712  0.76796346  1
  Li  Li106  1  0.49762843  0.66393591  0.82310885  1
  Li  Li107  1  0.75020436  0.57460238  0.76841413  1
  Li  Li108  1  0.24969143  0.42571908  0.82239315  1
  Li  Li109  1  0.24997415  0.92313878  0.81380421  1
  Li  Li110  1  0.74997181  0.07396386  0.77752977  1
  Li  Li111  1  0.00071142  0.66340624  0.91469871  1
  Li  Li112  1  0.99827826  0.33899513  0.85891856  1
  Li  Li113  1  0.99914130  0.83710830  0.86931628  1
  Li  Li114  1  0.99970136  0.16737446  0.90285797  1
  Li  Li115  1  0.49972569  0.16736736  0.90285424  1
  Li  Li116  1  0.50050722  0.83737137  0.86929718  1
  Li  Li117  1  0.50161167  0.33900587  0.85891590  1
  Li  Li118  1  0.49808142  0.66345293  0.91475239  1
  Li  Li119  1  0.74995714  0.57675824  0.85935977  1
  Li  Li120  1  0.24930627  0.42455683  0.91287908  1
  Li  Li121  1  0.24950674  0.92677252  0.90816716  1
  Li  Li122  1  0.74996677  0.07510925  0.86665853  1
  Li  Li123  1  0.00038278  0.32883516  0.94826400  1
  Li  Li124  1  0.01329696  0.83697718  0.96035448  1
  Li  Li125  1  0.49363384  0.15486249  0.99462031  1
  Li  Li126  1  0.48416310  0.83743792  0.96038652  1
  Li  Li127  1  0.49826015  0.32872613  0.94827616  1
  Li  Li128  1  0.50210278  0.65445958  0.00532888  1
  Li  Li129  1  0.74858821  0.57207835  0.95330985  1
  Li  Li130  1  0.24848540  0.40597671  0.99354113  1
  Li  Li131  1  0.74986702  0.08759177  0.94804122  1
  P  P132  1  0.24872699  0.90785335  0.00794529  1
  P  P133  1  0.74880200  0.08589812  0.03923263  1
  P  P134  1  0.74928835  0.58596922  0.05304177  1
  P  P135  1  0.24933895  0.91403916  0.09630865  1
  P  P136  1  0.74964183  0.09012362  0.13090313  1
  P  P137  1  0.74965774  0.58762391  0.14161209  1
  P  P138  1  0.24943522  0.40801552  0.08427462  1
  P  P139  1  0.24972947  0.91180003  0.18698080  1
  P  P140  1  0.74983106  0.08881295  0.22209937  1
  P  P141  1  0.74998868  0.58789770  0.23235418  1
  P  P142  1  0.24981218  0.41066685  0.17640117  1
  P  P143  1  0.24993988  0.91133404  0.27789782  1
  P  P144  1  0.75018207  0.08832868  0.31302567  1
  P  P145  1  0.75026883  0.58938113  0.32359683  1
  P  P146  1  0.25000894  0.41214269  0.26764693  1
  P  P147  1  0.25032152  0.90985991  0.36909246  1
  P  P148  1  0.75059396  0.08590210  0.40369687  1
  P  P149  1  0.75065417  0.59197323  0.41571996  1
  P  P150  1  0.25044812  0.41231368  0.35839334  1
  P  P151  1  0.25106139  0.91410090  0.46076413  1
  P  P152  1  0.75125470  0.09208848  0.49203672  1
  P  P153  1  0.25075182  0.41398521  0.44696211  1
  P  P154  1  0.25120944  0.59202645  0.50800464  1
  P  P155  1  0.75105716  0.41389892  0.53926606  1
  P  P156  1  0.75052644  0.91381535  0.55306402  1
  P  P157  1  0.25043124  0.58590959  0.59633752  1
  P  P158  1  0.75012301  0.40985039  0.63091524  1
  P  P159  1  0.75016967  0.91239635  0.64161539  1
  P  P160  1  0.25058822  0.09189539  0.58430672  1
  P  P161  1  0.25021390  0.58830681  0.68699009  1
  P  P162  1  0.74998404  0.41123511  0.72210367  1
  P  P163  1  0.75000196  0.91212247  0.73235659  1
  P  P164  1  0.25018895  0.08933863  0.67640054  1
  P  P165  1  0.25004844  0.58868990  0.77789979  1
  P  P166  1  0.74979977  0.41161238  0.81300622  1
  P  P167  1  0.74995075  0.91059141  0.82360397  1
  P  P168  1  0.25001882  0.08783488  0.76764392  1
  P  P169  1  0.24990706  0.59013854  0.86908473  1
  P  P170  1  0.74958994  0.41413915  0.90366398  1
  P  P171  1  0.74938044  0.90816082  0.91569383  1
  P  P172  1  0.24984454  0.08759522  0.85838562  1
  P  P173  1  0.24897489  0.58613413  0.96073354  1
  P  P174  1  0.74878324  0.40800759  0.99199792  1
  P  P175  1  0.24949759  0.08627890  0.94694509  1
  O  O176  1  0.45900814  0.84450422  0.99722603  1
  O  O177  1  0.54234220  0.15434152  0.04889331  1
  O  O178  1  0.54095483  0.64998802  0.04211685  1
  O  O179  1  0.95812660  0.64948867  0.04212532  1
  O  O180  1  0.95500963  0.15478661  0.04885683  1
  O  O181  1  0.03828960  0.84438377  0.99727623  1
  O  O182  1  0.74937817  0.94382636  0.04781164  1
  O  O183  1  0.24838314  0.05314863  0.00409496  1
  O  O184  1  0.74854265  0.44136924  0.04947892  1
  O  O185  1  0.24913001  0.88767457  0.03622359  1
  O  O186  1  0.74838189  0.08405470  0.01071755  1
  O  O187  1  0.74945240  0.60837839  0.08124420  1
  O  O188  1  0.24929686  0.40195567  0.05572601  1
  O  O189  1  0.45666852  0.84258919  0.08731882  1
  O  O190  1  0.54269058  0.16006434  0.14031059  1
  O  O191  1  0.54132530  0.65890667  0.13265418  1
  O  O192  1  0.45583332  0.34189005  0.09453524  1
  O  O193  1  0.04304085  0.34198019  0.09455692  1
  O  O194  1  0.95813150  0.65877801  0.13265853  1
  O  O195  1  0.95648022  0.16021511  0.14030168  1
  O  O196  1  0.04200879  0.84252164  0.08734587  1
  O  O197  1  0.74978982  0.95113810  0.14042985  1
  O  O198  1  0.24920327  0.05163650  0.08651025  1
  O  O199  1  0.24959930  0.55195586  0.09163890  1
  O  O200  1  0.74945449  0.45026123  0.13162380  1
  O  O201  1  0.24961631  0.91335092  0.12483977  1
  O  O202  1  0.74951045  0.09043146  0.10236344  1
  O  O203  1  0.74967256  0.58731012  0.17012319  1
  O  O204  1  0.24982556  0.40929598  0.14785464  1
  O  O205  1  0.45682327  0.84159960  0.17760773  1
  O  O206  1  0.54280649  0.15882907  0.23151526  1
  O  O207  1  0.54294532  0.65801356  0.22294253  1
  O  O208  1  0.45651598  0.34099912  0.18594136  1
  O  O209  1  0.04308981  0.34096618  0.18593240  1
  O  O210  1  0.95695779  0.65804154  0.22293434  1
  O  O211  1  0.95682360  0.15886943  0.23151793  1
  O  O212  1  0.04248433  0.84171621  0.17761531  1
  O  O213  1  0.74988115  0.94974657  0.23146969  1
  O  O214  1  0.24978871  0.05069360  0.17749331  1
  O  O215  1  0.24972837  0.55022165  0.18558775  1
  O  O216  1  0.74998269  0.44890467  0.22296280  1
  O  O217  1  0.24985336  0.91089211  0.21549944  1
  O  O218  1  0.74983092  0.09001332  0.19358215  1
  O  O219  1  0.75004037  0.58921808  0.26088324  1
  O  O220  1  0.24995348  0.41084860  0.23911763  1
  O  O221  1  0.45689583  0.84124661  0.26847366  1
  O  O222  1  0.54307838  0.15850438  0.32239858  1
  O  O223  1  0.54357895  0.65908845  0.31406001  1
  O  O224  1  0.45707235  0.34205905  0.27705865  1
  O  O225  1  0.04306333  0.34198731  0.27706619  1
  O  O226  1  0.95705921  0.65906174  0.31407759  1
  O  O227  1  0.95743159  0.15838968  0.32239065  1
  O  O228  1  0.04280040  0.84136448  0.26849342  1
  O  O229  1  0.75014658  0.94942840  0.32251161  1
  O  O230  1  0.25000351  0.05040245  0.26852433  1
  O  O231  1  0.25002608  0.55111828  0.27704106  1
  O  O232  1  0.75027546  0.44985264  0.31439970  1
  O  O233  1  0.25008141  0.91012191  0.30641580  1
  O  O234  1  0.75002059  0.08926131  0.28450867  1
  O  O235  1  0.75023802  0.59068427  0.35214274  1
  O  O236  1  0.25037755  0.41265892  0.32988277  1
  O  O237  1  0.45728201  0.83993185  0.35968263  1
  O  O238  1  0.54327649  0.15735519  0.41268755  1
  O  O239  1  0.54424838  0.65811620  0.40546435  1
  O  O240  1  0.45872891  0.34099161  0.36735055  1
  O  O241  1  0.04189647  0.34124536  0.36734789  1
  O  O242  1  0.95707929  0.65794442  0.40543518  1
  O  O243  1  0.95791385  0.15744313  0.41265474  1
  O  O244  1  0.04350656  0.83974435  0.35969755  1
  O  O245  1  0.75076696  0.94827372  0.41348052  1
  O  O246  1  0.25015771  0.04885416  0.35956740  1
  O  O247  1  0.25082955  0.54969165  0.36837702  1
  O  O248  1  0.75041656  0.44802321  0.40836214  1
  O  O249  1  0.25048606  0.90957697  0.39763363  1
  O  O250  1  0.75033019  0.08663769  0.37516532  1
  O  O251  1  0.75074484  0.59805497  0.44427004  1
  O  O252  1  0.25056037  0.39148187  0.41876250  1
  O  O253  1  0.45743686  0.84557871  0.45109683  1
  O  O254  1  0.54101241  0.15551438  0.50275619  1
  O  O255  1  0.45910200  0.35000170  0.45788714  1
  O  O256  1  0.04188840  0.35053662  0.45788863  1
  O  O257  1  0.96167406  0.15558880  0.50270687  1
  O  O258  1  0.04486528  0.84518102  0.45114123  1
  O  O259  1  0.75155490  0.94680864  0.49591134  1
  O  O260  1  0.25056837  0.05615719  0.45218497  1
  O  O261  1  0.25156315  0.55860351  0.45050395  1
  O  O262  1  0.25158902  0.91593314  0.48927876  1
  O  O263  1  0.75080140  0.11211752  0.46375902  1
  O  O264  1  0.04102900  0.65550832  0.49728035  1
  O  O265  1  0.95730691  0.34525703  0.54894042  1
  O  O266  1  0.95895615  0.84995604  0.54213377  1
  O  O267  1  0.54175296  0.85029573  0.54214181  1
  O  O268  1  0.54468958  0.34508881  0.54887995  1
  O  O269  1  0.46167154  0.65569843  0.49736506  1
  O  O270  1  0.75064079  0.55596451  0.54785198  1
  O  O271  1  0.25167299  0.44679251  0.50409792  1
  O  O272  1  0.75105968  0.05841061  0.54952635  1
  O  O273  1  0.25067011  0.61192224  0.53628697  1
  O  O274  1  0.75167941  0.41581380  0.51075373  1
  O  O275  1  0.75040926  0.89133224  0.58126249  1
  O  O276  1  0.25077893  0.09780197  0.55575665  1
  O  O277  1  0.04309793  0.65735821  0.58735177  1
  O  O278  1  0.95697764  0.33981677  0.64033192  1
  O  O279  1  0.95853213  0.84113929  0.63266137  1
  O  O280  1  0.04413203  0.15802080  0.59454646  1
  O  O281  1  0.45697090  0.15801209  0.59455882  1
  O  O282  1  0.54172796  0.84115525  0.63267957  1
  O  O283  1  0.54313131  0.33989786  0.64030993  1
  O  O284  1  0.45771344  0.65744228  0.58736956  1
  O  O285  1  0.75017631  0.54885418  0.64043507  1
  O  O286  1  0.25062749  0.44828205  0.58655578  1
  O  O287  1  0.25042017  0.94800513  0.59170152  1
  O  O288  1  0.75019784  0.04973492  0.63161068  1
  O  O289  1  0.25018578  0.58669375  0.62486828  1
  O  O290  1  0.75035583  0.40953283  0.60237463  1
  O  O291  1  0.75024105  0.91275815  0.67012502  1
  O  O292  1  0.25013318  0.09069993  0.64785372  1
  O  O293  1  0.04314013  0.65847778  0.67761043  1
  O  O294  1  0.95693767  0.34115670  0.73152777  1
  O  O295  1  0.95704002  0.84201942  0.72294177  1
  O  O296  1  0.04347788  0.15900096  0.68594291  1
  O  O297  1  0.45688815  0.15904792  0.68593208  1
  O  O298  1  0.54302754  0.84197902  0.72293931  1
  O  O299  1  0.54285838  0.34128962  0.73151343  1
  O  O300  1  0.45749225  0.65831156  0.67761868  1
  O  O301  1  0.75012401  0.55031139  0.73147118  1
  O  O302  1  0.25006824  0.44937106  0.67751907  1
  O  O303  1  0.25025426  0.94978601  0.68558650  1
  O  O304  1  0.75000494  0.05111146  0.72296645  1
  O  O305  1  0.25010651  0.58924110  0.71550625  1
  O  O306  1  0.75008235  0.41002152  0.69358693  1
  O  O307  1  0.74996864  0.91079194  0.76088573  1
  O  O308  1  0.25003890  0.08918201  0.73911580  1
  O  O309  1  0.04311952  0.65878263  0.76847376  1
  O  O310  1  0.95691765  0.34147550  0.82238836  1
  O  O311  1  0.95661891  0.84089818  0.81406225  1
  O  O312  1  0.04297134  0.15790803  0.77706124  1
  O  O313  1  0.45696823  0.15797594  0.77706652  1
  O  O314  1  0.54322673  0.84090597  0.81407186  1
  O  O315  1  0.54255888  0.34156960  0.82237644  1
  O  O316  1  0.45721141  0.65863274  0.76849639  1
  O  O317  1  0.74992038  0.55054154  0.82247912  1
  O  O318  1  0.24990997  0.44962622  0.76852579  1
  O  O319  1  0.25002009  0.94883814  0.77702962  1
  O  O320  1  0.74992154  0.05013773  0.81441268  1
  O  O321  1  0.24993462  0.58988933  0.80641628  1
  O  O322  1  0.74994340  0.41067544  0.78449157  1
  O  O323  1  0.74997248  0.90926087  0.85215059  1
  O  O324  1  0.24980182  0.08719897  0.82987683  1
  O  O325  1  0.04299572  0.66012869  0.85967092  1
  O  O326  1  0.95686450  0.34266928  0.91265970  1
  O  O327  1  0.95586959  0.84203585  0.90546164  1
  O  O328  1  0.04148806  0.15885515  0.86733703  1
  O  O329  1  0.45828083  0.15883538  0.86731939  1
  O  O330  1  0.54301705  0.84205324  0.90543683  1
  O  O331  1  0.54221954  0.34267106  0.91262672  1
  O  O332  1  0.45685311  0.66012911  0.85968898  1
  O  O333  1  0.74945822  0.55178246  0.91343980  1
  O  O334  1  0.24989579  0.45113564  0.85956352  1
  O  O335  1  0.24979181  0.95026792  0.86839615  1
  O  O336  1  0.74957648  0.05205274  0.90829580  1
  O  O337  1  0.24965004  0.59047100  0.89762412  1
  O  O338  1  0.74987344  0.41331159  0.87513157  1
  O  O339  1  0.74919618  0.90228055  0.94424422  1
  O  O340  1  0.24964787  0.10891121  0.91875128  1
  O  O341  1  0.04271489  0.65476041  0.95105742  1
  O  O342  1  0.95899184  0.34451433  0.00271422  1
  O  O343  1  0.04107610  0.15011404  0.95788025  1
  O  O344  1  0.45827629  0.14973846  0.95787960  1
  O  O345  1  0.53833395  0.34432698  0.00263657  1
  O  O346  1  0.45531008  0.65494096  0.95111114  1
  O  O347  1  0.74833725  0.55324162  0.99590796  1
  O  O348  1  0.24942486  0.44406399  0.95215400  1
  O  O349  1  0.24890879  0.94166025  0.95045998  1
  O  O350  1  0.24839626  0.58423809  0.98924755  1
  O  O351  1  0.74933098  0.38814779  0.96371560  1
