# generated using pymatgen
data_Li3PO4
_symmetry_space_group_name_H-M   'P 1'
_cell_length_a   6.15119200
_cell_length_b   10.55485100
_cell_length_c   50.34305582
_cell_angle_alpha   90.00000000
_cell_angle_beta   90.00000000
_cell_angle_gamma   90.00000000
_symmetry_Int_Tables_number   1
_chemical_formula_structural   Li3PO4
_chemical_formula_sum   'Li120 P40 O160'
_cell_volume   3268.51862173
_cell_formula_units_Z   40
loop_
 _symmetry_equiv_pos_site_id
 _symmetry_equiv_pos_as_xyz
  1  'x, y, z'
loop_
 _atom_site_type_symbol
 _atom_site_label
 _atom_site_symmetry_multiplicity
 _atom_site_fract_x
 _atom_site_fract_y
 _atom_site_fract_z
 _atom_site_occupancy
  Li  Li0  1  0.51508347  0.90458735  0.02634661  1
  Li  Li1  1  0.50113381  0.23617098  0.07254602  1
  Li  Li2  1  0.49033925  0.41397755  0.02700266  1
  Li  Li3  1  0.00961268  0.41399476  0.02697990  1
  Li  Li4  1  0.99846442  0.23609055  0.07250612  1
  Li  Li5  1  0.98433832  0.90469917  0.02646041  1
  Li  Li6  1  0.74975570  0.00030105  0.06832497  1
  Li  Li7  1  0.25000253  0.20793216  0.02760859  1
  Li  Li8  1  0.24997931  0.66647873  0.02286043  1
  Li  Li9  1  0.49727830  0.90927873  0.13125444  1
  Li  Li10  1  0.50051982  0.23398035  0.17014114  1
  Li  Li11  1  0.50151230  0.74160064  0.08243006  1
  Li  Li12  1  0.49946073  0.40911058  0.12154435  1
  Li  Li13  1  0.00042300  0.40913525  0.12154117  1
  Li  Li14  1  0.99818829  0.74149170  0.08243530  1
  Li  Li15  1  0.99896216  0.23385091  0.17014594  1
  Li  Li16  1  0.00250675  0.90931760  0.13125799  1
  Li  Li17  1  0.74927461  0.99585410  0.17105203  1
  Li  Li18  1  0.24978035  0.14307059  0.12933562  1
  Li  Li19  1  0.24946616  0.65152723  0.12384686  1
  Li  Li20  1  0.74967110  0.50177596  0.08226775  1
  Li  Li21  1  0.49730508  0.90752697  0.23017131  1
  Li  Li22  1  0.50171371  0.23421327  0.26951797  1
  Li  Li23  1  0.50121417  0.73505410  0.18123642  1
  Li  Li24  1  0.49867473  0.40657108  0.22013384  1
  Li  Li25  1  0.00094389  0.40641966  0.22015343  1
  Li  Li26  1  0.99888368  0.73489591  0.18109912  1
  Li  Li27  1  0.99748537  0.23431544  0.26950053  1
  Li  Li28  1  0.00123799  0.90803414  0.23015234  1
  Li  Li29  1  0.74901820  0.99598108  0.26983580  1
  Li  Li30  1  0.24957507  0.14622242  0.23006394  1
  Li  Li31  1  0.24987487  0.64582373  0.22075941  1
  Li  Li32  1  0.74997623  0.49542949  0.18077462  1
  Li  Li33  1  0.49822879  0.90795418  0.32959760  1
  Li  Li34  1  0.50097333  0.23592082  0.36845510  1
  Li  Li35  1  0.50172938  0.73454791  0.27991571  1
  Li  Li36  1  0.49752687  0.40823023  0.31925882  1
  Li  Li37  1  0.00250102  0.40820475  0.31926658  1
  Li  Li38  1  0.99792113  0.73444477  0.27989261  1
  Li  Li39  1  0.99903155  0.23591651  0.36845310  1
  Li  Li40  1  0.00137784  0.90810204  0.32958033  1
  Li  Li41  1  0.75022811  0.99921077  0.36937430  1
  Li  Li42  1  0.24994158  0.14660908  0.32855965  1
  Li  Li43  1  0.24996461  0.64670267  0.31969643  1
  Li  Li44  1  0.75041800  0.49588659  0.27954112  1
  Li  Li45  1  0.50077203  0.90941586  0.42727794  1
  Li  Li46  1  0.50281575  0.24161020  0.46856469  1
  Li  Li47  1  0.50079019  0.73474311  0.37899120  1
  Li  Li48  1  0.49482341  0.40916973  0.41877781  1
  Li  Li49  1  0.00527202  0.40915895  0.41878022  1
  Li  Li50  1  0.99936375  0.73477593  0.37897945  1
  Li  Li51  1  0.99740721  0.24159571  0.46858460  1
  Li  Li52  1  0.99944815  0.90945654  0.42728692  1
  Li  Li53  1  0.74999245  0.00197839  0.46821196  1
  Li  Li54  1  0.25001351  0.15045445  0.42707654  1
  Li  Li55  1  0.25001328  0.64347928  0.41997242  1
  Li  Li56  1  0.75059712  0.49486285  0.37879824  1
  Li  Li57  1  0.50081439  0.73628333  0.47614921  1
  Li  Li58  1  0.99920234  0.73627358  0.47615606  1
  Li  Li59  1  0.75002155  0.50022748  0.47930875  1
  Li  Li60  1  0.98458208  0.44510779  0.52643129  1
  Li  Li61  1  0.99862100  0.11355840  0.57256991  1
  Li  Li62  1  0.00960362  0.93581736  0.52699259  1
  Li  Li63  1  0.49024708  0.93547904  0.52715133  1
  Li  Li64  1  0.50133801  0.11358115  0.57252901  1
  Li  Li65  1  0.51565834  0.44516879  0.52646569  1
  Li  Li66  1  0.75030575  0.34871803  0.56840880  1
  Li  Li67  1  0.25000812  0.14195684  0.52760645  1
  Li  Li68  1  0.24992771  0.68339347  0.52285778  1
  Li  Li69  1  0.00270032  0.44059968  0.63127660  1
  Li  Li70  1  0.99946053  0.11600528  0.67014392  1
  Li  Li71  1  0.99830317  0.60801372  0.58246982  1
  Li  Li72  1  0.00055311  0.94075255  0.62155222  1
  Li  Li73  1  0.49945880  0.94077427  0.62154094  1
  Li  Li74  1  0.50182296  0.60794868  0.58247094  1
  Li  Li75  1  0.50101362  0.11614174  0.67014903  1
  Li  Li76  1  0.49744213  0.44058518  0.63126735  1
  Li  Li77  1  0.75053092  0.35414676  0.67097374  1
  Li  Li78  1  0.25020621  0.20690032  0.62933272  1
  Li  Li79  1  0.24999952  0.69731405  0.62399630  1
  Li  Li80  1  0.75023414  0.84686640  0.58243692  1
  Li  Li81  1  0.00226194  0.44236201  0.73019326  1
  Li  Li82  1  0.99775433  0.11577170  0.76948248  1
  Li  Li83  1  0.99883021  0.61490957  0.68124503  1
  Li  Li84  1  0.00130591  0.94346282  0.72012342  1
  Li  Li85  1  0.49904937  0.94359420  0.72014611  1
  Li  Li86  1  0.50125746  0.61487050  0.68125603  1
  Li  Li87  1  0.50243140  0.11575719  0.76949701  1
  Li  Li88  1  0.49860329  0.44205649  0.73014886  1
  Li  Li89  1  0.75062360  0.35399740  0.76979309  1
  Li  Li90  1  0.25040045  0.20380851  0.73005849  1
  Li  Li91  1  0.25005608  0.70420958  0.72076948  1
  Li  Li92  1  0.74998932  0.85444447  0.68077686  1
  Li  Li93  1  0.00188912  0.44235789  0.82953383  1
  Li  Li94  1  0.99905097  0.11419860  0.86845706  1
  Li  Li95  1  0.99839030  0.61580321  0.77990491  1
  Li  Li96  1  0.00260900  0.94218798  0.81923690  1
  Li  Li97  1  0.49746314  0.94218943  0.81924019  1
  Li  Li98  1  0.50179796  0.61544695  0.77991778  1
  Li  Li99  1  0.50110545  0.11418102  0.86846023  1
  Li  Li100  1  0.49828103  0.44230362  0.82954501  1
  Li  Li101  1  0.75107144  0.35108444  0.86929145  1
  Li  Li102  1  0.25024550  0.20391318  0.82871133  1
  Li  Li103  1  0.24999937  0.70528659  0.81955660  1
  Li  Li104  1  0.75002617  0.85422632  0.77956203  1
  Li  Li105  1  0.99943793  0.44059838  0.92728266  1
  Li  Li106  1  0.99720062  0.10843690  0.96855739  1
  Li  Li107  1  0.99939998  0.61530391  0.87896833  1
  Li  Li108  1  0.00525036  0.94093308  0.91878790  1
  Li  Li109  1  0.49488636  0.94085845  0.91877834  1
  Li  Li110  1  0.50066095  0.61612062  0.87865613  1
  Li  Li111  1  0.50278447  0.10841173  0.96855503  1
  Li  Li112  1  0.50051842  0.44100742  0.92716740  1
  Li  Li113  1  0.74992255  0.34805315  0.96820313  1
  Li  Li114  1  0.25004966  0.19961230  0.92706095  1
  Li  Li115  1  0.25023322  0.70657114  0.91991755  1
  Li  Li116  1  0.75073275  0.85543038  0.87880056  1
  Li  Li117  1  0.99912778  0.61375098  0.97614457  1
  Li  Li118  1  0.50082290  0.61375712  0.97613725  1
  Li  Li119  1  0.75001486  0.84974598  0.97928672  1
  P  P120  1  0.74988881  0.16579629  0.02065735  1
  P  P121  1  0.74990924  0.65677989  0.03287812  1
  P  P122  1  0.24972678  0.49477564  0.07360736  1
  P  P123  1  0.24981489  0.98550328  0.07974606  1
  P  P124  1  0.74980815  0.15893480  0.12036977  1
  P  P125  1  0.74971256  0.66268590  0.13268529  1
  P  P126  1  0.24990459  0.48146945  0.17054434  1
  P  P127  1  0.24959004  0.98265749  0.18121119  1
  P  P128  1  0.74956970  0.15940184  0.21951016  1
  P  P129  1  0.74992451  0.65986223  0.23102346  1
  P  P130  1  0.24998389  0.48215521  0.26924600  1
  P  P131  1  0.24954810  0.98219563  0.28035082  1
  P  P132  1  0.74978326  0.16026003  0.31865905  1
  P  P133  1  0.74999048  0.65965675  0.33010184  1
  P  P134  1  0.25020631  0.48285656  0.36857672  1
  P  P135  1  0.25003376  0.98362419  0.37918736  1
  P  P136  1  0.75004630  0.16435853  0.41775445  1
  P  P137  1  0.75007820  0.65927790  0.42900057  1
  P  P138  1  0.25003342  0.48765301  0.46991281  1
  P  P139  1  0.25010371  0.98710316  0.47545118  1
  P  P140  1  0.75001667  0.18400585  0.52067206  1
  P  P141  1  0.74998448  0.69278520  0.53292322  1
  P  P142  1  0.24992019  0.85456854  0.57365345  1
  P  P143  1  0.25009395  0.36416887  0.57981913  1
  P  P144  1  0.75006066  0.19085513  0.62037525  1
  P  P145  1  0.74999533  0.68700021  0.63277067  1
  P  P146  1  0.25004667  0.86844822  0.67054379  1
  P  P147  1  0.25033235  0.36729216  0.68121837  1
  P  P148  1  0.75037615  0.19064463  0.71949448  1
  P  P149  1  0.75004267  0.69019434  0.73105337  1
  P  P150  1  0.25016450  0.86808472  0.76921428  1
  P  P151  1  0.25021130  0.36784851  0.78033943  1
  P  P152  1  0.75022228  0.19004855  0.81863671  1
  P  P153  1  0.75018760  0.69088523  0.83004177  1
  P  P154  1  0.25017312  0.86755812  0.86858028  1
  P  P155  1  0.25038605  0.36664461  0.87916274  1
  P  P156  1  0.75006354  0.18587081  0.91773185  1
  P  P157  1  0.75013753  0.69077465  0.92892533  1
  P  P158  1  0.24996867  0.86237871  0.96990167  1
  P  P159  1  0.25003134  0.36291402  0.97541497  1
  O  O160  1  0.45550982  0.91720275  0.06833752  1
  O  O161  1  0.54810528  0.22849803  0.03339965  1
  O  O162  1  0.54574496  0.72588226  0.02173669  1
  O  O163  1  0.95413242  0.72589764  0.02175628  1
  O  O164  1  0.95185221  0.22843428  0.03337124  1
  O  O165  1  0.04407441  0.91727813  0.06832410  1
  O  O166  1  0.74981083  0.02149227  0.02747125  1
  O  O167  1  0.24993004  0.12733800  0.07183215  1
  O  O168  1  0.74991584  0.51654598  0.02341444  1
  O  O169  1  0.74979461  0.18383701  0.98971052  1
  O  O170  1  0.74978283  0.66356986  0.06397459  1
  O  O171  1  0.24982147  0.51205262  0.04324982  1
  O  O172  1  0.45643240  0.91198400  0.17117722  1
  O  O173  1  0.54252209  0.22983935  0.13034422  1
  O  O174  1  0.54392819  0.73397342  0.12266669  1
  O  O175  1  0.45630470  0.41793272  0.08203084  1
  O  O176  1  0.04317839  0.41786485  0.08201456  1
  O  O177  1  0.95543758  0.73404904  0.12265593  1
  O  O178  1  0.95708297  0.22983519  0.13035082  1
  O  O179  1  0.04267317  0.91213138  0.17116385  1
  O  O180  1  0.74975606  0.02119642  0.13125062  1
  O  O181  1  0.24978202  0.12047232  0.17033557  1
  O  O182  1  0.24969010  0.62845578  0.08628256  1
  O  O183  1  0.74984097  0.52410014  0.12219873  1
  O  O184  1  0.24972721  0.97569483  0.11087865  1
  O  O185  1  0.74984159  0.15760506  0.08941193  1
  O  O186  1  0.74976184  0.66080824  0.16368978  1
  O  O187  1  0.24984847  0.48169737  0.13961212  1
  O  O188  1  0.45654448  0.91213462  0.27011424  1
  O  O189  1  0.54279349  0.22935382  0.22984789  1
  O  O190  1  0.54267847  0.73011665  0.22091955  1
  O  O191  1  0.45706549  0.41109530  0.18064764  1
  O  O192  1  0.04282499  0.41106237  0.18066114  1
  O  O193  1  0.95693463  0.73022849  0.22089031  1
  O  O194  1  0.95651911  0.22924699  0.22984275  1
  O  O195  1  0.04241483  0.91223968  0.27013748  1
  O  O196  1  0.74945149  0.02035533  0.22972368  1
  O  O197  1  0.24968319  0.12121299  0.27012865  1
  O  O198  1  0.24995938  0.62043039  0.18087528  1
  O  O199  1  0.74993919  0.52098341  0.22072934  1
  O  O200  1  0.24954501  0.98334996  0.21221555  1
  O  O201  1  0.74966899  0.16058888  0.18852279  1
  O  O202  1  0.74992568  0.66029208  0.26203263  1
  O  O203  1  0.24974695  0.48125681  0.23825787  1
  O  O204  1  0.45738938  0.91295846  0.36922113  1
  O  O205  1  0.54276070  0.23078280  0.32876730  1
  O  O206  1  0.54290842  0.72998876  0.31994961  1
  O  O207  1  0.45702949  0.41201964  0.27945568  1
  O  O208  1  0.04310932  0.41190383  0.27948615  1
  O  O209  1  0.95693812  0.73004335  0.31993200  1
  O  O210  1  0.95686303  0.23075593  0.32875783  1
  O  O211  1  0.04269194  0.91294117  0.36921736  1
  O  O212  1  0.74979765  0.02188386  0.32925239  1
  O  O213  1  0.24997050  0.12203210  0.36863676  1
  O  O214  1  0.24986727  0.62103448  0.27958828  1
  O  O215  1  0.75002651  0.52091848  0.31972522  1
  O  O216  1  0.24982562  0.98144219  0.31136896  1
  O  O217  1  0.74963509  0.15980570  0.28766222  1
  O  O218  1  0.75007308  0.65985372  0.36112166  1
  O  O219  1  0.25004497  0.48268047  0.33757449  1
  O  O220  1  0.45771713  0.91465291  0.46587317  1
  O  O221  1  0.54435261  0.23455765  0.42823221  1
  O  O222  1  0.54295166  0.72931285  0.41888597  1
  O  O223  1  0.45679802  0.41248042  0.37880203  1
  O  O224  1  0.04366613  0.41241508  0.37881122  1
  O  O225  1  0.95715389  0.72935311  0.41888048  1
  O  O226  1  0.95574091  0.23455955  0.42823292  1
  O  O227  1  0.04233319  0.91468114  0.46590968  1
  O  O228  1  0.75009043  0.02515748  0.42773154  1
  O  O229  1  0.25004584  0.12597878  0.46504508  1
  O  O230  1  0.25005693  0.62120859  0.37913948  1
  O  O231  1  0.75013255  0.52033332  0.41887494  1
  O  O232  1  0.25005341  0.98442871  0.41010253  1
  O  O233  1  0.75000843  0.16486678  0.38673035  1
  O  O234  1  0.75003424  0.65994835  0.46007430  1
  O  O235  1  0.25005882  0.47745114  0.43878591  1
  O  O236  1  0.45606255  0.41975934  0.48133722  1
  O  O237  1  0.04400933  0.41973862  0.48133655  1
  O  O238  1  0.25000531  0.63079688  0.47733034  1
  O  O239  1  0.25029891  0.99042879  0.50567316  1
  O  O240  1  0.04442346  0.43234842  0.56837873  1
  O  O241  1  0.95189918  0.12131490  0.53340216  1
  O  O242  1  0.95411600  0.62367048  0.52177737  1
  O  O243  1  0.54568381  0.62373778  0.52180307  1
  O  O244  1  0.54808573  0.12145813  0.53341558  1
  O  O245  1  0.45596887  0.43217106  0.56838882  1
  O  O246  1  0.75019022  0.32830678  0.52747557  1
  O  O247  1  0.24988152  0.22221686  0.57200214  1
  O  O248  1  0.74995659  0.83303353  0.52347362  1
  O  O249  1  0.74999913  0.16596354  0.48972522  1
  O  O250  1  0.75005804  0.68576153  0.56402166  1
  O  O251  1  0.24956271  0.83745839  0.54328682  1
  O  O252  1  0.04351861  0.43798537  0.67117913  1
  O  O253  1  0.95735906  0.12004471  0.63036178  1
  O  O254  1  0.95568623  0.61570517  0.62271710  1
  O  O255  1  0.04344966  0.93148255  0.58208954  1
  O  O256  1  0.45662598  0.93150787  0.58200682  1
  O  O257  1  0.54428613  0.61570336  0.62272449  1
  O  O258  1  0.54277684  0.12002239  0.63036148  1
  O  O259  1  0.45727842  0.43779769  0.67116783  1
  O  O260  1  0.75010860  0.32866097  0.63121437  1
  O  O261  1  0.25013257  0.22947008  0.67035098  1
  O  O262  1  0.25007773  0.72091174  0.58633227  1
  O  O263  1  0.74995381  0.82562651  0.62230953  1
  O  O264  1  0.25006089  0.37431016  0.61094851  1
  O  O265  1  0.74997836  0.19192638  0.58941826  1
  O  O266  1  0.75004441  0.68880888  0.66377115  1
  O  O267  1  0.25001921  0.86803079  0.63961456  1
  O  O268  1  0.04318579  0.43796393  0.77012588  1
  O  O269  1  0.95716831  0.12069317  0.72982995  1
  O  O270  1  0.95725330  0.61991429  0.72094566  1
  O  O271  1  0.04288860  0.93885675  0.68064466  1
  O  O272  1  0.45713311  0.93890911  0.68064687  1
  O  O273  1  0.54293543  0.61982933  0.72094069  1
  O  O274  1  0.54346919  0.12079596  0.72983254  1
  O  O275  1  0.45732037  0.43782417  0.77011685  1
  O  O276  1  0.75042214  0.32967329  0.72971806  1
  O  O277  1  0.25007085  0.22886300  0.77010363  1
  O  O278  1  0.25008748  0.72950822  0.68090301  1
  O  O279  1  0.75006947  0.82904093  0.72074093  1
  O  O280  1  0.25035692  0.36668227  0.71222145  1
  O  O281  1  0.75032577  0.18951355  0.68850793  1
  O  O282  1  0.74999715  0.68980363  0.76205987  1
  O  O283  1  0.25025409  0.86891213  0.73823047  1
  O  O284  1  0.04308151  0.43731137  0.86916255  1
  O  O285  1  0.95722309  0.11959963  0.82877550  1
  O  O286  1  0.95710393  0.62057178  0.81984773  1
  O  O287  1  0.04312768  0.93816638  0.77944165  1
  O  O288  1  0.45707267  0.93826998  0.77944854  1
  O  O289  1  0.54286413  0.62060970  0.81994028  1
  O  O290  1  0.54320813  0.11960283  0.82877460  1
  O  O291  1  0.45773033  0.43725850  0.86917840  1
  O  O292  1  0.75022394  0.32855690  0.82916434  1
  O  O293  1  0.25019961  0.22815950  0.86864413  1
  O  O294  1  0.25026056  0.72923144  0.77957099  1
  O  O295  1  0.75006724  0.82968580  0.81968314  1
  O  O296  1  0.25017345  0.36864037  0.81135656  1
  O  O297  1  0.75022107  0.19022745  0.78763951  1
  O  O298  1  0.75066098  0.69072751  0.86105989  1
  O  O299  1  0.25004790  0.86810936  0.83757570  1
  O  O300  1  0.04222412  0.43533935  0.96588780  1
  O  O301  1  0.95576745  0.11565014  0.92820548  1
  O  O302  1  0.95735445  0.62075032  0.91883224  1
  O  O303  1  0.04369449  0.93790599  0.87883671  1
  O  O304  1  0.45690356  0.93772713  0.87881613  1
  O  O305  1  0.54310138  0.62095012  0.91873669  1
  O  O306  1  0.54440476  0.11556362  0.92819418  1
  O  O307  1  0.45756228  0.43549441  0.96585045  1
  O  O308  1  0.74997089  0.32501961  0.92773195  1
  O  O309  1  0.25007134  0.22405243  0.96500066  1
  O  O310  1  0.24998247  0.72910722  0.87906811  1
  O  O311  1  0.75036085  0.82980695  0.91885219  1
  O  O312  1  0.25011608  0.36584378  0.91007586  1
  O  O313  1  0.75017497  0.18550586  0.88670589  1
  O  O314  1  0.74991457  0.69000071  0.96000059  1
  O  O315  1  0.25008604  0.87268970  0.93877629  1
  O  O316  1  0.04396158  0.93029060  0.98132753  1
  O  O317  1  0.45601051  0.93020992  0.98134479  1
  O  O318  1  0.24990205  0.71923191  0.97730080  1
  O  O319  1  0.25010103  0.35938825  0.00563408  1
