# generated using pymatgen
data_Li3PO4
_symmetry_space_group_name_H-M   'P 1'
_cell_length_a   6.15119200
_cell_length_b   11.66978300
_cell_length_c   54.63177498
_cell_angle_alpha   90.00000000
_cell_angle_beta   90.00000000
_cell_angle_gamma   90.00000000
_symmetry_Int_Tables_number   1
_chemical_formula_structural   Li3PO4
_chemical_formula_sum   'Li144 P48 O192'
_cell_volume   3921.63684609
_cell_formula_units_Z   48
loop_
 _symmetry_equiv_pos_site_id
 _symmetry_equiv_pos_as_xyz
  1  'x, y, z'
loop_
 _atom_site_type_symbol
 _atom_site_label
 _atom_site_symmetry_multiplicity
 _atom_site_fract_x
 _atom_site_fract_y
 _atom_site_fract_z
 _atom_site_occupancy
  Li  Li0  1  0.51780801  0.75876916  0.05438583  1
  Li  Li1  1  0.49715742  0.13497988  0.03104888  1
  Li  Li2  1  0.51479700  0.52864257  0.08280073  1
  Li  Li3  1  0.49101136  0.37809832  0.00537532  1
  Li  Li4  1  0.00087368  0.35255461  0.01499437  1
  Li  Li5  1  0.00110345  0.52803638  0.08291484  1
  Li  Li6  1  0.02647218  0.13137875  0.03121262  1
  Li  Li7  1  0.00006693  0.75509213  0.05560322  1
  Li  Li8  1  0.77151176  0.92634542  0.01584733  1
  Li  Li9  1  0.26040792  0.96403061  0.07344114  1
  Li  Li10  1  0.25614049  0.57232004  0.03125374  1
  Li  Li11  1  0.75407929  0.33718665  0.06234352  1
  Li  Li12  1  0.50791211  0.57766679  0.13766121  1
  Li  Li13  1  0.50975987  0.95500870  0.11442874  1
  Li  Li14  1  0.50896571  0.34410920  0.16449050  1
  Li  Li15  1  0.50677030  0.18758063  0.08759218  1
  Li  Li16  1  0.01163183  0.18933727  0.08702049  1
  Li  Li17  1  0.00367580  0.34366663  0.16454712  1
  Li  Li18  1  0.00729991  0.95493086  0.11440622  1
  Li  Li19  1  0.01206131  0.57792525  0.13763687  1
  Li  Li20  1  0.75849412  0.76272316  0.09534836  1
  Li  Li21  1  0.25728213  0.77242159  0.15644756  1
  Li  Li22  1  0.26020207  0.38184655  0.10878425  1
  Li  Li23  1  0.75790632  0.14855829  0.14461755  1
  Li  Li24  1  0.50096496  0.39259231  0.22003931  1
  Li  Li25  1  0.50710822  0.77121753  0.19704283  1
  Li  Li26  1  0.50210317  0.16005465  0.24690598  1
  Li  Li27  1  0.50346311  0.00397177  0.17009499  1
  Li  Li28  1  0.00972631  0.00489404  0.17016929  1
  Li  Li29  1  0.99904033  0.16007651  0.24698190  1
  Li  Li30  1  0.00446814  0.77093833  0.19704946  1
  Li  Li31  1  0.00724360  0.39289221  0.21988122  1
  Li  Li32  1  0.75757661  0.57560384  0.17780300  1
  Li  Li33  1  0.25097692  0.58844898  0.23935786  1
  Li  Li34  1  0.25365513  0.19784725  0.19002310  1
  Li  Li35  1  0.75228863  0.96608987  0.22684844  1
  Li  Li36  1  0.49221586  0.20784976  0.30222358  1
  Li  Li37  1  0.50159602  0.58643318  0.27951548  1
  Li  Li38  1  0.49692910  0.97606786  0.32944744  1
  Li  Li39  1  0.49825201  0.81871893  0.25273105  1
  Li  Li40  1  0.00199605  0.81918812  0.25263001  1
  Li  Li41  1  0.99392024  0.97603207  0.32961377  1
  Li  Li42  1  0.99698241  0.58613030  0.27964712  1
  Li  Li43  1  0.99895923  0.20950912  0.30249458  1
  Li  Li44  1  0.75012194  0.39061073  0.25999081  1
  Li  Li45  1  0.24594123  0.40452694  0.32176705  1
  Li  Li46  1  0.24861890  0.01351032  0.27261802  1
  Li  Li47  1  0.74723663  0.78233782  0.30937375  1
  Li  Li48  1  0.49135660  0.02772698  0.38459894  1
  Li  Li49  1  0.49501791  0.40397663  0.36189881  1
  Li  Li50  1  0.49536780  0.79287727  0.41244867  1
  Li  Li51  1  0.49224573  0.63601333  0.33526771  1
  Li  Li52  1  0.99500776  0.63628795  0.33518949  1
  Li  Li53  1  0.99522263  0.78943102  0.41105970  1
  Li  Li54  1  0.98923892  0.40534559  0.36196063  1
  Li  Li55  1  0.99426029  0.02675139  0.38482389  1
  Li  Li56  1  0.74174753  0.20828004  0.34217969  1
  Li  Li57  1  0.24171004  0.22770117  0.40407044  1
  Li  Li58  1  0.24599782  0.82978067  0.35515873  1
  Li  Li59  1  0.74131568  0.60252588  0.39230854  1
  Li  Li60  1  0.49258760  0.84978629  0.46661296  1
  Li  Li61  1  0.50058170  0.22996745  0.44420287  1
  Li  Li62  1  0.49657310  0.57066609  0.49734937  1
  Li  Li63  1  0.49655002  0.45602020  0.41673561  1
  Li  Li64  1  0.98549794  0.45668272  0.41731575  1
  Li  Li65  1  0.00427869  0.56952452  0.49713884  1
  Li  Li66  1  0.97953955  0.23222108  0.44465350  1
  Li  Li67  1  0.97052643  0.86743955  0.45643734  1
  Li  Li68  1  0.73682734  0.03426875  0.42591744  1
  Li  Li69  1  0.24993615  0.09573252  0.47893182  1
  Li  Li70  1  0.24604055  0.64592581  0.44096812  1
  Li  Li71  1  0.72616540  0.41211955  0.47564922  1
  Li  Li72  1  0.49945242  0.54504074  0.55562952  1
  Li  Li73  1  0.52649179  0.16872285  0.53130226  1
  Li  Li74  1  0.50091998  0.77233731  0.58308920  1
  Li  Li75  1  0.50047397  0.94717962  0.51481415  1
  Li  Li76  1  0.99159099  0.92436677  0.50587224  1
  Li  Li77  1  0.01432901  0.77168794  0.58291268  1
  Li  Li78  1  0.99794468  0.16629622  0.53118979  1
  Li  Li79  1  0.01576262  0.54259078  0.55463994  1
  Li  Li80  1  0.27125525  0.37395532  0.51586466  1
  Li  Li81  1  0.76012850  0.33627731  0.57346870  1
  Li  Li82  1  0.75621602  0.72850518  0.53125701  1
  Li  Li83  1  0.25382205  0.96364758  0.56249444  1
  Li  Li84  1  0.51069462  0.72243530  0.63778712  1
  Li  Li85  1  0.50674715  0.34555513  0.61448951  1
  Li  Li86  1  0.50154553  0.95691489  0.66479503  1
  Li  Li87  1  0.50849625  0.11188038  0.58744592  1
  Li  Li88  1  0.00597732  0.11266362  0.58769645  1
  Li  Li89  1  0.00564667  0.95680793  0.66477937  1
  Li  Li90  1  0.00916010  0.34492338  0.61452398  1
  Li  Li91  1  0.00488162  0.72308671  0.63778049  1
  Li  Li92  1  0.25784003  0.53751212  0.59540806  1
  Li  Li93  1  0.75621155  0.52782164  0.65655002  1
  Li  Li94  1  0.75832068  0.91819786  0.60899612  1
  Li  Li95  1  0.25686264  0.15160761  0.64466604  1
  Li  Li96  1  0.50495456  0.90715500  0.72008378  1
  Li  Li97  1  0.50109494  0.52970967  0.69736521  1
  Li  Li98  1  0.49831039  0.13978274  0.74706765  1
  Li  Li99  1  0.50615043  0.29634271  0.67024562  1
  Li  Li100  1  0.00092483  0.29656923  0.67014487  1
  Li  Li101  1  0.00114847  0.13963052  0.74698149  1
  Li  Li102  1  0.00542233  0.52860537  0.69716672  1
  Li  Li103  1  0.99974820  0.90716530  0.72022470  1
  Li  Li104  1  0.25298882  0.72482106  0.67791853  1
  Li  Li105  1  0.75008482  0.71174579  0.73953543  1
  Li  Li106  1  0.75255419  0.10287324  0.69026157  1
  Li  Li107  1  0.25005461  0.33368916  0.72711704  1
  Li  Li108  1  0.49788282  0.08990212  0.80267023  1
  Li  Li109  1  0.49604349  0.71298480  0.77976907  1
  Li  Li110  1  0.49130906  0.32298652  0.82967472  1
  Li  Li111  1  0.50001881  0.48037981  0.75283747  1
  Li  Li112  1  0.99653388  0.48074563  0.75286400  1
  Li  Li113  1  0.99347383  0.32289278  0.82953795  1
  Li  Li114  1  0.99981257  0.71214929  0.77985283  1
  Li  Li115  1  0.99116740  0.09106612  0.80235068  1
  Li  Li116  1  0.24867276  0.90835280  0.76038016  1
  Li  Li117  1  0.74452383  0.89484207  0.82185179  1
  Li  Li118  1  0.74815568  0.28594349  0.77267550  1
  Li  Li119  1  0.24440750  0.51663307  0.80949497  1
  Li  Li120  1  0.49318321  0.27272623  0.88491404  1
  Li  Li121  1  0.48854311  0.89460349  0.86219256  1
  Li  Li122  1  0.49364236  0.51058698  0.91111199  1
  Li  Li123  1  0.49281270  0.66298014  0.83543736  1
  Li  Li124  1  0.99098772  0.66339739  0.83530720  1
  Li  Li125  1  0.99190582  0.50680700  0.91262712  1
  Li  Li126  1  0.99312964  0.89438755  0.86182203  1
  Li  Li127  1  0.98902951  0.27216853  0.88476717  1
  Li  Li128  1  0.24016300  0.09152862  0.84228547  1
  Li  Li129  1  0.73961175  0.07142168  0.90424728  1
  Li  Li130  1  0.74435988  0.46957456  0.85522445  1
  Li  Li131  1  0.23740731  0.69662201  0.89223542  1
  Li  Li132  1  0.46549233  0.43253547  0.95626186  1
  Li  Li133  1  0.47706742  0.06867716  0.94462022  1
  Li  Li134  1  0.50239804  0.73095757  0.99712175  1
  Li  Li135  1  0.48402287  0.84301913  0.91730210  1
  Li  Li136  1  0.99503066  0.84387413  0.91676651  1
  Li  Li137  1  0.99403125  0.72934216  0.99715089  1
  Li  Li138  1  0.99992485  0.07013785  0.94423678  1
  Li  Li139  1  0.98985836  0.45089975  0.96687182  1
  Li  Li140  1  0.23581825  0.26587533  0.92585354  1
  Li  Li141  1  0.74918640  0.20441054  0.97899028  1
  Li  Li142  1  0.74278279  0.65500119  0.94168928  1
  Li  Li143  1  0.22344594  0.88817013  0.97566114  1
  P  P144  1  0.26761137  0.90767088  0.02699892  1
  P  P145  1  0.76082724  0.99030369  0.06676918  1
  P  P146  1  0.75626474  0.55466673  0.03264150  1
  P  P147  1  0.26195246  0.34666329  0.05285670  1
  P  P148  1  0.25921419  0.72863464  0.10279809  1
  P  P149  1  0.75798632  0.80308527  0.14943097  1
  P  P150  1  0.75915580  0.37342914  0.11758105  1
  P  P151  1  0.25710885  0.15828215  0.13462020  1
  P  P152  1  0.25622263  0.54506490  0.18529072  1
  P  P153  1  0.75256789  0.61814929  0.23179072  1
  P  P154  1  0.75366233  0.18957877  0.19991939  1
  P  P155  1  0.25272001  0.97388758  0.21729167  1
  P  P156  1  0.24941262  0.36101875  0.26770867  1
  P  P157  1  0.74578181  0.43432289  0.31406012  1
  P  P158  1  0.74874947  0.00557209  0.28244271  1
  P  P159  1  0.24711415  0.78957754  0.29974195  1
  P  P160  1  0.24228986  0.17815656  0.35043412  1
  P  P161  1  0.74300551  0.25125978  0.39611247  1
  P  P162  1  0.74445204  0.82406911  0.36504674  1
  P  P163  1  0.24396973  0.60864695  0.38191643  1
  P  P164  1  0.24397925  0.99959857  0.43395065  1
  P  P165  1  0.74732175  0.06672525  0.48102939  1
  P  P166  1  0.74375176  0.64404888  0.44858083  1
  P  P167  1  0.23641725  0.43275399  0.46028646  1
  P  P168  1  0.76728533  0.39269430  0.52705542  1
  P  P169  1  0.26012064  0.31042589  0.56687886  1
  P  P170  1  0.25611341  0.74586547  0.53279700  1
  P  P171  1  0.76074558  0.95416501  0.55299730  1
  P  P172  1  0.75849163  0.57161405  0.60292475  1
  P  P173  1  0.25614534  0.49749212  0.64953254  1
  P  P174  1  0.25744452  0.92674133  0.61778913  1
  P  P175  1  0.75542189  0.14211822  0.63475392  1
  P  P176  1  0.75318725  0.75515245  0.68549227  1
  P  P177  1  0.25054348  0.68161599  0.73197707  1
  P  P178  1  0.25221946  0.11072861  0.70005694  1
  P  P179  1  0.75068203  0.32629422  0.71741945  1
  P  P180  1  0.74790385  0.93841459  0.76791170  1
  P  P181  1  0.24459397  0.86486663  0.81423969  1
  P  P182  1  0.24715142  0.29366707  0.78260433  1
  P  P183  1  0.74468529  0.50933997  0.79985519  1
  P  P184  1  0.74106929  0.12099292  0.85057102  1
  P  P185  1  0.24098059  0.04841432  0.89616613  1
  P  P186  1  0.24205070  0.47513056  0.86514883  1
  P  P187  1  0.74164180  0.69054214  0.88194665  1
  P  P188  1  0.74185612  0.30052843  0.93410030  1
  P  P189  1  0.24574991  0.23372266  0.98106232  1
  P  P190  1  0.24121452  0.65612901  0.94859842  1
  P  P191  1  0.73341385  0.86786910  0.96027481  1
  O  O192  1  0.47934824  0.87514058  0.01372795  1
  O  O193  1  0.55513770  0.02656624  0.08149641  1
  O  O194  1  0.54834065  0.62927588  0.02890906  1
  O  O195  1  0.46448844  0.26805008  0.05491196  1
  O  O196  1  0.04797643  0.27363223  0.05287272  1
  O  O197  1  0.96231161  0.63152030  0.02906101  1
  O  O198  1  0.96587422  0.02751918  0.08152797  1
  O  O199  1  0.07048091  0.87840606  0.01046187  1
  O  O200  1  0.76110681  0.85739541  0.06352841  1
  O  O201  1  0.26384977  0.03485177  0.03482087  1
  O  O202  1  0.25780359  0.43653260  0.07377125  1
  O  O203  1  0.75992461  0.45303199  0.01409179  1
  O  O204  1  0.25372257  0.83528006  0.05096516  1
  O  O205  1  0.76246779  0.05040690  0.04113679  1
  O  O206  1  0.75730070  0.50596444  0.05944161  1
  O  O207  1  0.26641060  0.41196278  0.02799808  1
  O  O208  1  0.46716891  0.68952303  0.08858440  1
  O  O209  1  0.55049314  0.84098270  0.16372861  1
  O  O210  1  0.55296329  0.45013726  0.11502784  1
  O  O211  1  0.46411795  0.08239597  0.13741608  1
  O  O212  1  0.05055775  0.08207970  0.13745689  1
  O  O213  1  0.96578428  0.44982785  0.11519152  1
  O  O214  1  0.96484469  0.84166480  0.16373466  1
  O  O215  1  0.05017839  0.68864822  0.08884881  1
  O  O216  1  0.75909166  0.67044745  0.14659763  1
  O  O217  1  0.25844880  0.86048344  0.10625757  1
  O  O218  1  0.25633469  0.25340998  0.15458343  1
  O  O219  1  0.75982959  0.28158403  0.09692757  1
  O  O220  1  0.25999791  0.66943089  0.12851378  1
  O  O221  1  0.75789353  0.86125824  0.12372850  1
  O  O222  1  0.75741426  0.31473892  0.14318602  1
  O  O223  1  0.25762231  0.21507141  0.10870042  1
  O  O224  1  0.46405070  0.50665811  0.17112240  1
  O  O225  1  0.54498201  0.65622897  0.24605313  1
  O  O226  1  0.54706711  0.26595579  0.19711075  1
  O  O227  1  0.45925384  0.89751258  0.22007128  1
  O  O228  1  0.04545167  0.89784076  0.21986078  1
  O  O229  1  0.96101072  0.26562793  0.19724103  1
  O  O230  1  0.95883115  0.65648420  0.24624158  1
  O  O231  1  0.04968627  0.50625767  0.17094679  1
  O  O232  1  0.75307725  0.48563303  0.22882142  1
  O  O233  1  0.25554937  0.67759014  0.18809217  1
  O  O234  1  0.25108602  0.06809186  0.23741520  1
  O  O235  1  0.75506681  0.09499303  0.17989378  1
  O  O236  1  0.25460612  0.48726686  0.21106520  1
  O  O237  1  0.75437867  0.67662935  0.20610946  1
  O  O238  1  0.75175022  0.13302690  0.22580798  1
  O  O239  1  0.25517386  0.03120707  0.19147457  1
  O  O240  1  0.45694424  0.32246235  0.25351013  1
  O  O241  1  0.53854552  0.47296541  0.32828926  1
  O  O242  1  0.54168239  0.08167990  0.27965960  1
  O  O243  1  0.45398655  0.71330865  0.30243980  1
  O  O244  1  0.03950452  0.71373625  0.30235195  1
  O  O245  1  0.95568663  0.08191987  0.27983430  1
  O  O246  1  0.95235632  0.47302533  0.32840406  1
  O  O247  1  0.04316451  0.32260641  0.25329275  1
  O  O248  1  0.74529501  0.30168517  0.31121212  1
  O  O249  1  0.24961125  0.49347446  0.27061803  1
  O  O250  1  0.24623754  0.88397770  0.31985353  1
  O  O251  1  0.75006275  0.91098865  0.26241342  1
  O  O252  1  0.24733608  0.30307190  0.29346647  1
  O  O253  1  0.74776743  0.49181753  0.28828388  1
  O  O254  1  0.74693337  0.94911111  0.30836029  1
  O  O255  1  0.24890832  0.84658829  0.27389779  1
  O  O256  1  0.44905902  0.13907952  0.33615973  1
  O  O257  1  0.53611833  0.28956438  0.41030630  1
  O  O258  1  0.53845521  0.90085721  0.36224276  1
  O  O259  1  0.45160708  0.53240522  0.38419514  1
  O  O260  1  0.03413473  0.53422491  0.38444203  1
  O  O261  1  0.95320009  0.89942954  0.36261240  1
  O  O262  1  0.94905270  0.29024005  0.41031318  1
  O  O263  1  0.03559032  0.13906401  0.33619839  1
  O  O264  1  0.74378563  0.11811893  0.39387128  1
  O  O265  1  0.24255993  0.31066178  0.35322553  1
  O  O266  1  0.24715940  0.70473361  0.40160047  1
  O  O267  1  0.74466873  0.72968364  0.34501310  1
  O  O268  1  0.24211573  0.12106730  0.37635573  1
  O  O269  1  0.74254554  0.30785025  0.37030614  1
  O  O270  1  0.74231359  0.76844414  0.39102120  1
  O  O271  1  0.24398078  0.66450591  0.35587599  1
  O  O272  1  0.44611703  0.96207756  0.41898015  1
  O  O273  1  0.53809857  0.09189715  0.49643333  1
  O  O274  1  0.53834034  0.72293092  0.44581818  1
  O  O275  1  0.43680995  0.35391829  0.46359887  1
  O  O276  1  0.02173979  0.36462516  0.46292639  1
  O  O277  1  0.95112030  0.71967024  0.44451390  1
  O  O278  1  0.96106475  0.09229987  0.49553383  1
  O  O279  1  0.03057301  0.95750613  0.42113121  1
  O  O280  1  0.74998745  0.93399242  0.47576951  1
  O  O281  1  0.24047192  0.13185487  0.43781521  1
  O  O282  1  0.24889042  0.53632006  0.47819423  1
  O  O283  1  0.73783445  0.55103018  0.42817780  1
  O  O284  1  0.24835373  0.94396894  0.45999285  1
  O  O285  1  0.74092477  0.13177128  0.45611442  1
  O  O286  1  0.74720343  0.59120134  0.47469320  1
  O  O287  1  0.24286486  0.48560641  0.43392463  1
  O  O288  1  0.56987657  0.42186973  0.51057369  1
  O  O289  1  0.46506855  0.27334830  0.58167000  1
  O  O290  1  0.46240927  0.66923074  0.52916676  1
  O  O291  1  0.54702060  0.02728239  0.55307290  1
  O  O292  1  0.96377896  0.03256839  0.55498392  1
  O  O293  1  0.04829636  0.67113889  0.52905896  1
  O  O294  1  0.05448879  0.27376722  0.58157826  1
  O  O295  1  0.97862468  0.42515488  0.51369943  1
  O  O296  1  0.25982476  0.44329781  0.56363893  1
  O  O297  1  0.76368036  0.26552118  0.53489533  1
  O  O298  1  0.75688799  0.86416345  0.57389696  1
  O  O299  1  0.25893702  0.84767129  0.51428862  1
  O  O300  1  0.75342239  0.46505448  0.55103090  1
  O  O301  1  0.26247656  0.25032795  0.54124699  1
  O  O302  1  0.25714319  0.79442494  0.55961108  1
  O  O303  1  0.76513823  0.88895229  0.52811232  1
  O  O304  1  0.54959157  0.61154483  0.58894855  1
  O  O305  1  0.46269267  0.45913988  0.66391840  1
  O  O306  1  0.46439242  0.85055173  0.61540085  1
  O  O307  1  0.54887148  0.21839157  0.63751883  1
  O  O308  1  0.96261483  0.21789140  0.63752684  1
  O  O309  1  0.05150817  0.84998050  0.61515259  1
  O  O310  1  0.04859026  0.45928707  0.66380194  1
  O  O311  1  0.96637653  0.61085720  0.58871546  1
  O  O312  1  0.25658894  0.63011902  0.64670180  1
  O  O313  1  0.75807918  0.43977257  0.60638166  1
  O  O314  1  0.75415483  0.04724256  0.65476565  1
  O  O315  1  0.25829272  0.01876604  0.59715954  1
  O  O316  1  0.75871704  0.63085178  0.62863707  1
  O  O317  1  0.25683561  0.43923971  0.62383833  1
  O  O318  1  0.25499019  0.98532183  0.64340951  1
  O  O319  1  0.75614454  0.08515032  0.60885514  1
  O  O320  1  0.54619965  0.79400431  0.67123889  1
  O  O321  1  0.45720939  0.64311200  0.74633560  1
  O  O322  1  0.45955296  0.03469935  0.69740100  1
  O  O323  1  0.54333069  0.40219537  0.72011715  1
  O  O324  1  0.95747890  0.40248443  0.72020725  1
  O  O325  1  0.04537025  0.03438125  0.69735054  1
  O  O326  1  0.04330132  0.64333266  0.74628095  1
  O  O327  1  0.96037881  0.79385000  0.67122917  1
  O  O328  1  0.25102615  0.81414315  0.72908185  1
  O  O329  1  0.75326860  0.62263411  0.68828384  1
  O  O330  1  0.74989263  0.23168412  0.73746653  1
  O  O331  1  0.25303215  0.20511262  0.67999283  1
  O  O332  1  0.75255771  0.81287546  0.71127881  1
  O  O333  1  0.25153019  0.62351544  0.70625441  1
  O  O334  1  0.25080014  0.16728817  0.72594206  1
  O  O335  1  0.75245877  0.26946362  0.69155198  1
  O  O336  1  0.54163647  0.97688215  0.75350555  1
  O  O337  1  0.45082525  0.82645825  0.82865411  1
  O  O338  1  0.45468262  0.21775323  0.77998209  1
  O  O339  1  0.53725120  0.58524895  0.80245294  1
  O  O340  1  0.95179758  0.58541848  0.80261856  1
  O  O341  1  0.04057107  0.21722415  0.77974773  1
  O  O342  1  0.03689796  0.82627001  0.82840045  1
  O  O343  1  0.95542967  0.97701386  0.75371960  1
  O  O344  1  0.24402352  0.99744099  0.81130202  1
  O  O345  1  0.74822155  0.80594874  0.77085626  1
  O  O346  1  0.74334209  0.41478965  0.81992120  1
  O  O347  1  0.24798005  0.38857263  0.76264198  1
  O  O348  1  0.74572440  0.99632682  0.79367296  1
  O  O349  1  0.24665912  0.80682273  0.78852189  1
  O  O350  1  0.24443599  0.34982715  0.80854978  1
  O  O351  1  0.74705857  0.45267510  0.77398271  1
  O  O352  1  0.53417714  0.16004161  0.83635276  1
  O  O353  1  0.44714243  0.00938484  0.91035093  1
  O  O354  1  0.45066910  0.39973707  0.86268654  1
  O  O355  1  0.53155748  0.76479677  0.88447304  1
  O  O356  1  0.94902113  0.76697840  0.88424264  1
  O  O357  1  0.03605802  0.39840237  0.86228922  1
  O  O358  1  0.03431463  0.01039183  0.91043963  1
  O  O359  1  0.94764094  0.16001750  0.83625623  1
  O  O360  1  0.24226407  0.18156389  0.89391955  1
  O  O361  1  0.74135490  0.98852330  0.85336737  1
  O  O362  1  0.74510553  0.59441129  0.90159319  1
  O  O363  1  0.24255533  0.56968588  0.84514781  1
  O  O364  1  0.74102379  0.17823421  0.87647775  1
  O  O365  1  0.24025385  0.99152494  0.87039617  1
  O  O366  1  0.23977880  0.53064343  0.89113846  1
  O  O367  1  0.74216705  0.63478716  0.85589497  1
  O  O368  1  0.52853665  0.34242640  0.92121099  1
  O  O369  1  0.45968033  0.20842551  0.99551619  1
  O  O370  1  0.44857830  0.58047852  0.94456902  1
  O  O371  1  0.51825172  0.93551800  0.96291275  1
  O  O372  1  0.93317108  0.94691413  0.96377037  1
  O  O373  1  0.03564656  0.57729804  0.94593975  1
  O  O374  1  0.03687616  0.20822615  0.99649002  1
  O  O375  1  0.94411699  0.33782130  0.91912338  1
  O  O376  1  0.24761718  0.36650573  0.97583098  1
  O  O377  1  0.73855293  0.16828373  0.93799993  1
  O  O378  1  0.74640904  0.76355009  0.97802975  1
  O  O379  1  0.23568878  0.74889879  0.92816047  1
  O  O380  1  0.74541203  0.35657893  0.96009767  1
  O  O381  1  0.23912921  0.16880627  0.95613328  1
  O  O382  1  0.24498740  0.70923577  0.97468689  1
  O  O383  1  0.74108468  0.81515219  0.93391648  1
