# generated using pymatgen
data_Li3PO4
_symmetry_space_group_name_H-M   'P 1'
_cell_length_a   6.15119200
_cell_length_b   11.66978300
_cell_length_c   40.67048105
_cell_angle_alpha   90.00000000
_cell_angle_beta   90.00000000
_cell_angle_gamma   90.00000000
_symmetry_Int_Tables_number   1
_chemical_formula_structural   Li3PO4
_chemical_formula_sum   'Li108 P36 O144'
_cell_volume   2919.45222524
_cell_formula_units_Z   36
loop_
 _symmetry_equiv_pos_site_id
 _symmetry_equiv_pos_as_xyz
  1  'x, y, z'
loop_
 _atom_site_type_symbol
 _atom_site_label
 _atom_site_symmetry_multiplicity
 _atom_site_fract_x
 _atom_site_fract_y
 _atom_site_fract_z
 _atom_site_occupancy
  Li  Li0  1  0.69650715  0.99006676  0.07299030  1
  Li  Li1  1  0.77226822  0.19152412  0.05350553  1
  Li  Li2  1  0.19542595  0.25181749  0.02866145  1
  Li  Li3  1  0.12779927  0.60327728  0.03753162  1
  Li  Li4  1  0.17735743  0.01255537  0.06959452  1
  Li  Li5  1  0.22250417  0.81478339  0.98868397  1
  Li  Li6  1  0.89868194  0.81396557  0.02986354  1
  Li  Li7  1  0.46443923  0.00849758  0.02298206  1
  Li  Li8  1  0.46699597  0.42251959  0.07822485  1
  Li  Li9  1  0.76149084  0.63328828  0.07453092  1
  Li  Li10  1  0.72360714  0.81570122  0.17833396  1
  Li  Li11  1  0.73211558  0.39620782  0.13750869  1
  Li  Li12  1  0.72542394  0.04676586  0.14359753  1
  Li  Li13  1  0.22427251  0.04512797  0.14288305  1
  Li  Li14  1  0.23412520  0.39343397  0.14050155  1
  Li  Li15  1  0.21886172  0.81549153  0.17759692  1
  Li  Li16  1  0.23952115  0.62430630  0.09928911  1
  Li  Li17  1  0.96834441  0.62142088  0.15031800  1
  Li  Li18  1  0.47682299  0.81548290  0.12070467  1
  Li  Li19  1  0.47467754  0.24160789  0.17216438  1
  Li  Li20  1  0.98536145  0.20349755  0.11170441  1
  Li  Li21  1  0.71150021  0.44344814  0.20913895  1
  Li  Li22  1  0.71789614  0.63272023  0.28802467  1
  Li  Li23  1  0.72045091  0.20648562  0.24652062  1
  Li  Li24  1  0.71983873  0.86694200  0.25323461  1
  Li  Li25  1  0.22172958  0.86670370  0.25319932  1
  Li  Li26  1  0.21777958  0.20614908  0.24680177  1
  Li  Li27  1  0.21134880  0.62913088  0.29090378  1
  Li  Li28  1  0.21811723  0.43965860  0.21192781  1
  Li  Li29  1  0.96008559  0.43555605  0.26374954  1
  Li  Li30  1  0.45946691  0.63703261  0.23626784  1
  Li  Li31  1  0.47198533  0.06128816  0.28043191  1
  Li  Li32  1  0.97203297  0.01140636  0.21954846  1
  Li  Li33  1  0.71912479  0.25697510  0.32240598  1
  Li  Li34  1  0.73791778  0.44967466  0.40100887  1
  Li  Li35  1  0.72408087  0.02843775  0.35678259  1
  Li  Li36  1  0.73490833  0.67985386  0.35946828  1
  Li  Li37  1  0.23349381  0.67781065  0.36232400  1
  Li  Li38  1  0.22409111  0.02767377  0.35646374  1
  Li  Li39  1  0.25964384  0.44172429  0.42538924  1
  Li  Li40  1  0.22328521  0.25737249  0.32181139  1
  Li  Li41  1  0.97472375  0.25898892  0.37968864  1
  Li  Li42  1  0.46658091  0.45150162  0.34936147  1
  Li  Li43  1  0.48417747  0.87134732  0.38798863  1
  Li  Li44  1  0.97467881  0.83219953  0.32774660  1
  Li  Li45  1  0.67894782  0.06185862  0.43005019  1
  Li  Li46  1  0.71953900  0.25927459  0.51170977  1
  Li  Li47  1  0.69669124  0.82388119  0.47101832  1
  Li  Li48  1  0.62903086  0.47156502  0.46273485  1
  Li  Li49  1  0.27357111  0.88264943  0.44630940  1
  Li  Li50  1  0.19595829  0.08529837  0.42705067  1
  Li  Li51  1  0.96260378  0.06492533  0.47686282  1
  Li  Li52  1  0.40090548  0.26056263  0.46981683  1
  Li  Li53  1  0.96659856  0.65260932  0.42178345  1
  Li  Li54  1  0.60690181  0.58531602  0.57345708  1
  Li  Li55  1  0.52683619  0.38325320  0.55359080  1
  Li  Li56  1  0.10295718  0.32430805  0.52894987  1
  Li  Li57  1  0.17378957  0.97169315  0.53747574  1
  Li  Li58  1  0.12337394  0.56176062  0.56971878  1
  Li  Li59  1  0.08091568  0.75963041  0.48841793  1
  Li  Li60  1  0.40254704  0.76094127  0.52997953  1
  Li  Li61  1  0.83489732  0.56652933  0.52305498  1
  Li  Li62  1  0.83332016  0.15315758  0.57835071  1
  Li  Li63  1  0.53989045  0.94207871  0.57484651  1
  Li  Li64  1  0.57901699  0.75909730  0.67846552  1
  Li  Li65  1  0.56923989  0.17888864  0.63762807  1
  Li  Li66  1  0.57457316  0.52748239  0.64378784  1
  Li  Li67  1  0.07460187  0.52861625  0.64329266  1
  Li  Li68  1  0.06802202  0.18116088  0.64103413  1
  Li  Li69  1  0.08325672  0.75770145  0.67779250  1
  Li  Li70  1  0.06086402  0.95017880  0.59934076  1
  Li  Li71  1  0.33446904  0.95288285  0.65043606  1
  Li  Li72  1  0.82630011  0.75833147  0.62080035  1
  Li  Li73  1  0.82422707  0.33379670  0.67283452  1
  Li  Li74  1  0.31528441  0.37173130  0.61180621  1
  Li  Li75  1  0.58980248  0.13010541  0.70909877  1
  Li  Li76  1  0.58282918  0.94107182  0.78827942  1
  Li  Li77  1  0.57990190  0.36820427  0.74667587  1
  Li  Li78  1  0.58047687  0.70835818  0.75347426  1
  Li  Li79  1  0.07886949  0.70933430  0.75354013  1
  Li  Li80  1  0.08223723  0.36838769  0.74677632  1
  Li  Li81  1  0.08798432  0.94559455  0.79102054  1
  Li  Li82  1  0.08335454  0.13395921  0.71202031  1
  Li  Li83  1  0.34024782  0.13799278  0.76345627  1
  Li  Li84  1  0.83989595  0.93742106  0.73657954  1
  Li  Li85  1  0.82891776  0.51310335  0.78060395  1
  Li  Li86  1  0.32633173  0.56411359  0.71951267  1
  Li  Li87  1  0.58222921  0.31804237  0.82232737  1
  Li  Li88  1  0.55924759  0.12553219  0.90054883  1
  Li  Li89  1  0.57549513  0.54791892  0.85660869  1
  Li  Li90  1  0.56583609  0.89563084  0.85904645  1
  Li  Li91  1  0.06633880  0.89808801  0.86249449  1
  Li  Li92  1  0.07392800  0.54810778  0.85628610  1
  Li  Li93  1  0.03919307  0.13433183  0.92539984  1
  Li  Li94  1  0.07845318  0.31724881  0.82151319  1
  Li  Li95  1  0.32439851  0.31682378  0.87932141  1
  Li  Li96  1  0.83378802  0.12361361  0.84971299  1
  Li  Li97  1  0.81580892  0.70548024  0.88869677  1
  Li  Li98  1  0.32329893  0.74336303  0.82832505  1
  Li  Li99  1  0.61974375  0.51361510  0.92999913  1
  Li  Li100  1  0.58183487  0.31574274  0.01162940  1
  Li  Li101  1  0.60196610  0.75173039  0.97090942  1
  Li  Li102  1  0.66971084  0.10384548  0.96265626  1
  Li  Li103  1  0.02745153  0.69475593  0.94628498  1
  Li  Li104  1  0.10117297  0.49148631  0.92694968  1
  Li  Li105  1  0.33272250  0.50982291  0.97664973  1
  Li  Li106  1  0.89898833  0.31581940  0.96956049  1
  Li  Li107  1  0.33203137  0.92394416  0.92168614  1
  P  P108  1  0.42365428  0.79947928  0.04766000  1
  P  P109  1  0.98092050  0.04955520  0.00431436  1
  P  P110  1  0.97151284  0.40887066  0.07913139  1
  P  P111  1  0.47484687  0.59342910  0.16431450  1
  P  P112  1  0.96598372  0.84485885  0.11224638  1
  P  P113  1  0.97254003  0.23362206  0.18412663  1
  P  P114  1  0.46822805  0.20792528  0.09448594  1
  P  P115  1  0.46622928  0.40745706  0.27475367  1
  P  P116  1  0.96632592  0.66504702  0.22522727  1
  P  P117  1  0.97200138  0.05386922  0.29423115  1
  P  P118  1  0.47175796  0.01927883  0.20566246  1
  P  P119  1  0.46504526  0.22897612  0.38782517  1
  P  P120  1  0.97402020  0.47972252  0.33570973  1
  P  P121  1  0.96856038  0.86669227  0.40529108  1
  P  P122  1  0.47260112  0.83965289  0.31571255  1
  P  P123  1  0.48053585  0.02459907  0.49548434  1
  P  P124  1  0.92444346  0.27536368  0.45250392  1
  P  P125  1  0.47185653  0.66557564  0.42077518  1
  P  P126  1  0.87740675  0.77552377  0.54760822  1
  P  P127  1  0.31954409  0.52497388  0.50439031  1
  P  P128  1  0.32837143  0.16604267  0.57932672  1
  P  P129  1  0.82764914  0.98073272  0.66439985  1
  P  P130  1  0.33536849  0.72915548  0.61241672  1
  P  P131  1  0.32759568  0.34096665  0.68438365  1
  P  P132  1  0.83145549  0.36700205  0.59473074  1
  P  P133  1  0.83403736  0.16688703  0.77479554  1
  P  P134  1  0.33415101  0.90932219  0.72531149  1
  P  P135  1  0.32789676  0.52142746  0.79426236  1
  P  P136  1  0.82766848  0.55548407  0.70591623  1
  P  P137  1  0.83341642  0.34630970  0.88769007  1
  P  P138  1  0.32654637  0.09537024  0.83556725  1
  P  P139  1  0.33086151  0.70920452  0.90530292  1
  P  P140  1  0.82657794  0.73533630  0.81586949  1
  P  P141  1  0.81811009  0.55092956  0.99539648  1
  P  P142  1  0.37402113  0.30013599  0.95228111  1
  P  P143  1  0.82643527  0.91032382  0.92062236  1
  O  O144  1  0.56610835  0.81782126  0.01622300  1
  O  O145  1  0.76166521  0.06585996  0.02469717  1
  O  O146  1  0.75439199  0.47313599  0.07721118  1
  O  O147  1  0.16990545  0.49007158  0.07065973  1
  O  O148  1  0.17791717  0.08883548  0.02582302  1
  O  O149  1  0.20368971  0.75547113  0.03415163  1
  O  O150  1  0.01124695  0.92235576  0.99645422  1
  O  O151  1  0.42136507  0.92093098  0.06383196  1
  O  O152  1  0.97995983  0.30104289  0.05726907  1
  O  O153  1  0.95864410  0.12731227  0.97388307  1
  O  O154  1  0.47398581  0.26056807  0.05870503  1
  O  O155  1  0.68865577  0.54996696  0.14919782  1
  O  O156  1  0.76186790  0.88230551  0.13273074  1
  O  O157  1  0.76504297  0.30916393  0.18027976  1
  O  O158  1  0.68073889  0.13368201  0.09773232  1
  O  O159  1  0.26619425  0.13242149  0.10033777  1
  O  O160  1  0.18228262  0.30860875  0.18130845  1
  O  O161  1  0.17490049  0.88380177  0.13110708  1
  O  O162  1  0.27648140  0.55582895  0.14277965  1
  O  O163  1  0.97281318  0.71279526  0.10735769  1
  O  O164  1  0.47256567  0.72640401  0.16650387  1
  O  O165  1  0.47549915  0.30820448  0.11965079  1
  O  O166  1  0.97402932  0.13888052  0.15708356  1
  O  O167  1  0.49510797  0.71553077  0.07547844  1
  O  O168  1  0.94797845  0.90561081  0.07829155  1
  O  O169  1  0.99572553  0.36548668  0.11519366  1
  O  O170  1  0.47330965  0.07609569  0.17078865  1
  O  O171  1  0.66896295  0.36829985  0.25457841  1
  O  O172  1  0.75616770  0.70477587  0.24356104  1
  O  O173  1  0.76419227  0.12960372  0.29098980  1
  O  O174  1  0.67967264  0.94399342  0.20922973  1
  O  O175  1  0.26415896  0.94332860  0.20883404  1
  O  O176  1  0.17975121  0.12927323  0.29075428  1
  O  O177  1  0.16895625  0.70437183  0.24540487  1
  O  O178  1  0.25609332  0.36785927  0.25639512  1
  O  O179  1  0.96502435  0.53224534  0.22222413  1
  O  O180  1  0.46469960  0.54024900  0.27780715  1
  O  O181  1  0.47012924  0.11401933  0.23257694  1
  O  O182  1  0.97110448  0.95912585  0.26732288  1
  O  O183  1  0.45209695  0.53759764  0.19913859  1
  O  O184  1  0.97330906  0.72150321  0.19043633  1
  O  O185  1  0.96991595  0.17657513  0.21876066  1
  O  O186  1  0.47020244  0.89630436  0.28102220  1
  O  O187  1  0.67339340  0.18955655  0.36889351  1
  O  O188  1  0.77568307  0.51731387  0.35722896  1
  O  O189  1  0.76638851  0.94202733  0.39936714  1
  O  O190  1  0.68250523  0.76479627  0.31858898  1
  O  O191  1  0.26524403  0.76402718  0.31959394  1
  O  O192  1  0.18091270  0.94116617  0.40214159  1
  O  O193  1  0.18789337  0.52366502  0.35072318  1
  O  O194  1  0.26034529  0.19129889  0.36751720  1
  O  O195  1  0.97219991  0.34669687  0.33360834  1
  O  O196  1  0.47194742  0.36104818  0.39256615  1
  O  O197  1  0.47341594  0.93488495  0.34263111  1
  O  O198  1  0.97640696  0.76634124  0.38015215  1
  O  O199  1  0.47306431  0.35088972  0.30951939  1
  O  O200  1  0.95133598  0.53511581  0.30082447  1
  O  O201  1  0.97314424  0.99716826  0.32911063  1
  O  O202  1  0.49661260  0.70904883  0.38471451  1
  O  O203  1  0.67648989  0.98576674  0.47369869  1
  O  O204  1  0.70501572  0.31918554  0.46629408  1
  O  O205  1  0.66993551  0.58424120  0.42930538  1
  O  O206  1  0.25429849  0.60166199  0.42259653  1
  O  O207  1  0.06947025  0.25737275  0.48360185  1
  O  O208  1  0.26022894  0.00752823  0.47544699  1
  O  O209  1  0.92131225  0.15397349  0.43625754  1
  O  O210  1  0.51035981  0.15172454  0.50332960  1
  O  O211  1  0.48084641  0.77326731  0.44265877  1
  O  O212  1  0.44823418  0.16884582  0.42189184  1
  O  O213  1  0.99343555  0.35932205  0.42450826  1
  O  O214  1  0.97400996  0.81430966  0.44109773  1
  O  O215  1  0.46170704  0.94694623  0.52600660  1
  O  O216  1  0.73356631  0.75702450  0.51634364  1
  O  O217  1  0.53936248  0.50790341  0.52456583  1
  O  O218  1  0.54578846  0.10204195  0.57729678  1
  O  O219  1  0.13039488  0.08455489  0.57086013  1
  O  O220  1  0.12261785  0.48622990  0.52600109  1
  O  O221  1  0.09701432  0.81939197  0.53392814  1
  O  O222  1  0.29049829  0.65221509  0.49661986  1
  O  O223  1  0.88028672  0.65415405  0.56385742  1
  O  O224  1  0.31882074  0.27391225  0.55748914  1
  O  O225  1  0.33983597  0.44742898  0.47387336  1
  O  O226  1  0.82554560  0.31467573  0.55891835  1
  O  O227  1  0.61410705  0.02444722  0.64919970  1
  O  O228  1  0.54004244  0.69194412  0.63282681  1
  O  O229  1  0.53470835  0.26513138  0.68051607  1
  O  O230  1  0.61890480  0.44122704  0.59796682  1
  O  O231  1  0.03345550  0.44252283  0.60058647  1
  O  O232  1  0.11743065  0.26619876  0.68170641  1
  O  O233  1  0.12696675  0.68983662  0.63136089  1
  O  O234  1  0.02638645  0.01858028  0.64301063  1
  O  O235  1  0.32790892  0.86122620  0.60758357  1
  O  O236  1  0.82991417  0.84771542  0.66650180  1
  O  O237  1  0.82465932  0.26661380  0.61985532  1
  O  O238  1  0.32594749  0.43550150  0.65729771  1
  O  O239  1  0.80662749  0.85949274  0.57548938  1
  O  O240  1  0.35309113  0.66850978  0.57843955  1
  O  O241  1  0.30494924  0.20938587  0.61542286  1
  O  O242  1  0.82580218  0.49853555  0.67105705  1
  O  O243  1  0.63145279  0.20589909  0.75456726  1
  O  O244  1  0.54370385  0.86984762  0.74382099  1
  O  O245  1  0.53597821  0.44583268  0.79109287  1
  O  O246  1  0.61996708  0.63077951  0.70947998  1
  O  O247  1  0.03529968  0.63137955  0.70906887  1
  O  O248  1  0.12063597  0.44562440  0.79073365  1
  O  O249  1  0.13091291  0.87059472  0.74543679  1
  O  O250  1  0.04424267  0.20621372  0.75640504  1
  O  O251  1  0.33609736  0.04203026  0.72214402  1
  O  O252  1  0.83516560  0.03410577  0.77795351  1
  O  O253  1  0.82989966  0.46055980  0.73276812  1
  O  O254  1  0.32861358  0.61627204  0.76740099  1
  O  O255  1  0.84911577  0.03618698  0.69929675  1
  O  O256  1  0.32823589  0.85238977  0.69059689  1
  O  O257  1  0.33093832  0.39845885  0.71895224  1
  O  O258  1  0.82982960  0.67832315  0.78123297  1
  O  O259  1  0.62519942  0.38585948  0.86875265  1
  O  O260  1  0.52542868  0.05783684  0.85696690  1
  O  O261  1  0.53274509  0.63372201  0.89942431  1
  O  O262  1  0.61616222  0.80985836  0.81860098  1
  O  O263  1  0.03347525  0.81131873  0.81972193  1
  O  O264  1  0.11820030  0.63508608  0.90215686  1
  O  O265  1  0.11321414  0.05184184  0.85086315  1
  O  O266  1  0.03818484  0.38365999  0.86735145  1
  O  O267  1  0.32871472  0.22835030  0.83340386  1
  O  O268  1  0.82602307  0.21428046  0.89256203  1
  O  O269  1  0.82580869  0.64067017  0.84291355  1
  O  O270  1  0.32322924  0.80947968  0.88012352  1
  O  O271  1  0.82751582  0.22375303  0.80952509  1
  O  O272  1  0.34810353  0.03938455  0.80075337  1
  O  O273  1  0.32565234  0.57806241  0.82915288  1
  O  O274  1  0.80269774  0.86732641  0.88451664  1
  O  O275  1  0.62005022  0.58946349  0.97401274  1
  O  O276  1  0.59335919  0.25635639  0.96617944  1
  O  O277  1  0.62825575  0.99139646  0.92919448  1
  O  O278  1  0.04395034  0.97409879  0.92261147  1
  O  O279  1  0.22831694  0.31805268  0.98332182  1
  O  O280  1  0.03685353  0.56854169  0.97498923  1
  O  O281  1  0.37671348  0.42159722  0.93607227  1
  O  O282  1  0.79031012  0.42362103  0.00318699  1
  O  O283  1  0.81677884  0.80197199  0.94226736  1
  O  O284  1  0.85028327  0.40663333  0.92174081  1
  O  O285  1  0.30533524  0.21614767  0.92427662  1
  O  O286  1  0.32542595  0.76175978  0.94109523  1
  O  O287  1  0.83960508  0.62818366  0.02596621  1
