# generated using pymatgen
data_Li3PO4
_symmetry_space_group_name_H-M   'P 1'
_cell_length_a   6.15119200
_cell_length_b   11.66978300
_cell_length_c   50.75027717
_cell_angle_alpha   90.00000000
_cell_angle_beta   90.00000000
_cell_angle_gamma   90.00000000
_symmetry_Int_Tables_number   1
_chemical_formula_structural   Li3PO4
_chemical_formula_sum   'Li132 P44 O176'
_cell_volume   3643.01099443
_cell_formula_units_Z   44
loop_
 _symmetry_equiv_pos_site_id
 _symmetry_equiv_pos_as_xyz
  1  'x, y, z'
loop_
 _atom_site_type_symbol
 _atom_site_label
 _atom_site_symmetry_multiplicity
 _atom_site_fract_x
 _atom_site_fract_y
 _atom_site_fract_z
 _atom_site_occupancy
  Li  Li0  1  0.55675576  0.78822056  0.01849376  1
  Li  Li1  1  0.47863811  0.10135543  0.02388159  1
  Li  Li2  1  0.50341314  0.51433966  0.06714806  1
  Li  Li3  1  0.50041037  0.16879617  0.07796863  1
  Li  Li4  1  0.99965733  0.16879041  0.07797008  1
  Li  Li5  1  0.99668919  0.51431419  0.06715241  1
  Li  Li6  1  0.02210176  0.10147674  0.02384479  1
  Li  Li7  1  0.94414130  0.78822052  0.01853262  1
  Li  Li8  1  0.75002221  0.73978615  0.07997311  1
  Li  Li9  1  0.25040064  0.93957491  0.06445838  1
  Li  Li10  1  0.25007053  0.52823681  0.01171194  1
  Li  Li11  1  0.75004959  0.30938719  0.04854657  1
  Li  Li12  1  0.49892134  0.56065446  0.12831877  1
  Li  Li13  1  0.50018375  0.93135497  0.10591753  1
  Li  Li14  1  0.50167044  0.32869849  0.15839026  1
  Li  Li15  1  0.49957061  0.98790498  0.16440115  1
  Li  Li16  1  0.00046188  0.98788440  0.16440339  1
  Li  Li17  1  0.99833605  0.32874261  0.15840724  1
  Li  Li18  1  0.99955995  0.93140967  0.10591167  1
  Li  Li19  1  0.00110351  0.56065910  0.12831892  1
  Li  Li20  1  0.74997298  0.55936279  0.17218127  1
  Li  Li21  1  0.25001831  0.75456642  0.14966768  1
  Li  Li22  1  0.25003658  0.36861277  0.09607579  1
  Li  Li23  1  0.75001200  0.13551337  0.13685077  1
  Li  Li24  1  0.49773776  0.37894443  0.21787752  1
  Li  Li25  1  0.50233008  0.75646932  0.19282107  1
  Li  Li26  1  0.50126092  0.14603486  0.24684728  1
  Li  Li27  1  0.49796195  0.80614267  0.25281149  1
  Li  Li28  1  0.00242992  0.80659847  0.25276363  1
  Li  Li29  1  0.99874478  0.14604560  0.24684486  1
  Li  Li30  1  0.99765896  0.75617359  0.19282012  1
  Li  Li31  1  0.00176004  0.37938460  0.21786489  1
  Li  Li32  1  0.74998597  0.37696463  0.26131698  1
  Li  Li33  1  0.24999222  0.57390415  0.23834446  1
  Li  Li34  1  0.24999271  0.18343631  0.18619483  1
  Li  Li35  1  0.74981221  0.95296528  0.22552678  1
  Li  Li36  1  0.49733897  0.19611873  0.30701636  1
  Li  Li37  1  0.50228690  0.57320559  0.28179831  1
  Li  Li38  1  0.50052221  0.96335118  0.33560640  1
  Li  Li39  1  0.49833523  0.62252181  0.34132520  1
  Li  Li40  1  0.00136591  0.62245599  0.34131723  1
  Li  Li41  1  0.99945961  0.96338247  0.33561132  1
  Li  Li42  1  0.99738190  0.57326316  0.28180969  1
  Li  Li43  1  0.00263056  0.19612687  0.30700886  1
  Li  Li44  1  0.75002441  0.19572452  0.34993070  1
  Li  Li45  1  0.24988509  0.39188758  0.32758161  1
  Li  Li46  1  0.25001678  0.00193232  0.27452082  1
  Li  Li47  1  0.74999316  0.76931932  0.31369742  1
  Li  Li48  1  0.49981709  0.01916332  0.39408264  1
  Li  Li49  1  0.50089629  0.38930791  0.37164642  1
  Li  Li50  1  0.49964052  0.78405907  0.42196418  1
  Li  Li51  1  0.49595204  0.43776887  0.43287725  1
  Li  Li52  1  0.00410957  0.43775317  0.43288050  1
  Li  Li53  1  0.00030685  0.78404729  0.42197003  1
  Li  Li54  1  0.99909904  0.38931454  0.37164517  1
  Li  Li55  1  0.00031781  0.01852385  0.39433804  1
  Li  Li56  1  0.74894851  0.01404552  0.43580254  1
  Li  Li57  1  0.24986994  0.21151738  0.41999749  1
  Li  Li58  1  0.24959435  0.81496962  0.36300821  1
  Li  Li59  1  0.75000703  0.58341826  0.40387239  1
  Li  Li60  1  0.52228075  0.85015279  0.47638262  1
  Li  Li61  1  0.44349532  0.16227644  0.48187094  1
  Li  Li62  1  0.05615789  0.16218746  0.48186160  1
  Li  Li63  1  0.97765186  0.85025095  0.47639842  1
  Li  Li64  1  0.25002556  0.64437946  0.45146826  1
  Li  Li65  1  0.75005584  0.42343808  0.48841625  1
  Li  Li66  1  0.94353937  0.66214687  0.51836077  1
  Li  Li67  1  0.02309545  0.35018343  0.52374810  1
  Li  Li68  1  0.99324395  0.93681810  0.56718193  1
  Li  Li69  1  0.99962608  0.28285570  0.57807630  1
  Li  Li70  1  0.50036544  0.28282870  0.57807631  1
  Li  Li71  1  0.50343526  0.93736377  0.56714872  1
  Li  Li72  1  0.47686002  0.35011999  0.52375876  1
  Li  Li73  1  0.55678625  0.66198312  0.51826850  1
  Li  Li74  1  0.74958178  0.71099833  0.58020063  1
  Li  Li75  1  0.25000391  0.51284782  0.56428763  1
  Li  Li76  1  0.24993871  0.92350882  0.51166675  1
  Li  Li77  1  0.74996383  0.14392673  0.54862712  1
  Li  Li78  1  0.00023867  0.88858937  0.62839733  1
  Li  Li79  1  0.99993129  0.51749930  0.60594541  1
  Li  Li80  1  0.99865912  0.12043829  0.65867473  1
  Li  Li81  1  0.00022311  0.46128562  0.66452859  1
  Li  Li82  1  0.49975541  0.46129476  0.66452974  1
  Li  Li83  1  0.50214703  0.12007154  0.65872069  1
  Li  Li84  1  0.49992620  0.51747820  0.60593992  1
  Li  Li85  1  0.49908492  0.88861103  0.62837712  1
  Li  Li86  1  0.74980253  0.88860228  0.67223827  1
  Li  Li87  1  0.24922238  0.69445693  0.65009329  1
  Li  Li88  1  0.24968045  0.08182079  0.59645360  1
  Li  Li89  1  0.75000929  0.31394702  0.63700863  1
  Li  Li90  1  0.00232353  0.07050684  0.71801175  1
  Li  Li91  1  0.99699232  0.69373258  0.69316868  1
  Li  Li92  1  0.99852072  0.30308761  0.74689253  1
  Li  Li93  1  0.00200383  0.64363443  0.75296075  1
  Li  Li94  1  0.49813426  0.64356035  0.75295474  1
  Li  Li95  1  0.50097091  0.30303752  0.74689845  1
  Li  Li96  1  0.50152833  0.69385405  0.69324377  1
  Li  Li97  1  0.49752881  0.07047426  0.71799046  1
  Li  Li98  1  0.74877710  0.07156307  0.76162433  1
  Li  Li99  1  0.24995059  0.87548358  0.73876888  1
  Li  Li100  1  0.25007978  0.26714050  0.68633264  1
  Li  Li101  1  0.74999351  0.49730592  0.72562580  1
  Li  Li102  1  0.00299220  0.25335710  0.80705486  1
  Li  Li103  1  0.99787060  0.87619831  0.78208318  1
  Li  Li104  1  0.99876544  0.48583538  0.83550256  1
  Li  Li105  1  0.00221861  0.82722702  0.84160989  1
  Li  Li106  1  0.49791956  0.82722831  0.84161564  1
  Li  Li107  1  0.50135532  0.48587474  0.83550243  1
  Li  Li108  1  0.50210499  0.87616406  0.78208858  1
  Li  Li109  1  0.49858100  0.25377631  0.80705270  1
  Li  Li110  1  0.75017481  0.25353911  0.85022904  1
  Li  Li111  1  0.25130264  0.05726299  0.82772563  1
  Li  Li112  1  0.25004517  0.44830774  0.77449672  1
  Li  Li113  1  0.75003087  0.68102403  0.81370294  1
  Li  Li114  1  0.00027817  0.42950945  0.89394221  1
  Li  Li115  1  0.99927102  0.05978567  0.87167476  1
  Li  Li116  1  0.00003402  0.66733264  0.92217159  1
  Li  Li117  1  0.00473145  0.01289211  0.93297721  1
  Li  Li118  1  0.49558766  0.01269943  0.93287951  1
  Li  Li119  1  0.50027158  0.66744574  0.92215828  1
  Li  Li120  1  0.50101225  0.05976665  0.87169298  1
  Li  Li121  1  0.49982423  0.42952825  0.89392455  1
  Li  Li122  1  0.74948520  0.43718870  0.93523653  1
  Li  Li123  1  0.25062518  0.23910228  0.92002389  1
  Li  Li124  1  0.25002020  0.63287591  0.86316720  1
  Li  Li125  1  0.75030646  0.86672592  0.90362839  1
  Li  Li126  1  0.97860221  0.60066935  0.97610703  1
  Li  Li127  1  0.05671321  0.28796049  0.98151978  1
  Li  Li128  1  0.44380485  0.28820846  0.98161245  1
  Li  Li129  1  0.52216070  0.60108189  0.97620392  1
  Li  Li130  1  0.25005208  0.80726635  0.95153419  1
  Li  Li131  1  0.75006159  0.02808257  0.98828888  1
  P  P132  1  0.75032128  0.97054581  0.05350577  1
  P  P133  1  0.75032123  0.54520204  0.01571521  1
  P  P134  1  0.25006781  0.31544449  0.03775951  1
  P  P135  1  0.25002582  0.70766442  0.09188227  1
  P  P136  1  0.75000520  0.78485497  0.14126140  1
  P  P137  1  0.75007137  0.35747578  0.10723501  1
  P  P138  1  0.25000482  0.14198993  0.12660368  1
  P  P139  1  0.25004392  0.52990832  0.18026297  1
  P  P140  1  0.74995456  0.60466175  0.23040603  1
  P  P141  1  0.75001926  0.17525391  0.19639634  1
  P  P142  1  0.24997184  0.95955747  0.21470526  1
  P  P143  1  0.24994491  0.34724569  0.26927439  1
  P  P144  1  0.74993293  0.42152860  0.31947958  1
  P  P145  1  0.75000135  0.99288024  0.28508304  1
  P  P146  1  0.24997714  0.77662073  0.30342004  1
  P  P147  1  0.24985802  0.16601866  0.35856247  1
  P  P148  1  0.74991853  0.24367361  0.40797903  1
  P  P149  1  0.74993151  0.80947858  0.37334989  1
  P  P150  1  0.24997346  0.59398032  0.39260238  1
  P  P151  1  0.24976506  0.98148366  0.44669887  1
  P  P152  1  0.75013363  0.63653377  0.46215537  1
  P  P153  1  0.25021278  0.40570328  0.48422367  1
  P  P154  1  0.74995882  0.48055824  0.55341497  1
  P  P155  1  0.74971058  0.90583725  0.51586912  1
  P  P156  1  0.24972120  0.13596510  0.53801256  1
  P  P157  1  0.24967381  0.74294353  0.59207630  1
  P  P158  1  0.74944791  0.66418293  0.64149430  1
  P  P159  1  0.74980159  0.09311779  0.60748063  1
  P  P160  1  0.25011820  0.30763715  0.62671160  1
  P  P161  1  0.24956601  0.91930197  0.68052941  1
  P  P162  1  0.74984024  0.84492805  0.73069357  1
  P  P163  1  0.75008804  0.27399221  0.69651364  1
  P  P164  1  0.24990024  0.49022100  0.71484495  1
  P  P165  1  0.24979956  0.10182113  0.76946236  1
  P  P166  1  0.75046787  0.02757488  0.81968968  1
  P  P167  1  0.75028967  0.45663085  0.78513802  1
  P  P168  1  0.25003800  0.67256787  0.80359439  1
  P  P169  1  0.25037170  0.28306316  0.85856782  1
  P  P170  1  0.75036048  0.20583067  0.90805833  1
  P  P171  1  0.75008628  0.64022417  0.87335551  1
  P  P172  1  0.25014183  0.85554229  0.89275161  1
  P  P173  1  0.25026681  0.46959676  0.94645343  1
  P  P174  1  0.75021158  0.81480324  0.96225550  1
  P  P175  1  0.25019593  0.04465209  0.98437455  1
  O  O176  1  0.45849828  0.66914635  0.07733511  1
  O  O177  1  0.54121163  0.00424233  0.06916337  1
  O  O178  1  0.54088085  0.62191417  0.01481707  1
  O  O179  1  0.45570779  0.24075540  0.04288259  1
  O  O180  1  0.04450941  0.24074432  0.04290245  1
  O  O181  1  0.95976704  0.62189983  0.01477183  1
  O  O182  1  0.95935415  0.00423743  0.06917498  1
  O  O183  1  0.04156484  0.66910791  0.07733892  1
  O  O184  1  0.75033065  0.84062007  0.04729951  1
  O  O185  1  0.25013947  0.42195825  0.05616697  1
  O  O186  1  0.75012599  0.47518238  0.98921290  1
  O  O187  1  0.75036955  0.04016706  0.02753605  1
  O  O188  1  0.75038128  0.47280469  0.04138005  1
  O  O189  1  0.24995922  0.35542493  0.00859257  1
  O  O190  1  0.45683520  0.49087518  0.16493214  1
  O  O191  1  0.54329426  0.82579996  0.15652052  1
  O  O192  1  0.54333628  0.43265142  0.10332230  1
  O  O193  1  0.45730768  0.06558431  0.12897038  1
  O  O194  1  0.04268126  0.06560274  0.12896785  1
  O  O195  1  0.95685697  0.43262106  0.10332445  1
  O  O196  1  0.95679672  0.82575743  0.15650869  1
  O  O197  1  0.04316049  0.49092701  0.16494158  1
  O  O198  1  0.74999233  0.65232795  0.13910916  1
  O  O199  1  0.24998976  0.84176498  0.09475066  1
  O  O200  1  0.24999924  0.23511496  0.14840063  1
  O  O201  1  0.75005214  0.25874626  0.08663592  1
  O  O202  1  0.25004163  0.65386348  0.12023042  1
  O  O203  1  0.74991671  0.83983889  0.11325802  1
  O  O204  1  0.75005361  0.30423821  0.13545777  1
  O  O205  1  0.25005554  0.20081500  0.09896321  1
  O  O206  1  0.45693936  0.30851081  0.25390207  1
  O  O207  1  0.54287060  0.64331266  0.24577683  1
  O  O208  1  0.54312449  0.25136150  0.19352557  1
  O  O209  1  0.45725044  0.88354682  0.21752916  1
  O  O210  1  0.04262973  0.88356056  0.21751019  1
  O  O211  1  0.95685413  0.25141503  0.19353634  1
  O  O212  1  0.95706191  0.64337635  0.24576445  1
  O  O213  1  0.04296590  0.30853442  0.25389652  1
  O  O214  1  0.74986938  0.47201476  0.22748935  1
  O  O215  1  0.25010083  0.66245427  0.18344687  1
  O  O216  1  0.24997692  0.05386462  0.23636384  1
  O  O217  1  0.75005253  0.08100629  0.17471243  1
  O  O218  1  0.25001356  0.47235659  0.20806508  1
  O  O219  1  0.74990519  0.66202471  0.20262911  1
  O  O220  1  0.74998215  0.11841590  0.22421648  1
  O  O221  1  0.25004223  0.01654638  0.18688635  1
  O  O222  1  0.45668005  0.12537751  0.34328440  1
  O  O223  1  0.54306432  0.46023164  0.33484569  1
  O  O224  1  0.54292046  0.06908917  0.28226090  1
  O  O225  1  0.45695515  0.70041334  0.30623011  1
  O  O226  1  0.04298063  0.70043138  0.30623197  1
  O  O227  1  0.95709869  0.06906912  0.28225445  1
  O  O228  1  0.95685655  0.46020903  0.33483602  1
  O  O229  1  0.04339576  0.12548037  0.34321106  1
  O  O230  1  0.74991555  0.28897680  0.31626664  1
  O  O231  1  0.24992259  0.47990294  0.27216812  1
  O  O232  1  0.24997699  0.87014852  0.32528395  1
  O  O233  1  0.74999054  0.89849396  0.26343693  1
  O  O234  1  0.24996699  0.29002444  0.29706599  1
  O  O235  1  0.74991176  0.47915281  0.29168084  1
  O  O236  1  0.75000134  0.93587549  0.31291512  1
  O  O237  1  0.25003204  0.83447091  0.27570386  1
  O  O238  1  0.45856048  0.94818854  0.43094982  1
  O  O239  1  0.54135980  0.28292622  0.42243359  1
  O  O240  1  0.54248536  0.88574570  0.37099054  1
  O  O241  1  0.45675794  0.51889623  0.39655599  1
  O  O242  1  0.04325771  0.51884035  0.39656237  1
  O  O243  1  0.95734608  0.88580628  0.37101025  1
  O  O244  1  0.95832894  0.28289545  0.42247031  1
  O  O245  1  0.04038591  0.94820660  0.43105200  1
  O  O246  1  0.74986721  0.10947325  0.40537332  1
  O  O247  1  0.24996899  0.29851840  0.36077274  1
  O  O248  1  0.24997940  0.69313823  0.41317005  1
  O  O249  1  0.75000118  0.71655967  0.35151101  1
  O  O250  1  0.24954505  0.11072278  0.38655175  1
  O  O251  1  0.75004646  0.29613509  0.37950835  1
  O  O252  1  0.74994911  0.75099837  0.40102672  1
  O  O253  1  0.24988018  0.64695838  0.36435272  1
  O  O254  1  0.54459406  0.71145858  0.45713102  1
  O  O255  1  0.45953462  0.32896547  0.48511113  1
  O  O256  1  0.04082587  0.32900401  0.48510146  1
  O  O257  1  0.95552503  0.71154599  0.45712130  1
  O  O258  1  0.24993551  0.11128279  0.45300800  1
  O  O259  1  0.25021557  0.47522527  0.51084464  1
  O  O260  1  0.75012934  0.53036208  0.44367993  1
  O  O261  1  0.25006115  0.91114045  0.47257753  1
  O  O262  1  0.75027838  0.59592343  0.49129697  1
  O  O263  1  0.25027420  0.47916405  0.45872048  1
  O  O264  1  0.04110758  0.78206187  0.57759934  1
  O  O265  1  0.95910113  0.44704336  0.56908550  1
  O  O266  1  0.95925938  0.82920929  0.51502026  1
  O  O267  1  0.04437829  0.21109912  0.54297831  1
  O  O268  1  0.45533702  0.21087605  0.54300398  1
  O  O269  1  0.54058451  0.82893425  0.51498303  1
  O  O270  1  0.54085331  0.44698698  0.56908726  1
  O  O271  1  0.45818352  0.78225707  0.57761335  1
  O  O272  1  0.74986370  0.61042557  0.54718836  1
  O  O273  1  0.24919225  0.02975515  0.55647631  1
  O  O274  1  0.74978452  0.97552933  0.48928271  1
  O  O275  1  0.74997301  0.41058907  0.52747990  1
  O  O276  1  0.74923810  0.97906980  0.54140851  1
  O  O277  1  0.24981843  0.09543456  0.50886149  1
  O  O278  1  0.04269080  0.95807348  0.66517188  1
  O  O279  1  0.95608773  0.62352747  0.65680517  1
  O  O280  1  0.95621400  0.01776959  0.60353529  1
  O  O281  1  0.04278809  0.38403783  0.62911009  1
  O  O282  1  0.45743540  0.38404077  0.62909450  1
  O  O283  1  0.54303377  0.01803600  0.60352296  1
  O  O284  1  0.54270611  0.62360855  0.65679597  1
  O  O285  1  0.45664021  0.95787809  0.66518065  1
  O  O286  1  0.74963758  0.79671316  0.63921990  1
  O  O287  1  0.24986320  0.60872427  0.59469221  1
  O  O288  1  0.25023282  0.21433523  0.64846873  1
  O  O289  1  0.75002918  0.19225395  0.58693220  1
  O  O290  1  0.24962064  0.79547236  0.62054587  1
  O  O291  1  0.74968303  0.60902757  0.61349448  1
  O  O292  1  0.75001637  0.14587604  0.63574125  1
  O  O293  1  0.24999711  0.24957280  0.59899843  1
  O  O294  1  0.04260533  0.14036292  0.75411682  1
  O  O295  1  0.95702933  0.80625592  0.74603443  1
  O  O296  1  0.95728119  0.19807393  0.69368509  1
  O  O297  1  0.04270363  0.56620322  0.71773159  1
  O  O298  1  0.45710339  0.56618607  0.71775192  1
  O  O299  1  0.54310865  0.19791870  0.69366659  1
  O  O300  1  0.54278033  0.80624196  0.74606221  1
  O  O301  1  0.45644784  0.14041019  0.75400639  1
  O  O302  1  0.74982408  0.97751673  0.72775480  1
  O  O303  1  0.24928170  0.78682059  0.68382299  1
  O  O304  1  0.24984035  0.39542720  0.73639352  1
  O  O305  1  0.75001885  0.36810773  0.67480706  1
  O  O306  1  0.24972291  0.97712542  0.70830029  1
  O  O307  1  0.74960313  0.78746607  0.70293530  1
  O  O308  1  0.74988187  0.33116725  0.72429296  1
  O  O309  1  0.24999705  0.43357432  0.68698623  1
  O  O310  1  0.04368526  0.32368746  0.84328074  1
  O  O311  1  0.95758718  0.98891412  0.83499867  1
  O  O312  1  0.95735158  0.38043766  0.78229403  1
  O  O313  1  0.04323389  0.74883996  0.80642766  1
  O  O314  1  0.45683326  0.74885625  0.80644466  1
  O  O315  1  0.54312387  0.38050837  0.78227127  1
  O  O316  1  0.54370309  0.98893955  0.83508105  1
  O  O317  1  0.45735790  0.32373105  0.84333271  1
  O  O318  1  0.75041345  0.16011550  0.81643497  1
  O  O319  1  0.25000771  0.96924398  0.77250941  1
  O  O320  1  0.25002783  0.57855373  0.82532478  1
  O  O321  1  0.75031452  0.55114457  0.76353240  1
  O  O322  1  0.25052647  0.15950925  0.79720112  1
  O  O323  1  0.74994313  0.96965317  0.79192162  1
  O  O324  1  0.75017962  0.51361285  0.81296538  1
  O  O325  1  0.25011604  0.61530366  0.77581382  1
  O  O326  1  0.04073133  0.50263795  0.93080913  1
  O  O327  1  0.95902335  0.16752839  0.92259001  1
  O  O328  1  0.95719672  0.56369361  0.87093678  1
  O  O329  1  0.04356189  0.93087673  0.89664122  1
  O  O330  1  0.45691065  0.93075874  0.89663073  1
  O  O331  1  0.54289224  0.56376959  0.87093502  1
  O  O332  1  0.54185126  0.16743629  0.92261802  1
  O  O333  1  0.45922967  0.50279337  0.93071775  1
  O  O334  1  0.75009552  0.33994833  0.90512080  1
  O  O335  1  0.25042237  0.15057467  0.86079128  1
  O  O336  1  0.25011660  0.75692026  0.91338651  1
  O  O337  1  0.75012234  0.73350776  0.85159307  1
  O  O338  1  0.25012542  0.33823344  0.88655771  1
  O  O339  1  0.75023982  0.15229046  0.87969154  1
  O  O340  1  0.75019246  0.69868733  0.90103575  1
  O  O341  1  0.25007965  0.80205701  0.86455599  1
  O  O342  1  0.95557465  0.73988934  0.95712962  1
  O  O343  1  0.04083202  0.12146281  0.98519200  1
  O  O344  1  0.45936290  0.12157119  0.98521963  1
  O  O345  1  0.54465333  0.73999991  0.95714166  1
  O  O346  1  0.25057171  0.33973067  0.95275442  1
  O  O347  1  0.25018791  0.97524640  0.01097729  1
  O  O348  1  0.75024153  0.92108262  0.94380042  1
  O  O349  1  0.25054451  0.53975554  0.97235022  1
  O  O350  1  0.75033893  0.85503485  0.99140397  1
  O  O351  1  0.25037171  0.97145830  0.95881964  1
