# generated using pymatgen
data_Li3PO4
_symmetry_space_group_name_H-M   'P 1'
_cell_length_a   6.15119200
_cell_length_b   11.66978300
_cell_length_c   45.81778705
_cell_angle_alpha   90.00000000
_cell_angle_beta   90.00000000
_cell_angle_gamma   90.00000000
_symmetry_Int_Tables_number   1
_chemical_formula_structural   Li3PO4
_chemical_formula_sum   'Li120 P40 O160'
_cell_volume   3288.94168223
_cell_formula_units_Z   40
loop_
 _symmetry_equiv_pos_site_id
 _symmetry_equiv_pos_as_xyz
  1  'x, y, z'
loop_
 _atom_site_type_symbol
 _atom_site_label
 _atom_site_symmetry_multiplicity
 _atom_site_fract_x
 _atom_site_fract_y
 _atom_site_fract_z
 _atom_site_occupancy
  Li  Li0  1  0.54199806  0.16161179  0.98597677  1
  Li  Li1  1  0.46717216  0.48353272  0.06718509  1
  Li  Li2  1  0.50022787  0.15491996  0.05618828  1
  Li  Li3  1  0.99881022  0.15542633  0.05624208  1
  Li  Li4  1  0.03497605  0.48332294  0.06726834  1
  Li  Li5  1  0.95666081  0.16197516  0.98602447  1
  Li  Li6  1  0.74999449  0.72437722  0.05395967  1
  Li  Li7  1  0.24899100  0.94205114  0.03764850  1
  Li  Li8  1  0.74972995  0.31623226  0.01891053  1
  Li  Li9  1  0.48920128  0.52268957  0.12158071  1
  Li  Li10  1  0.50887115  0.90207383  0.08403064  1
  Li  Li11  1  0.50109554  0.27797184  0.14998118  1
  Li  Li12  1  0.49864787  0.94009097  0.15435876  1
  Li  Li13  1  0.00126804  0.93998522  0.15434500  1
  Li  Li14  1  0.99884747  0.27789982  0.15001648  1
  Li  Li15  1  0.99069955  0.90204142  0.08404734  1
  Li  Li16  1  0.01066314  0.52259608  0.12157193  1
  Li  Li17  1  0.74995129  0.50706042  0.16665362  1
  Li  Li18  1  0.24963274  0.74609831  0.12457466  1
  Li  Li19  1  0.25010461  0.31569486  0.09168375  1
  Li  Li20  1  0.74998826  0.07940793  0.12472868  1
  Li  Li21  1  0.49910259  0.32541398  0.21526726  1
  Li  Li22  1  0.49927155  0.70733589  0.18485876  1
  Li  Li23  1  0.50106895  0.09089444  0.24672564  1
  Li  Li24  1  0.49676127  0.75300143  0.25245479  1
  Li  Li25  1  0.00314838  0.75300605  0.25245181  1
  Li  Li26  1  0.99784340  0.09127825  0.24672577  1
  Li  Li27  1  0.00017994  0.70727046  0.18487656  1
  Li  Li28  1  0.00080989  0.32542793  0.21527066  1
  Li  Li29  1  0.74998405  0.32463301  0.26241569  1
  Li  Li30  1  0.24971510  0.52446217  0.23833863  1
  Li  Li31  1  0.24995274  0.13110589  0.17948757  1
  Li  Li32  1  0.74954411  0.89723726  0.22220455  1
  Li  Li33  1  0.49898105  0.14044721  0.31274201  1
  Li  Li34  1  0.50192194  0.51867310  0.28554738  1
  Li  Li35  1  0.50087535  0.90986034  0.34432931  1
  Li  Li36  1  0.49918314  0.56868024  0.35107055  1
  Li  Li37  1  0.00084158  0.56867331  0.35107516  1
  Li  Li38  1  0.99947216  0.90992680  0.34432528  1
  Li  Li39  1  0.99808032  0.51870539  0.28556067  1
  Li  Li40  1  0.00107761  0.14046107  0.31273363  1
  Li  Li41  1  0.75052000  0.14253632  0.36142166  1
  Li  Li42  1  0.25011811  0.33803765  0.33571873  1
  Li  Li43  1  0.24990969  0.94558301  0.27694428  1
  Li  Li44  1  0.75000275  0.71323959  0.32036397  1
  Li  Li45  1  0.49901494  0.96054173  0.41085830  1
  Li  Li46  1  0.50333872  0.33729942  0.38392582  1
  Li  Li47  1  0.49753710  0.72587416  0.44210414  1
  Li  Li48  1  0.51570587  0.39362565  0.44918029  1
  Li  Li49  1  0.98435515  0.39353646  0.44920709  1
  Li  Li50  1  0.00253826  0.72581193  0.44209879  1
  Li  Li51  1  0.99840127  0.33707905  0.38392046  1
  Li  Li52  1  0.00107492  0.96052733  0.41085735  1
  Li  Li53  1  0.75038359  0.94221265  0.45902783  1
  Li  Li54  1  0.25005994  0.15394007  0.43431464  1
  Li  Li55  1  0.25001096  0.76113142  0.37525600  1
  Li  Li56  1  0.75025340  0.53940923  0.41814335  1
  Li  Li57  1  0.52412193  0.78985162  0.50653215  1
  Li  Li58  1  0.97599395  0.78999802  0.50633256  1
  Li  Li59  1  0.25004926  0.60230332  0.48678481  1
  Li  Li60  1  0.45735680  0.18828180  0.48540565  1
  Li  Li61  1  0.53536849  0.86555816  0.56717894  1
  Li  Li62  1  0.49917474  0.19574050  0.55540700  1
  Li  Li63  1  0.00084281  0.19575560  0.55540527  1
  Li  Li64  1  0.96461157  0.86556810  0.56716932  1
  Li  Li65  1  0.04266147  0.18826768  0.48540987  1
  Li  Li66  1  0.24996712  0.62633661  0.55280503  1
  Li  Li67  1  0.75000930  0.41107542  0.53836694  1
  Li  Li68  1  0.24978940  0.03423957  0.51826173  1
  Li  Li69  1  0.51130299  0.82726765  0.62093257  1
  Li  Li70  1  0.48805295  0.44770154  0.58368639  1
  Li  Li71  1  0.49887841  0.07139237  0.65011709  1
  Li  Li72  1  0.50223197  0.41131097  0.65397722  1
  Li  Li73  1  0.99895587  0.41123997  0.65414968  1
  Li  Li74  1  0.00116981  0.07137327  0.65012791  1
  Li  Li75  1  0.01193929  0.44769735  0.58369915  1
  Li  Li76  1  0.98878994  0.82726961  0.62094038  1
  Li  Li77  1  0.25074873  0.84262777  0.66600104  1
  Li  Li78  1  0.75006822  0.60201427  0.62352349  1
  Li  Li79  1  0.74998971  0.03459013  0.59099757  1
  Li  Li80  1  0.25000978  0.26868317  0.62462180  1
  Li  Li81  1  0.50163313  0.02541701  0.71509389  1
  Li  Li82  1  0.50056056  0.64298702  0.68471571  1
  Li  Li83  1  0.49901194  0.25925036  0.74645497  1
  Li  Li84  1  0.50219545  0.59827763  0.75221695  1
  Li  Li85  1  0.99783918  0.59830330  0.75221567  1
  Li  Li86  1  0.00100801  0.25927971  0.74645339  1
  Li  Li87  1  0.99958827  0.64299952  0.68470645  1
  Li  Li88  1  0.99895522  0.02545011  0.71523249  1
  Li  Li89  1  0.25010652  0.02543432  0.76233275  1
  Li  Li90  1  0.75012294  0.82637815  0.73797785  1
  Li  Li91  1  0.75002734  0.21923770  0.67904957  1
  Li  Li92  1  0.25002127  0.45265256  0.72203562  1
  Li  Li93  1  0.50157257  0.20948813  0.81303839  1
  Li  Li94  1  0.49818269  0.83111061  0.78540281  1
  Li  Li95  1  0.49929493  0.43984692  0.84429424  1
  Li  Li96  1  0.50094696  0.78126057  0.85094756  1
  Li  Li97  1  0.99903954  0.78125862  0.85095045  1
  Li  Li98  1  0.00069669  0.43984459  0.84429577  1
  Li  Li99  1  0.00285837  0.83105222  0.78547367  1
  Li  Li100  1  0.99845719  0.20948305  0.81303892  1
  Li  Li101  1  0.24998712  0.20725334  0.86192675  1
  Li  Li102  1  0.75005087  0.01208055  0.83591941  1
  Li  Li103  1  0.74998983  0.40439031  0.77673056  1
  Li  Li104  1  0.25001207  0.63496157  0.82053648  1
  Li  Li105  1  0.50120838  0.38977458  0.91120459  1
  Li  Li106  1  0.49757919  0.01325518  0.88431637  1
  Li  Li107  1  0.50335349  0.62403184  0.94242326  1
  Li  Li108  1  0.48336044  0.95557254  0.94906157  1
  Li  Li109  1  0.01658047  0.95560178  0.94906326  1
  Li  Li110  1  0.99657578  0.62403186  0.94241373  1
  Li  Li111  1  0.00239767  0.01323393  0.88430942  1
  Li  Li112  1  0.99874419  0.38980492  0.91126246  1
  Li  Li113  1  0.24997435  0.40752607  0.95958442  1
  Li  Li114  1  0.74983973  0.19676966  0.93524818  1
  Li  Li115  1  0.74998709  0.58797002  0.87502228  1
  Li  Li116  1  0.24998032  0.81078949  0.91806270  1
  Li  Li117  1  0.47361601  0.56029501  0.00708134  1
  Li  Li118  1  0.02396978  0.55929954  0.00675836  1
  Li  Li119  1  0.74996648  0.74656589  0.98806230  1
  P  P120  1  0.24969485  0.67129971  0.06834531  1
  P  P121  1  0.74962024  0.96486488  0.02758638  1
  P  P122  1  0.24990854  0.33004143  0.02256997  1
  P  P123  1  0.24985604  0.48046377  0.17606990  1
  P  P124  1  0.74983460  0.74214093  0.12670814  1
  P  P125  1  0.74995361  0.31398872  0.09782840  1
  P  P126  1  0.24990961  0.09312618  0.11262621  1
  P  P127  1  0.25004761  0.29341757  0.27181057  1
  P  P128  1  0.74981753  0.55405029  0.22864315  1
  P  P129  1  0.74985760  0.12175210  0.19103828  1
  P  P130  1  0.24973918  0.90722565  0.21039843  1
  P  P131  1  0.25037801  0.11198104  0.36990498  1
  P  P132  1  0.75016073  0.36678768  0.32693946  1
  P  P133  1  0.74994509  0.93748433  0.28856189  1
  P  P134  1  0.24998821  0.72242504  0.30893130  1
  P  P135  1  0.25018642  0.92968653  0.46717642  1
  P  P136  1  0.75026715  0.18799108  0.42752431  1
  P  P137  1  0.75004902  0.75848936  0.38626487  1
  P  P138  1  0.25024290  0.54049446  0.40706142  1
  P  P139  1  0.75000805  0.58203737  0.48412461  1
  P  P140  1  0.75002025  0.67800637  0.56759828  1
  P  P141  1  0.25004043  0.38552077  0.52685251  1
  P  P142  1  0.74994517  0.01954416  0.52210186  1
  P  P143  1  0.75041692  0.86927642  0.67577312  1
  P  P144  1  0.25010800  0.60843798  0.62612295  1
  P  P145  1  0.24994811  0.03625774  0.59749976  1
  P  P146  1  0.75008927  0.25690299  0.61222852  1
  P  P147  1  0.75009794  0.05678215  0.77169780  1
  P  P148  1  0.25027654  0.79727801  0.72837006  1
  P  P149  1  0.25011229  0.22850947  0.69076697  1
  P  P150  1  0.75001369  0.44337690  0.71013046  1
  P  P151  1  0.75000638  0.23797554  0.87028376  1
  P  P152  1  0.25020816  0.98339965  0.82705041  1
  P  P153  1  0.24998972  0.41189654  0.78840771  1
  P  P154  1  0.75001347  0.62704214  0.80881514  1
  P  P155  1  0.74957917  0.42007045  0.96773032  1
  P  P156  1  0.24979473  0.16144959  0.92805089  1
  P  P157  1  0.24996295  0.59149808  0.88645637  1
  P  P158  1  0.74997294  0.80877501  0.90699684  1
  P  P159  1  0.24986663  0.76778477  0.98425810  1
  O  O160  1  0.45862159  0.63415028  0.05131464  1
  O  O161  1  0.54434840  0.99702021  0.04643358  1
  O  O162  1  0.45342071  0.25238421  0.01915012  1
  O  O163  1  0.04580533  0.25271882  0.01926130  1
  O  O164  1  0.95438026  0.99726699  0.04650912  1
  O  O165  1  0.04093210  0.63394007  0.05133067  1
  O  O166  1  0.74999126  0.83554298  0.02179307  1
  O  O167  1  0.24964653  0.79844125  0.07845369  1
  O  O168  1  0.25073723  0.38509867  0.05333018  1
  O  O169  1  0.74957594  0.23884360  0.07020533  1
  O  O170  1  0.74978027  0.03703724  0.99840736  1
  O  O171  1  0.24972647  0.43203370  0.00082038  1
  O  O172  1  0.45700701  0.44254898  0.15884301  1
  O  O173  1  0.54043729  0.78025119  0.14355442  1
  O  O174  1  0.54382398  0.39090627  0.09825105  1
  O  O175  1  0.45625688  0.01643778  0.11542897  1
  O  O176  1  0.04368958  0.01636418  0.11544692  1
  O  O177  1  0.95636835  0.39071843  0.09820089  1
  O  O178  1  0.95921618  0.78025754  0.14355512  1
  O  O179  1  0.04272296  0.44250555  0.15883954  1
  O  O180  1  0.74992351  0.60890228  0.12556085  1
  O  O181  1  0.24976177  0.61172507  0.17960538  1
  O  O182  1  0.24993926  0.18722270  0.13691780  1
  O  O183  1  0.74998789  0.02802890  0.16689467  1
  O  O184  1  0.24987316  0.59630850  0.09768681  1
  O  O185  1  0.74978465  0.79734360  0.09560597  1
  O  O186  1  0.75003814  0.24153007  0.12624287  1
  O  O187  1  0.24976719  0.15494359  0.08252702  1
  O  O188  1  0.45751340  0.25506146  0.25482032  1
  O  O189  1  0.54310934  0.59043261  0.24598353  1
  O  O190  1  0.54263864  0.19802059  0.18814355  1
  O  O191  1  0.45711375  0.83129603  0.21333229  1
  O  O192  1  0.04244291  0.83124522  0.21331748  1
  O  O193  1  0.95711511  0.19800832  0.18817700  1
  O  O194  1  0.95644164  0.59042046  0.24600519  1
  O  O195  1  0.04249478  0.25514047  0.25482629  1
  O  O196  1  0.74985624  0.42139877  0.22461037  1
  O  O197  1  0.25005471  0.42582103  0.27550070  1
  O  O198  1  0.24959326  0.00054010  0.23465376  1
  O  O199  1  0.74993069  0.84403512  0.26440328  1
  O  O200  1  0.24987787  0.41849228  0.20615239  1
  O  O201  1  0.74987684  0.61473997  0.19823370  1
  O  O202  1  0.74964421  0.06388799  0.22171033  1
  O  O203  1  0.24983720  0.96520371  0.17967117  1
  O  O204  1  0.45773984  0.07306795  0.35301913  1
  O  O205  1  0.54360851  0.40551725  0.34402724  1
  O  O206  1  0.54266431  0.01380229  0.28559832  1
  O  O207  1  0.45669569  0.64614891  0.31229208  1
  O  O208  1  0.04329602  0.64615191  0.31230260  1
  O  O209  1  0.95705928  0.01391437  0.28558542  1
  O  O210  1  0.95679035  0.40546764  0.34402109  1
  O  O211  1  0.04309561  0.07316859  0.35298303  1
  O  O212  1  0.75010253  0.23418102  0.32375386  1
  O  O213  1  0.25056622  0.24447533  0.37336867  1
  O  O214  1  0.25003229  0.81744252  0.33271405  1
  O  O215  1  0.75001584  0.66234153  0.36271451  1
  O  O216  1  0.25004357  0.23479271  0.30244281  1
  O  O217  1  0.75007366  0.42441664  0.29623752  1
  O  O218  1  0.75009332  0.88032224  0.31932476  1
  O  O219  1  0.24993491  0.77882528  0.27803496  1
  O  O220  1  0.45395479  0.89038132  0.44987777  1
  O  O221  1  0.54398857  0.22982609  0.44457220  1
  O  O222  1  0.54286768  0.83451488  0.38296753  1
  O  O223  1  0.45610288  0.46335120  0.41091436  1
  O  O224  1  0.04456335  0.46323485  0.41093969  1
  O  O225  1  0.95717024  0.83455859  0.38295508  1
  O  O226  1  0.95631308  0.22971897  0.44463503  1
  O  O227  1  0.04639011  0.89029097  0.44988594  1
  O  O228  1  0.75016231  0.05570719  0.42469403  1
  O  O229  1  0.25007750  0.06285594  0.47084440  1
  O  O230  1  0.25020551  0.63771526  0.42974853  1
  O  O231  1  0.74997810  0.49123894  0.45859993  1
  O  O232  1  0.25011370  0.05513927  0.40074954  1
  O  O233  1  0.75075415  0.24305521  0.39643517  1
  O  O234  1  0.75012273  0.70348926  0.41717702  1
  O  O235  1  0.25005497  0.59270602  0.37567855  1
  O  O236  1  0.54513969  0.66111609  0.48028530  1
  O  O237  1  0.95509094  0.66095851  0.48026908  1
  O  O238  1  0.25012384  0.87622888  0.49877263  1
  O  O239  1  0.74994252  0.52165695  0.51290068  1
  O  O240  1  0.54094831  0.71543263  0.55068998  1
  O  O241  1  0.45470571  0.35358239  0.54582490  1
  O  O242  1  0.54616463  0.09723668  0.51873962  1
  O  O243  1  0.95367799  0.09728835  0.51875342  1
  O  O244  1  0.04531666  0.35360469  0.54581579  1
  O  O245  1  0.95903426  0.71542257  0.55068871  1
  O  O246  1  0.25010181  0.51460253  0.52081230  1
  O  O247  1  0.75000706  0.55079163  0.57779374  1
  O  O248  1  0.74987441  0.96418518  0.55282493  1
  O  O249  1  0.24997949  0.11280631  0.57013238  1
  O  O250  1  0.25008371  0.31296961  0.49768662  1
  O  O251  1  0.75007088  0.91781820  0.50029453  1
  O  O252  1  0.54350810  0.90658698  0.65839765  1
  O  O253  1  0.45961212  0.57056788  0.64299611  1
  O  O254  1  0.45609385  0.95932965  0.59771880  1
  O  O255  1  0.54363562  0.33364271  0.61509079  1
  O  O256  1  0.95644966  0.33367872  0.61512449  1
  O  O257  1  0.04373474  0.95936373  0.59771808  1
  O  O258  1  0.04082286  0.57051089  0.64302824  1
  O  O259  1  0.95743711  0.90648042  0.65842632  1
  O  O260  1  0.25008447  0.74158302  0.62483615  1
  O  O261  1  0.75011744  0.73827835  0.67975037  1
  O  O262  1  0.75000099  0.16271719  0.63652776  1
  O  O263  1  0.25023013  0.32242114  0.66668490  1
  O  O264  1  0.74999449  0.75325244  0.59694119  1
  O  O265  1  0.25000609  0.55285651  0.59505956  1
  O  O266  1  0.24998884  0.10720084  0.62618564  1
  O  O267  1  0.75013205  0.19559482  0.58205422  1
  O  O268  1  0.54274371  0.09517343  0.75467873  1
  O  O269  1  0.45676592  0.76064619  0.74574060  1
  O  O270  1  0.45742147  0.15225413  0.68788719  1
  O  O271  1  0.54250005  0.51921846  0.71308531  1
  O  O272  1  0.95755021  0.51921900  0.71308802  1
  O  O273  1  0.04274532  0.15229046  0.68789293  1
  O  O274  1  0.04384013  0.76068595  0.74575955  1
  O  O275  1  0.95750069  0.09523662  0.75469147  1
  O  O276  1  0.25035224  0.92986858  0.72438867  1
  O  O277  1  0.75031119  0.92429696  0.77531228  1
  O  O278  1  0.75000389  0.35003097  0.73438139  1
  O  O279  1  0.24999649  0.50573244  0.76433002  1
  O  O280  1  0.75031422  0.93260477  0.70569935  1
  O  O281  1  0.25013361  0.73640435  0.69798251  1
  O  O282  1  0.25008405  0.28610304  0.72147476  1
  O  O283  1  0.75010118  0.38548316  0.67939496  1
  O  O284  1  0.54276177  0.27686239  0.85335702  1
  O  O285  1  0.45670106  0.94464259  0.84414976  1
  O  O286  1  0.45735055  0.33565590  0.78543549  1
  O  O287  1  0.54315808  0.70322665  0.81224069  1
  O  O288  1  0.95691181  0.70319718  0.81225088  1
  O  O289  1  0.04261302  0.33567669  0.78543842  1
  O  O290  1  0.04365415  0.94456280  0.84413229  1
  O  O291  1  0.95722600  0.27685454  0.85335000  1
  O  O292  1  0.25008924  0.11606182  0.82400287  1
  O  O293  1  0.75000425  0.10544476  0.87362766  1
  O  O294  1  0.74997841  0.53173372  0.83254471  1
  O  O295  1  0.24993872  0.68751834  0.86286487  1
  O  O296  1  0.75004742  0.11515062  0.80237222  1
  O  O297  1  0.25036411  0.92587229  0.79631690  1
  O  O298  1  0.24999831  0.46858219  0.81925586  1
  O  O299  1  0.75003982  0.57131422  0.77783204  1
  O  O300  1  0.54603583  0.45918997  0.95035106  1
  O  O301  1  0.45600448  0.11965920  0.94512817  1
  O  O302  1  0.45704309  0.51531295  0.88310440  1
  O  O303  1  0.54434246  0.88612470  0.91094304  1
  O  O304  1  0.95562198  0.88611275  0.91093923  1
  O  O305  1  0.04291167  0.51527372  0.88311192  1
  O  O306  1  0.04356028  0.11977830  0.94514283  1
  O  O307  1  0.95358927  0.45924464  0.95044506  1
  O  O308  1  0.24990201  0.29374371  0.92516639  1
  O  O309  1  0.74963554  0.28694297  0.97148599  1
  O  O310  1  0.74995309  0.71135915  0.92962044  1
  O  O311  1  0.24990063  0.85772068  0.95853781  1
  O  O312  1  0.75001468  0.29436299  0.90118797  1
  O  O313  1  0.24984838  0.10625976  0.89697263  1
  O  O314  1  0.24993904  0.64628189  0.91738385  1
  O  O315  1  0.74996321  0.75696221  0.87557013  1
  O  O316  1  0.45502118  0.68868873  0.98065302  1
  O  O317  1  0.04483464  0.68859985  0.98062835  1
  O  O318  1  0.74921542  0.47390035  0.99930098  1
  O  O319  1  0.24973982  0.82923361  0.01290074  1
