# generated using pymatgen
data_Li3PO4
_symmetry_space_group_name_H-M   'P 1'
_cell_length_a   6.15119200
_cell_length_b   11.66978300
_cell_length_c   45.80186182
_cell_angle_alpha   90.00000000
_cell_angle_beta   90.00000000
_cell_angle_gamma   90.00000000
_symmetry_Int_Tables_number   1
_chemical_formula_structural   Li3PO4
_chemical_formula_sum   'Li120 P40 O160'
_cell_volume   3287.79852007
_cell_formula_units_Z   40
loop_
 _symmetry_equiv_pos_site_id
 _symmetry_equiv_pos_as_xyz
  1  'x, y, z'
loop_
 _atom_site_type_symbol
 _atom_site_label
 _atom_site_symmetry_multiplicity
 _atom_site_fract_x
 _atom_site_fract_y
 _atom_site_fract_z
 _atom_site_occupancy
  Li  Li0  1  0.47610034  0.21059863  0.99337210  1
  Li  Li1  1  0.48365776  0.60727946  0.05027644  1
  Li  Li2  1  0.50284446  0.27480868  0.05775795  1
  Li  Li3  1  0.99670936  0.27497370  0.05761618  1
  Li  Li4  1  0.01541822  0.60690656  0.05031538  1
  Li  Li5  1  0.02340447  0.21068150  0.99335645  1
  Li  Li6  1  0.75002387  0.84610671  0.06572098  1
  Li  Li7  1  0.25017615  0.05875468  0.04090599  1
  Li  Li8  1  0.74865295  0.39879956  0.01333918  1
  Li  Li9  1  0.49726495  0.66337427  0.11587720  1
  Li  Li10  1  0.50091496  0.03967977  0.08911067  1
  Li  Li11  1  0.50094190  0.43147746  0.14886537  1
  Li  Li12  1  0.49910886  0.09028404  0.15563550  1
  Li  Li13  1  0.00100862  0.09022538  0.15560889  1
  Li  Li14  1  0.99898156  0.43150844  0.14886264  1
  Li  Li15  1  0.99810203  0.04082007  0.08864955  1
  Li  Li16  1  0.00234723  0.66355676  0.11590072  1
  Li  Li17  1  0.74998837  0.66251669  0.16398697  1
  Li  Li18  1  0.25040576  0.85774331  0.13855681  1
  Li  Li19  1  0.24971120  0.46196872  0.08169211  1
  Li  Li20  1  0.74995959  0.23901763  0.12471511  1
  Li  Li21  1  0.49812334  0.48136908  0.21429931  1
  Li  Li22  1  0.50115021  0.85980654  0.18712137  1
  Li  Li23  1  0.50317350  0.24701025  0.24752488  1
  Li  Li24  1  0.49820550  0.90870875  0.25321812  1
  Li  Li25  1  0.00186003  0.90849546  0.25317485  1
  Li  Li26  1  0.99681110  0.24702702  0.24752398  1
  Li  Li27  1  0.99894055  0.85977790  0.18711955  1
  Li  Li28  1  0.00188686  0.48138010  0.21429983  1
  Li  Li29  1  0.75000214  0.47542311  0.26147411  1
  Li  Li30  1  0.25000803  0.67534123  0.23755655  1
  Li  Li31  1  0.24999580  0.28646717  0.17940432  1
  Li  Li32  1  0.75002908  0.05442903  0.22304458  1
  Li  Li33  1  0.50042380  0.29261774  0.31511650  1
  Li  Li34  1  0.50087452  0.67456295  0.28470815  1
  Li  Li35  1  0.50120431  0.05990073  0.34561530  1
  Li  Li36  1  0.49863546  0.72212798  0.34989473  1
  Li  Li37  1  0.00069016  0.72180180  0.34999578  1
  Li  Li38  1  0.99816143  0.05973373  0.34556437  1
  Li  Li39  1  0.99913660  0.67455277  0.28471137  1
  Li  Li40  1  0.99953770  0.29263572  0.31511804  1
  Li  Li41  1  0.74976586  0.25362501  0.37544667  1
  Li  Li42  1  0.25000974  0.49297462  0.33331607  1
  Li  Li43  1  0.24956353  0.10274258  0.27778442  1
  Li  Li44  1  0.75000258  0.86888176  0.32046482  1
  Li  Li45  1  0.48846738  0.09620180  0.41595187  1
  Li  Li46  1  0.51134753  0.47693006  0.37831942  1
  Li  Li47  1  0.49871611  0.84402639  0.44371381  1
  Li  Li48  1  0.53401867  0.51611919  0.43262356  1
  Li  Li49  1  0.96667244  0.51583672  0.43252326  1
  Li  Li50  1  0.00051992  0.84426130  0.44372835  1
  Li  Li51  1  0.98857637  0.47689216  0.37830515  1
  Li  Li52  1  0.00762781  0.09779551  0.41598841  1
  Li  Li53  1  0.74881233  0.05784017  0.46226382  1
  Li  Li54  1  0.24997371  0.27552041  0.44595975  1
  Li  Li55  1  0.24968470  0.92043951  0.37523138  1
  Li  Li56  1  0.74998618  0.68419052  0.40827419  1
  Li  Li57  1  0.45785119  0.83802598  0.51386333  1
  Li  Li58  1  0.04216628  0.83800755  0.51386710  1
  Li  Li59  1  0.25001847  0.68349152  0.48106805  1
  Li  Li60  1  0.52620310  0.43978431  0.49290816  1
  Li  Li61  1  0.51708495  0.04452287  0.55103799  1
  Li  Li62  1  0.49659366  0.37593832  0.55754320  1
  Li  Li63  1  0.00367836  0.37587447  0.55754227  1
  Li  Li64  1  0.98369090  0.04443985  0.55088943  1
  Li  Li65  1  0.97433087  0.43991530  0.49293311  1
  Li  Li66  1  0.25003700  0.80321012  0.56466930  1
  Li  Li67  1  0.75021248  0.59221199  0.54036215  1
  Li  Li68  1  0.25019082  0.25362788  0.51140403  1
  Li  Li69  1  0.50246145  0.98677250  0.61567784  1
  Li  Li70  1  0.49880848  0.61022531  0.58872077  1
  Li  Li71  1  0.49911093  0.21876196  0.64904294  1
  Li  Li72  1  0.50078405  0.56019559  0.65568558  1
  Li  Li73  1  0.99931677  0.56020280  0.65568349  1
  Li  Li74  1  0.00099390  0.21876329  0.64903943  1
  Li  Li75  1  0.00128882  0.61022285  0.58871977  1
  Li  Li76  1  0.99761162  0.98678152  0.61567283  1
  Li  Li77  1  0.25010314  0.98790850  0.66408750  1
  Li  Li78  1  0.75003391  0.79277691  0.63805609  1
  Li  Li79  1  0.75008069  0.18927607  0.58192470  1
  Li  Li80  1  0.25010623  0.41199940  0.62489671  1
  Li  Li81  1  0.50291594  0.16895687  0.71453792  1
  Li  Li82  1  0.49864453  0.79046128  0.68697466  1
  Li  Li83  1  0.49789216  0.40170332  0.74783469  1
  Li  Li84  1  0.50108061  0.74069610  0.75372187  1
  Li  Li85  1  0.99925575  0.74074616  0.75373300  1
  Li  Li86  1  0.00250851  0.40158702  0.74784693  1
  Li  Li87  1  0.00165608  0.79052982  0.68697325  1
  Li  Li88  1  0.99865575  0.16868989  0.71446877  1
  Li  Li89  1  0.25013788  0.17345463  0.76204544  1
  Li  Li90  1  0.75008953  0.97454630  0.73769894  1
  Li  Li91  1  0.75028340  0.36489982  0.67940927  1
  Li  Li92  1  0.25004167  0.59563492  0.72330407  1
  Li  Li93  1  0.49978325  0.35513439  0.81574626  1
  Li  Li94  1  0.49866720  0.97421912  0.78505905  1
  Li  Li95  1  0.49773546  0.58831420  0.84612942  1
  Li  Li96  1  0.50232740  0.92673810  0.85066497  1
  Li  Li97  1  0.99876159  0.92623876  0.85080025  1
  Li  Li98  1  0.00217041  0.58835066  0.84612709  1
  Li  Li99  1  0.00143189  0.97421114  0.78506432  1
  Li  Li100  1  0.00031931  0.35517927  0.81576558  1
  Li  Li101  1  0.25001247  0.39845877  0.87671532  1
  Li  Li102  1  0.75008131  0.15571923  0.83393725  1
  Li  Li103  1  0.75005882  0.54714788  0.77804815  1
  Li  Li104  1  0.25006537  0.78025018  0.82130582  1
  Li  Li105  1  0.51107806  0.55182734  0.91679941  1
  Li  Li106  1  0.48885744  0.17263925  0.87896303  1
  Li  Li107  1  0.50091829  0.80485530  0.94473077  1
  Li  Li108  1  0.46422745  0.13471380  0.93275427  1
  Li  Li109  1  0.03556421  0.13454319  0.93276980  1
  Li  Li110  1  0.99968268  0.80638066  0.94495052  1
  Li  Li111  1  0.01119828  0.17259368  0.87896856  1
  Li  Li112  1  0.98892405  0.55193090  0.91679893  1
  Li  Li113  1  0.24999690  0.59370965  0.96283124  1
  Li  Li114  1  0.75001571  0.37369846  0.94723699  1
  Li  Li115  1  0.74970056  0.72855965  0.87606269  1
  Li  Li116  1  0.25024793  0.96543938  0.90902800  1
  Li  Li117  1  0.54435087  0.81397626  0.01477226  1
  Li  Li118  1  0.95728948  0.81385412  0.01481020  1
  Li  Li119  1  0.75000584  0.96709662  0.98114377  1
  P  P120  1  0.24995094  0.81291881  0.07237056  1
  P  P121  1  0.74991953  0.07089014  0.03270638  1
  P  P122  1  0.24951072  0.41819517  0.01559927  1
  P  P123  1  0.25005508  0.63353830  0.17292958  1
  P  P124  1  0.75022659  0.88858631  0.13000790  1
  P  P125  1  0.74984063  0.46053572  0.09263310  1
  P  P126  1  0.24980137  0.24218154  0.11360368  1
  P  P127  1  0.25001451  0.44597706  0.27129804  1
  P  P128  1  0.74995673  0.70653847  0.22810612  1
  P  P129  1  0.75001262  0.27765623  0.19097629  1
  P  P130  1  0.25001280  0.06251334  0.21141843  1
  P  P131  1  0.24976977  0.25769259  0.37326559  1
  P  P132  1  0.74995719  0.51948489  0.32384698  1
  P  P133  1  0.74990476  0.09273002  0.28955379  1
  P  P134  1  0.24993186  0.87823899  0.30889343  1
  P  P135  1  0.24937876  0.03466681  0.47229822  1
  P  P136  1  0.74954327  0.32833247  0.43166035  1
  P  P137  1  0.74978657  0.90668956  0.38730547  1
  P  P138  1  0.24991922  0.68578369  0.40204394  1
  P  P139  1  0.75014741  0.66946614  0.47729997  1
  P  P140  1  0.75011332  0.83851441  0.57186231  1
  P  P141  1  0.25014853  0.57964700  0.53218636  1
  P  P142  1  0.75011112  0.23206264  0.51566243  1
  P  P143  1  0.75027043  0.01660496  0.67294604  1
  P  P144  1  0.25006272  0.76211542  0.62968590  1
  P  P145  1  0.25003388  0.19131249  0.59301195  1
  P  P146  1  0.75007311  0.40857478  0.61348834  1
  P  P147  1  0.75034822  0.20234967  0.77169385  1
  P  P148  1  0.25028879  0.94306712  0.72837507  1
  P  P149  1  0.25022915  0.37302941  0.69115813  1
  P  P150  1  0.75015926  0.58812959  0.71164643  1
  P  P151  1  0.75005647  0.39145607  0.87406733  1
  P  P152  1  0.25007029  0.12902496  0.82449506  1
  P  P153  1  0.25007363  0.55597447  0.79005619  1
  P  P154  1  0.75009025  0.77101885  0.80959200  1
  P  P155  1  0.75019442  0.61545890  0.97344207  1
  P  P156  1  0.24992547  0.32167384  0.93240361  1
  P  P157  1  0.24998443  0.74219770  0.88820746  1
  P  P158  1  0.75008246  0.96379853  0.90294924  1
  P  P159  1  0.25033764  0.98125422  0.97798509  1
  O  O160  1  0.45611033  0.77096862  0.05532985  1
  O  O161  1  0.54655705  0.11044231  0.05005189  1
  O  O162  1  0.45422942  0.33920160  0.01956277  1
  O  O163  1  0.04420924  0.33961599  0.01949343  1
  O  O164  1  0.95393709  0.11081754  0.04987066  1
  O  O165  1  0.04392685  0.77077898  0.05533615  1
  O  O166  1  0.75018604  0.93767342  0.02927480  1
  O  O167  1  0.24975137  0.50951609  0.04101906  1
  O  O168  1  0.74984385  0.36402455  0.06972757  1
  O  O169  1  0.74962237  0.12385653  0.00104658  1
  O  O170  1  0.25011642  0.47789627  0.98670171  1
  O  O171  1  0.45658110  0.59484404  0.15581572  1
  O  O172  1  0.54283580  0.92741260  0.14691336  1
  O  O173  1  0.54398599  0.53773318  0.08881290  1
  O  O174  1  0.45689381  0.16604827  0.11692730  1
  O  O175  1  0.04273752  0.16601921  0.11689089  1
  O  O176  1  0.95573579  0.53772963  0.08884088  1
  O  O177  1  0.95741072  0.92720528  0.14697040  1
  O  O178  1  0.04343541  0.59493739  0.15582178  1
  O  O179  1  0.74990471  0.75611721  0.12645789  1
  O  O180  1  0.24974088  0.94527166  0.07503374  1
  O  O181  1  0.24982984  0.33810733  0.13722554  1
  O  O182  1  0.75001717  0.18266196  0.16718326  1
  O  O183  1  0.25004925  0.75840981  0.10351991  1
  O  O184  1  0.75040111  0.94554687  0.09917281  1
  O  O185  1  0.74982781  0.40772220  0.12398186  1
  O  O186  1  0.24980272  0.29744147  0.08271106  1
  O  O187  1  0.45662346  0.40962799  0.25392058  1
  O  O188  1  0.54249151  0.74480066  0.24512195  1
  O  O189  1  0.54331331  0.35390807  0.18759082  1
  O  O190  1  0.45725685  0.98617603  0.21436727  1
  O  O191  1  0.04282912  0.98613397  0.21436220  1
  O  O192  1  0.95667937  0.35393732  0.18759039  1
  O  O193  1  0.95745555  0.74474880  0.24512367  1
  O  O194  1  0.04338971  0.40964461  0.25392056  1
  O  O195  1  0.74995651  0.57413901  0.22439601  1
  O  O196  1  0.25022288  0.76613055  0.17613499  1
  O  O197  1  0.24996081  0.15593211  0.23558521  1
  O  O198  1  0.75008360  0.99939246  0.26530038  1
  O  O199  1  0.25002009  0.57579135  0.20362533  1
  O  O200  1  0.75002569  0.76529352  0.19747747  1
  O  O201  1  0.75001488  0.22126178  0.22188546  1
  O  O202  1  0.25002482  0.11969298  0.18064537  1
  O  O203  1  0.45927216  0.21965061  0.35642767  1
  O  O204  1  0.54284661  0.55748992  0.34108141  1
  O  O205  1  0.54260286  0.16869675  0.28663038  1
  O  O206  1  0.45722839  0.80201359  0.31177981  1
  O  O207  1  0.04274327  0.80195649  0.31179168  1
  O  O208  1  0.95722350  0.16871697  0.28664793  1
  O  O209  1  0.95711875  0.55738896  0.34108122  1
  O  O210  1  0.04045385  0.21970025  0.35638072  1
  O  O211  1  0.74992982  0.38820632  0.32036885  1
  O  O212  1  0.25003216  0.57860890  0.27535767  1
  O  O213  1  0.24988139  0.97202885  0.33302679  1
  O  O214  1  0.74991335  0.81265307  0.36299563  1
  O  O215  1  0.25001359  0.38523199  0.30171175  1
  O  O216  1  0.75000144  0.58140763  0.29375465  1
  O  O217  1  0.74975954  0.03474085  0.32029288  1
  O  O218  1  0.24993242  0.93604380  0.27820529  1
  O  O219  1  0.45434197  0.00211130  0.45342290  1
  O  O220  1  0.54081765  0.36578581  0.44868034  1
  O  O221  1  0.54335983  0.98330376  0.38448053  1
  O  O222  1  0.45619143  0.60896711  0.40166627  1
  O  O223  1  0.04359397  0.60898854  0.40160231  1
  O  O224  1  0.95593170  0.98350520  0.38450946  1
  O  O225  1  0.95848331  0.36550628  0.44867625  1
  O  O226  1  0.04413067  0.00230670  0.45348212  1
  O  O227  1  0.74892824  0.20122801  0.42154025  1
  O  O228  1  0.24994000  0.39094121  0.37445675  1
  O  O229  1  0.24971860  0.76089320  0.42968394  1
  O  O230  1  0.75028181  0.61427462  0.44654643  1
  O  O231  1  0.24931052  0.20234122  0.40436062  1
  O  O232  1  0.74991960  0.40346134  0.40231731  1
  O  O233  1  0.74976465  0.84486027  0.41741029  1
  O  O234  1  0.25000110  0.75837529  0.37364167  1
  O  O235  1  0.54630637  0.74694858  0.48065011  1
  O  O236  1  0.95386513  0.74700679  0.48066285  1
  O  O237  1  0.24984581  0.16409548  0.47791394  1
  O  O238  1  0.24973661  0.96287471  0.50153115  1
  O  O239  1  0.75016243  0.56756407  0.49908192  1
  O  O240  1  0.54388420  0.88022847  0.55476342  1
  O  O241  1  0.45394033  0.54071837  0.54955162  1
  O  O242  1  0.54501612  0.31119502  0.51926105  1
  O  O243  1  0.95534185  0.31112422  0.51924533  1
  O  O244  1  0.04634496  0.54065919  0.54954140  1
  O  O245  1  0.95637398  0.88024098  0.55477132  1
  O  O246  1  0.25005579  0.71277835  0.52836671  1
  O  O247  1  0.75016412  0.14221536  0.54140925  1
  O  O248  1  0.25010287  0.28890370  0.57044172  1
  O  O249  1  0.25019775  0.52561621  0.50062462  1
  O  O250  1  0.74988351  0.17056450  0.48701545  1
  O  O251  1  0.54373760  0.05544391  0.65585423  1
  O  O252  1  0.45726797  0.72323015  0.64662762  1
  O  O253  1  0.45570840  0.11398086  0.58905656  1
  O  O254  1  0.54299950  0.48477372  0.61685339  1
  O  O255  1  0.95710821  0.48479988  0.61685153  1
  O  O256  1  0.04440472  0.11396530  0.58904138  1
  O  O257  1  0.04281795  0.72324616  0.64661927  1
  O  O258  1  0.95679345  0.05540654  0.65585335  1
  O  O259  1  0.25007178  0.89465052  0.62633819  1
  O  O260  1  0.75013560  0.70622118  0.57474558  1
  O  O261  1  0.75011582  0.31252386  0.63708371  1
  O  O262  1  0.25014642  0.46827898  0.66740977  1
  O  O263  1  0.75004640  0.89375278  0.60294871  1
  O  O264  1  0.25009926  0.70568570  0.59877352  1
  O  O265  1  0.25007619  0.24299348  0.62446284  1
  O  O266  1  0.75011007  0.35383276  0.58254348  1
  O  O267  1  0.54396039  0.23920715  0.75432411  1
  O  O268  1  0.45758264  0.90458667  0.74540899  1
  O  O269  1  0.45711385  0.29683741  0.68773922  1
  O  O270  1  0.54274216  0.66433722  0.71461943  1
  O  O271  1  0.95746854  0.66442015  0.71461813  1
  O  O272  1  0.04339364  0.29680861  0.68772864  1
  O  O273  1  0.04290024  0.90468060  0.74540004  1
  O  O274  1  0.95678891  0.23907847  0.75432013  1
  O  O275  1  0.25049610  0.07555603  0.72472789  1
  O  O276  1  0.75020789  0.88394999  0.67598087  1
  O  O277  1  0.75021813  0.49439146  0.73576517  1
  O  O278  1  0.25014418  0.64927218  0.76575958  1
  O  O279  1  0.75039041  0.07410971  0.70369049  1
  O  O280  1  0.25025980  0.88477904  0.69767512  1
  O  O281  1  0.25017088  0.42872207  0.72215653  1
  O  O282  1  0.75013306  0.53141771  0.68078614  1
  O  O283  1  0.54060722  0.42920804  0.85717844  1
  O  O284  1  0.45729483  0.09137898  0.84175614  1
  O  O285  1  0.45761983  0.48010350  0.78716595  1
  O  O286  1  0.54281493  0.84730723  0.81250178  1
  O  O287  1  0.95739962  0.84727552  0.81251801  1
  O  O288  1  0.04256943  0.48008121  0.78715421  1
  O  O289  1  0.04300206  0.09132463  0.84177624  1
  O  O290  1  0.95950521  0.42922216  0.85717940  1
  O  O291  1  0.25006615  0.26025643  0.82086946  1
  O  O292  1  0.75015215  0.06975367  0.77565341  1
  O  O293  1  0.74997709  0.67707646  0.83369207  1
  O  O294  1  0.25033598  0.83602535  0.86383821  1
  O  O295  1  0.75027946  0.26275871  0.80216432  1
  O  O296  1  0.25007299  0.06711474  0.79437663  1
  O  O297  1  0.24999887  0.61421003  0.82078465  1
  O  O298  1  0.75017597  0.71369096  0.77881529  1
  O  O299  1  0.54538386  0.64778525  0.95453245  1
  O  O300  1  0.45903043  0.28459910  0.94936410  1
  O  O301  1  0.45619634  0.66535602  0.88539593  1
  O  O302  1  0.54397566  0.04060651  0.90224856  1
  O  O303  1  0.95651452  0.04036814  0.90225103  1
  O  O304  1  0.04367943  0.66546291  0.88535043  1
  O  O305  1  0.04077232  0.28451658  0.94934340  1
  O  O306  1  0.95493844  0.64827933  0.95458466  1
  O  O307  1  0.24992049  0.44840426  0.92193563  1
  O  O308  1  0.75008991  0.25825503  0.87528775  1
  O  O309  1  0.74996240  0.89021462  0.93086638  1
  O  O310  1  0.25014922  0.03586075  0.94716573  1
  O  O311  1  0.75005073  0.44709008  0.90514348  1
  O  O312  1  0.25002060  0.24565097  0.90316935  1
  O  O313  1  0.24997059  0.80432222  0.91827770  1
  O  O314  1  0.75000609  0.88998491  0.87474551  1
  O  O315  1  0.45382541  0.90349664  0.98142207  1
  O  O316  1  0.04652059  0.90372786  0.98146853  1
  O  O317  1  0.75030580  0.48617124  0.97918622  1
  O  O318  1  0.74993243  0.68695536  0.00277805  1
  O  O319  1  0.25035137  0.08340138  0.99964681  1
