# generated using pymatgen
data_Li3PO4
_symmetry_space_group_name_H-M   'P 1'
_cell_length_a   6.15119200
_cell_length_b   11.66978300
_cell_length_c   50.74910036
_cell_angle_alpha   90.00000000
_cell_angle_beta   90.00000000
_cell_angle_gamma   90.00000000
_symmetry_Int_Tables_number   1
_chemical_formula_structural   Li3PO4
_chemical_formula_sum   'Li132 P44 O176'
_cell_volume   3642.92651972
_cell_formula_units_Z   44
loop_
 _symmetry_equiv_pos_site_id
 _symmetry_equiv_pos_as_xyz
  1  'x, y, z'
loop_
 _atom_site_type_symbol
 _atom_site_label
 _atom_site_symmetry_multiplicity
 _atom_site_fract_x
 _atom_site_fract_y
 _atom_site_fract_z
 _atom_site_occupancy
  Li  Li0  1  0.55578442  0.78790856  0.01852047  1
  Li  Li1  1  0.47722979  0.09959883  0.02371588  1
  Li  Li2  1  0.50389819  0.51167409  0.06664939  1
  Li  Li3  1  0.49964001  0.16727161  0.07782860  1
  Li  Li4  1  0.00003087  0.16718450  0.07780288  1
  Li  Li5  1  0.99493959  0.51212645  0.06674859  1
  Li  Li6  1  0.02213383  0.09979807  0.02354467  1
  Li  Li7  1  0.94267557  0.78621448  0.01862166  1
  Li  Li8  1  0.24939283  0.93694439  0.06474020  1
  Li  Li9  1  0.24981742  0.52625900  0.01153801  1
  Li  Li10  1  0.74993783  0.30540988  0.04829348  1
  Li  Li11  1  0.49919360  0.55966680  0.12821702  1
  Li  Li12  1  0.49982863  0.92941178  0.10604799  1
  Li  Li13  1  0.50213151  0.32722828  0.15837141  1
  Li  Li14  1  0.49862070  0.98580386  0.16447483  1
  Li  Li15  1  0.00124060  0.98579121  0.16447379  1
  Li  Li16  1  0.99775355  0.32722612  0.15837204  1
  Li  Li17  1  0.99962511  0.92936999  0.10604910  1
  Li  Li18  1  0.00051771  0.55967989  0.12822318  1
  Li  Li19  1  0.74881999  0.73869004  0.07994987  1
  Li  Li20  1  0.24987131  0.75345904  0.14976918  1
  Li  Li21  1  0.24987568  0.36661243  0.09632663  1
  Li  Li22  1  0.74995944  0.13286696  0.13681581  1
  Li  Li23  1  0.49766310  0.37618924  0.21790965  1
  Li  Li24  1  0.50264956  0.75331526  0.19293893  1
  Li  Li25  1  0.50185949  0.14350875  0.24695574  1
  Li  Li26  1  0.49890734  0.80300097  0.25309986  1
  Li  Li27  1  0.00097823  0.80300321  0.25310300  1
  Li  Li28  1  0.99783974  0.14350080  0.24702062  1
  Li  Li29  1  0.99711499  0.75332520  0.19293899  1
  Li  Li30  1  0.00142054  0.37593424  0.21798819  1
  Li  Li31  1  0.74976472  0.55740298  0.17220072  1
  Li  Li32  1  0.24869224  0.57153496  0.23836792  1
  Li  Li33  1  0.24985700  0.18096137  0.18629408  1
  Li  Li34  1  0.74996111  0.94813121  0.22547874  1
  Li  Li35  1  0.49746636  0.19358368  0.30688957  1
  Li  Li36  1  0.50207530  0.57002722  0.28201838  1
  Li  Li37  1  0.50022751  0.96123489  0.33547251  1
  Li  Li38  1  0.49793333  0.62008474  0.34128158  1
  Li  Li39  1  0.00210052  0.62007969  0.34128581  1
  Li  Li40  1  0.99975057  0.96123644  0.33547093  1
  Li  Li41  1  0.99775328  0.57003137  0.28203290  1
  Li  Li42  1  0.00244481  0.19358056  0.30689345  1
  Li  Li43  1  0.74988680  0.37540073  0.26124565  1
  Li  Li44  1  0.24997541  0.38844749  0.32779135  1
  Li  Li45  1  0.24998067  0.99729848  0.27436936  1
  Li  Li46  1  0.74999436  0.76709461  0.31366719  1
  Li  Li47  1  0.50005121  0.01745921  0.39406699  1
  Li  Li48  1  0.50054336  0.38858441  0.37163762  1
  Li  Li49  1  0.49966925  0.78284247  0.42192015  1
  Li  Li50  1  0.49718235  0.43709976  0.43299563  1
  Li  Li51  1  0.00678504  0.43666808  0.43277964  1
  Li  Li52  1  0.00040724  0.78287786  0.42192546  1
  Li  Li53  1  0.99957240  0.38853374  0.37162644  1
  Li  Li54  1  0.99997045  0.01746331  0.39406852  1
  Li  Li55  1  0.74996251  0.19458315  0.34993684  1
  Li  Li56  1  0.25033012  0.21090164  0.41995454  1
  Li  Li57  1  0.25000744  0.81392371  0.36299041  1
  Li  Li58  1  0.75032771  0.58181446  0.40354725  1
  Li  Li59  1  0.52341157  0.84969751  0.47623168  1
  Li  Li60  1  0.44347211  0.16184632  0.48175389  1
  Li  Li61  1  0.05623983  0.16193798  0.48182392  1
  Li  Li62  1  0.97698858  0.85021140  0.47625190  1
  Li  Li63  1  0.75004696  0.01300210  0.43577329  1
  Li  Li64  1  0.25005553  0.64384865  0.45137067  1
  Li  Li65  1  0.75141934  0.42330700  0.48832900  1
  Li  Li66  1  0.94369214  0.66244950  0.51815577  1
  Li  Li67  1  0.02448452  0.35071249  0.52371150  1
  Li  Li68  1  0.99587293  0.93794935  0.56710799  1
  Li  Li69  1  0.99979191  0.28409675  0.57803728  1
  Li  Li70  1  0.50033962  0.28409239  0.57804264  1
  Li  Li71  1  0.50443188  0.93837998  0.56717580  1
  Li  Li72  1  0.47928732  0.34992913  0.52355060  1
  Li  Li73  1  0.55679707  0.66237583  0.51814553  1
  Li  Li74  1  0.25198368  0.51413793  0.56421436  1
  Li  Li75  1  0.25057388  0.92292591  0.51159483  1
  Li  Li76  1  0.75006598  0.14468178  0.54852550  1
  Li  Li77  1  0.00062092  0.88954189  0.62837496  1
  Li  Li78  1  0.00122441  0.51943116  0.60580752  1
  Li  Li79  1  0.99794583  0.12307675  0.65875570  1
  Li  Li80  1  0.00061836  0.46352781  0.66440039  1
  Li  Li81  1  0.49942264  0.46347368  0.66439741  1
  Li  Li82  1  0.50207623  0.12310307  0.65875093  1
  Li  Li83  1  0.50145239  0.51919994  0.60591309  1
  Li  Li84  1  0.49942070  0.88955255  0.62837600  1
  Li  Li85  1  0.75013008  0.71173501  0.58002773  1
  Li  Li86  1  0.25005551  0.69651887  0.64982997  1
  Li  Li87  1  0.24993686  0.08331106  0.59625942  1
  Li  Li88  1  0.75046846  0.31511124  0.63698036  1
  Li  Li89  1  0.00230213  0.07376531  0.71826055  1
  Li  Li90  1  0.99790960  0.69702388  0.69299531  1
  Li  Li91  1  0.99765104  0.30754113  0.74724208  1
  Li  Li92  1  0.00128357  0.64638132  0.75314198  1
  Li  Li93  1  0.49858726  0.64639220  0.75313404  1
  Li  Li94  1  0.50231348  0.30752282  0.74723850  1
  Li  Li95  1  0.50243754  0.69670760  0.69294503  1
  Li  Li96  1  0.49765477  0.07377285  0.71826032  1
  Li  Li97  1  0.74999932  0.89245800  0.67247446  1
  Li  Li98  1  0.24999011  0.87792759  0.73861065  1
  Li  Li99  1  0.24999272  0.26943939  0.68632090  1
  Li  Li100  1  0.74999725  0.50223648  0.72551068  1
  Li  Li101  1  0.00220389  0.25663173  0.80721436  1
  Li  Li102  1  0.99825545  0.87984860  0.78207968  1
  Li  Li103  1  0.99964801  0.48810149  0.83562650  1
  Li  Li104  1  0.00159281  0.82892252  0.84159992  1
  Li  Li105  1  0.49827259  0.82891897  0.84160145  1
  Li  Li106  1  0.50030915  0.48813343  0.83562068  1
  Li  Li107  1  0.50167514  0.87986347  0.78207881  1
  Li  Li108  1  0.49764710  0.25664255  0.80719477  1
  Li  Li109  1  0.74994097  0.07504059  0.76175449  1
  Li  Li110  1  0.24970625  0.05964137  0.82786055  1
  Li  Li111  1  0.25013515  0.45330052  0.77466015  1
  Li  Li112  1  0.74973954  0.68383843  0.81384590  1
  Li  Li113  1  0.99998380  0.43140675  0.89409447  1
  Li  Li114  1  0.99854492  0.06115277  0.87184825  1
  Li  Li115  1  0.00039025  0.66857669  0.92196235  1
  Li  Li116  1  0.00477210  0.01425300  0.93310698  1
  Li  Li117  1  0.49516382  0.01425185  0.93309711  1
  Li  Li118  1  0.49968925  0.66883998  0.92200819  1
  Li  Li119  1  0.50097907  0.06071363  0.87169600  1
  Li  Li120  1  0.49957651  0.43151728  0.89414312  1
  Li  Li121  1  0.74976569  0.25465078  0.85035628  1
  Li  Li122  1  0.24942444  0.23983936  0.91996158  1
  Li  Li123  1  0.24998142  0.63637567  0.86329416  1
  Li  Li124  1  0.74996290  0.86916228  0.90404375  1
  Li  Li125  1  0.97779341  0.60128005  0.97615206  1
  Li  Li126  1  0.05618276  0.28667322  0.98115805  1
  Li  Li127  1  0.44374223  0.28681713  0.98117113  1
  Li  Li128  1  0.52129892  0.60127047  0.97611649  1
  Li  Li129  1  0.74979065  0.43978767  0.93561211  1
  Li  Li130  1  0.24973005  0.80777721  0.95146957  1
  Li  Li131  1  0.74958543  0.02699509  0.98826468  1
  P  P132  1  0.74967977  0.96926896  0.05353764  1
  P  P133  1  0.74969491  0.54399309  0.01552480  1
  P  P134  1  0.24973325  0.31340699  0.03752588  1
  P  P135  1  0.24939331  0.70519352  0.09187875  1
  P  P136  1  0.74962823  0.78301893  0.14139510  1
  P  P137  1  0.74983844  0.35534031  0.10714980  1
  P  P138  1  0.24985329  0.14017377  0.12663048  1
  P  P139  1  0.24957585  0.52752356  0.18028004  1
  P  P140  1  0.74947119  0.60169223  0.23056548  1
  P  P141  1  0.74987874  0.17248582  0.19637781  1
  P  P142  1  0.24987805  0.95646105  0.21483797  1
  P  P143  1  0.24981636  0.34465672  0.26931108  1
  P  P144  1  0.74990472  0.41911227  0.31952207  1
  P  P145  1  0.74992109  0.99024153  0.28515197  1
  P  P146  1  0.24998421  0.77386044  0.30347029  1
  P  P147  1  0.24996993  0.16405413  0.35854681  1
  P  P148  1  0.75010907  0.24289982  0.40794799  1
  P  P149  1  0.75003350  0.80755608  0.37328606  1
  P  P150  1  0.25030975  0.59308677  0.39253409  1
  P  P151  1  0.25020572  0.98053098  0.44663225  1
  P  P152  1  0.75049678  0.63591184  0.46201367  1
  P  P153  1  0.25127390  0.40552165  0.48414026  1
  P  P154  1  0.75103652  0.48150552  0.55331421  1
  P  P155  1  0.75006947  0.90605636  0.51577388  1
  P  P156  1  0.25005064  0.13648222  0.53791335  1
  P  P157  1  0.25046401  0.74409489  0.59195891  1
  P  P158  1  0.75036098  0.66633910  0.64144368  1
  P  P159  1  0.75000478  0.09420341  0.60741853  1
  P  P160  1  0.25015846  0.30963089  0.62666872  1
  P  P161  1  0.25007613  0.92208111  0.68048804  1
  P  P162  1  0.74995147  0.84785366  0.73074985  1
  P  P163  1  0.75000957  0.27710816  0.69661760  1
  P  P164  1  0.24997836  0.49338022  0.71492428  1
  P  P165  1  0.24981326  0.10549285  0.76959008  1
  P  P166  1  0.74989210  0.03026340  0.81978860  1
  P  P167  1  0.75000342  0.46006125  0.78533019  1
  P  P168  1  0.24992332  0.67581840  0.80363358  1
  P  P169  1  0.24984288  0.28512598  0.85876209  1
  P  P170  1  0.74952595  0.20764553  0.90820607  1
  P  P171  1  0.74992935  0.64229771  0.87342472  1
  P  P172  1  0.24985052  0.85789063  0.89283553  1
  P  P173  1  0.24977633  0.47055161  0.94644980  1
  P  P174  1  0.74997676  0.81504215  0.96230384  1
  P  P175  1  0.25014432  0.04417952  0.98420202  1
  O  O176  1  0.45775275  0.66645154  0.07732968  1
  O  O177  1  0.54030673  0.00247527  0.06919079  1
  O  O178  1  0.54077186  0.62110598  0.01480700  1
  O  O179  1  0.45519448  0.23872450  0.04273062  1
  O  O180  1  0.04440754  0.23853807  0.04268580  1
  O  O181  1  0.95949994  0.62047846  0.01486314  1
  O  O182  1  0.95877198  0.00240752  0.06923817  1
  O  O183  1  0.04055098  0.66673873  0.07738679  1
  O  O184  1  0.74956764  0.83931731  0.04728664  1
  O  O185  1  0.24935901  0.42005941  0.05588234  1
  O  O186  1  0.74962146  0.47552409  0.98879608  1
  O  O187  1  0.74985204  0.03918633  0.02759882  1
  O  O188  1  0.74932299  0.46994448  0.04094215  1
  O  O189  1  0.24987073  0.35320934  0.00833549  1
  O  O190  1  0.45661030  0.48890962  0.16494040  1
  O  O191  1  0.54277893  0.82368307  0.15665363  1
  O  O192  1  0.54301716  0.43047571  0.10324597  1
  O  O193  1  0.45699694  0.06366920  0.12904013  1
  O  O194  1  0.04277925  0.06362410  0.12904016  1
  O  O195  1  0.95648926  0.43058861  0.10324213  1
  O  O196  1  0.95640447  0.82366725  0.15666430  1
  O  O197  1  0.04271515  0.48893986  0.16490050  1
  O  O198  1  0.74957937  0.65052831  0.13918031  1
  O  O199  1  0.24973443  0.83936165  0.09473257  1
  O  O200  1  0.24986226  0.23343918  0.14839473  1
  O  O201  1  0.74988899  0.25660203  0.08652831  1
  O  O202  1  0.24968926  0.65214962  0.12029558  1
  O  O203  1  0.74964317  0.83808445  0.11339335  1
  O  O204  1  0.74991107  0.30197525  0.13536273  1
  O  O205  1  0.24976499  0.19866508  0.09895275  1
  O  O206  1  0.45686157  0.30605424  0.25393860  1
  O  O207  1  0.54246523  0.64027835  0.24593838  1
  O  O208  1  0.54311583  0.24880452  0.19355109  1
  O  O209  1  0.45704484  0.88033172  0.21768885  1
  O  O210  1  0.04278260  0.88029150  0.21769451  1
  O  O211  1  0.95668489  0.24877096  0.19355600  1
  O  O212  1  0.95629784  0.64030609  0.24598202  1
  O  O213  1  0.04264279  0.30605138  0.25395610  1
  O  O214  1  0.74956186  0.46911560  0.22753756  1
  O  O215  1  0.24966734  0.66006673  0.18355833  1
  O  O216  1  0.24982450  0.05098811  0.23644391  1
  O  O217  1  0.74985317  0.07854211  0.17462981  1
  O  O218  1  0.24933746  0.46956846  0.20805035  1
  O  O219  1  0.74974607  0.65924914  0.20281013  1
  O  O220  1  0.74987529  0.11511327  0.22414713  1
  O  O221  1  0.24982083  0.01350125  0.18701324  1
  O  O222  1  0.45665205  0.12340130  0.34324008  1
  O  O223  1  0.54295535  0.45781432  0.33487533  1
  O  O224  1  0.54271402  0.06621898  0.28226463  1
  O  O225  1  0.45705713  0.69784214  0.30630196  1
  O  O226  1  0.04293149  0.69782556  0.30630605  1
  O  O227  1  0.95716502  0.06619389  0.28226718  1
  O  O228  1  0.95690478  0.45781320  0.33486796  1
  O  O229  1  0.04326214  0.12341181  0.34324423  1
  O  O230  1  0.74989962  0.28662845  0.31624142  1
  O  O231  1  0.24978715  0.47724473  0.27225504  1
  O  O232  1  0.24999218  0.86793132  0.32518933  1
  O  O233  1  0.74992086  0.89548618  0.26359077  1
  O  O234  1  0.24985771  0.28727444  0.29707902  1
  O  O235  1  0.74987290  0.47688020  0.29174572  1
  O  O236  1  0.74995291  0.93353081  0.31300672  1
  O  O237  1  0.24995127  0.83113333  0.27570004  1
  O  O238  1  0.45928490  0.94705660  0.43094299  1
  O  O239  1  0.54168212  0.28213531  0.42243803  1
  O  O240  1  0.54271799  0.88397051  0.37090341  1
  O  O241  1  0.45703985  0.51801064  0.39650196  1
  O  O242  1  0.04386276  0.51775688  0.39648015  1
  O  O243  1  0.95734134  0.88397813  0.37089726  1
  O  O244  1  0.95872876  0.28202675  0.42241491  1
  O  O245  1  0.04100964  0.94710450  0.43095730  1
  O  O246  1  0.75001114  0.10869151  0.40532057  1
  O  O247  1  0.25000205  0.29659056  0.36079481  1
  O  O248  1  0.25001625  0.69226304  0.41307358  1
  O  O249  1  0.75001812  0.71423444  0.35153272  1
  O  O250  1  0.25001252  0.10894750  0.38654970  1
  O  O251  1  0.75002087  0.29550261  0.37948443  1
  O  O252  1  0.75010336  0.74952132  0.40100587  1
  O  O253  1  0.25012043  0.64580114  0.36426421  1
  O  O254  1  0.54477791  0.71069600  0.45699064  1
  O  O255  1  0.46060193  0.32876246  0.48497521  1
  O  O256  1  0.04186676  0.32884896  0.48504796  1
  O  O257  1  0.95570623  0.71113303  0.45703523  1
  O  O258  1  0.25016329  0.11036535  0.45290637  1
  O  O259  1  0.25147801  0.47523617  0.51072495  1
  O  O260  1  0.75122996  0.52961455  0.44357846  1
  O  O261  1  0.25032297  0.91041193  0.47254511  1
  O  O262  1  0.75046019  0.59553283  0.49117555  1
  O  O263  1  0.25099668  0.47882781  0.45861045  1
  O  O264  1  0.04186936  0.78293843  0.57746101  1
  O  O265  1  0.96048724  0.44839605  0.56896537  1
  O  O266  1  0.95931769  0.82924703  0.51490786  1
  O  O267  1  0.04461510  0.21154478  0.54288333  1
  O  O268  1  0.45550234  0.21157666  0.54288672  1
  O  O269  1  0.54087896  0.82917731  0.51488219  1
  O  O270  1  0.54214840  0.44817912  0.56905844  1
  O  O271  1  0.45898270  0.78332647  0.57749921  1
  O  O272  1  0.75040815  0.61131016  0.54700136  1
  O  O273  1  0.25007638  0.03059323  0.55646535  1
  O  O274  1  0.75011692  0.97560251  0.48915986  1
  O  O275  1  0.75115549  0.41112342  0.52743702  1
  O  O276  1  0.74995001  0.97949231  0.54128004  1
  O  O277  1  0.25013810  0.09547802  0.50879943  1
  O  O278  1  0.04313456  0.96071534  0.66513270  1
  O  O279  1  0.95696812  0.62583322  0.65677542  1
  O  O280  1  0.95653186  0.01895157  0.60347073  1
  O  O281  1  0.04288444  0.38607440  0.62899259  1
  O  O282  1  0.45769756  0.38586708  0.62900528  1
  O  O283  1  0.54318184  0.01916154  0.60349772  1
  O  O284  1  0.54337964  0.62561335  0.65667331  1
  O  O285  1  0.45697707  0.96079127  0.66513510  1
  O  O286  1  0.75006816  0.79885986  0.63928079  1
  O  O287  1  0.25110984  0.60991775  0.59465931  1
  O  O288  1  0.24995980  0.21688422  0.64855185  1
  O  O289  1  0.75009120  0.19329641  0.58683743  1
  O  O290  1  0.25006426  0.79703060  0.62038847  1
  O  O291  1  0.75100737  0.61123855  0.61343324  1
  O  O292  1  0.75011888  0.14727458  0.63566282  1
  O  O293  1  0.25007827  0.25097426  0.59901364  1
  O  O294  1  0.04269999  0.14432819  0.75425030  1
  O  O295  1  0.95699573  0.80901941  0.74610268  1
  O  O296  1  0.95693325  0.20084864  0.69383930  1
  O  O297  1  0.04285085  0.56958565  0.71771456  1
  O  O298  1  0.45713978  0.56957273  0.71770741  1
  O  O299  1  0.54306955  0.20086565  0.69383489  1
  O  O300  1  0.54292523  0.80901484  0.74610613  1
  O  O301  1  0.45691877  0.14430824  0.75424053  1
  O  O302  1  0.74996467  0.98052143  0.72789117  1
  O  O303  1  0.25022647  0.78952853  0.68367984  1
  O  O304  1  0.24998671  0.39935626  0.73664962  1
  O  O305  1  0.75007358  0.37041595  0.67471163  1
  O  O306  1  0.24998177  0.97977636  0.70828435  1
  O  O307  1  0.74996444  0.79074422  0.70294352  1
  O  O308  1  0.74997639  0.33513530  0.72431164  1
  O  O309  1  0.24999749  0.43604428  0.68712667  1
  O  O310  1  0.04304529  0.32606209  0.84351712  1
  O  O311  1  0.95664774  0.99125143  0.83512331  1
  O  O312  1  0.95732248  0.38404908  0.78253248  1
  O  O313  1  0.04305969  0.75198861  0.80649096  1
  O  O314  1  0.45676152  0.75201939  0.80648886  1
  O  O315  1  0.54272593  0.38401380  0.78252721  1
  O  O316  1  0.54299535  0.99124899  0.83510198  1
  O  O317  1  0.45654575  0.32606001  0.84350449  1
  O  O318  1  0.74986052  0.16282744  0.81661953  1
  O  O319  1  0.24986817  0.97282476  0.77244901  1
  O  O320  1  0.24999247  0.58155263  0.82532356  1
  O  O321  1  0.74996456  0.55422022  0.76363929  1
  O  O322  1  0.24988537  0.16249840  0.79740355  1
  O  O323  1  0.74993773  0.97295732  0.79196078  1
  O  O324  1  0.74995660  0.51714449  0.81313542  1
  O  O325  1  0.24997162  0.61894284  0.77581619  1
  O  O326  1  0.04076416  0.50431592  0.93079537  1
  O  O327  1  0.95812042  0.16897510  0.92271981  1
  O  O328  1  0.95732999  0.56592568  0.87108609  1
  O  O329  1  0.04317542  0.93302573  0.89680846  1
  O  O330  1  0.45659424  0.93298517  0.89679297  1
  O  O331  1  0.54259086  0.56589307  0.87108644  1
  O  O332  1  0.54108050  0.16911384  0.92275900  1
  O  O333  1  0.45886625  0.50453448  0.93083215  1
  O  O334  1  0.74969277  0.34176535  0.90536943  1
  O  O335  1  0.24981415  0.15262436  0.86092816  1
  O  O336  1  0.24985565  0.75870087  0.91333289  1
  O  O337  1  0.74988966  0.73531523  0.85160260  1
  O  O338  1  0.24982184  0.34011332  0.88676724  1
  O  O339  1  0.74943978  0.15411554  0.87983314  1
  O  O340  1  0.74994562  0.70131103  0.90104547  1
  O  O341  1  0.24981281  0.80497489  0.86457925  1
  O  O342  1  0.95546760  0.74036551  0.95709711  1
  O  O343  1  0.04056151  0.12076377  0.98499438  1
  O  O344  1  0.45951148  0.12089371  0.98502087  1
  O  O345  1  0.54436544  0.74044448  0.95710787  1
  O  O346  1  0.24992945  0.34053093  0.95254748  1
  O  O347  1  0.25021731  0.97475828  0.01077907  1
  O  O348  1  0.74997734  0.92194993  0.94401675  1
  O  O349  1  0.24953937  0.53985590  0.97246761  1
  O  O350  1  0.75011725  0.85449834  0.99151055  1
  O  O351  1  0.25018160  0.97133491  0.95861508  1
