# generated using pymatgen
data_Li3PO4
_symmetry_space_group_name_H-M   'P 1'
_cell_length_a   6.15119200
_cell_length_b   11.66978300
_cell_length_c   40.45562648
_cell_angle_alpha   90.00000000
_cell_angle_beta   90.00000000
_cell_angle_gamma   90.00000000
_symmetry_Int_Tables_number   1
_chemical_formula_structural   Li3PO4
_chemical_formula_sum   'Li108 P36 O144'
_cell_volume   2904.02930350
_cell_formula_units_Z   36
loop_
 _symmetry_equiv_pos_site_id
 _symmetry_equiv_pos_as_xyz
  1  'x, y, z'
loop_
 _atom_site_type_symbol
 _atom_site_label
 _atom_site_symmetry_multiplicity
 _atom_site_fract_x
 _atom_site_fract_y
 _atom_site_fract_z
 _atom_site_occupancy
  Li  Li0  1  0.64805397  0.95984323  0.08402178  1
  Li  Li1  1  0.84814218  0.14984522  0.05234331  1
  Li  Li2  1  0.20426546  0.24714273  0.02864785  1
  Li  Li3  1  0.10533052  0.58791594  0.03358171  1
  Li  Li4  1  0.17209474  0.99966121  0.06725479  1
  Li  Li5  1  0.15019753  0.80699238  0.98115313  1
  Li  Li6  1  0.86779687  0.80257686  0.03344004  1
  Li  Li7  1  0.51468496  0.95068613  0.01230554  1
  Li  Li8  1  0.46874820  0.42810702  0.06143948  1
  Li  Li9  1  0.73103390  0.62316035  0.07724388  1
  Li  Li10  1  0.70772794  0.80299726  0.17803637  1
  Li  Li11  1  0.72282146  0.38864656  0.13054275  1
  Li  Li12  1  0.72343780  0.03170840  0.14669295  1
  Li  Li13  1  0.22347539  0.03293321  0.14248508  1
  Li  Li14  1  0.23328041  0.37707285  0.13620257  1
  Li  Li15  1  0.20676768  0.80530993  0.17780305  1
  Li  Li16  1  0.21076258  0.60622549  0.09788827  1
  Li  Li17  1  0.95498338  0.60826588  0.15147893  1
  Li  Li18  1  0.44623025  0.79192833  0.12097378  1
  Li  Li19  1  0.47704420  0.23231991  0.16876972  1
  Li  Li20  1  0.98393270  0.17936084  0.11279709  1
  Li  Li21  1  0.70113296  0.43270925  0.20739132  1
  Li  Li22  1  0.70571399  0.62331435  0.28936043  1
  Li  Li23  1  0.71673358  0.19781684  0.24604704  1
  Li  Li24  1  0.71807735  0.85611003  0.25321772  1
  Li  Li25  1  0.21881791  0.85461419  0.25354371  1
  Li  Li26  1  0.21738124  0.19663271  0.24668915  1
  Li  Li27  1  0.20165835  0.61824147  0.29244656  1
  Li  Li28  1  0.20655458  0.42826611  0.21043871  1
  Li  Li29  1  0.95003096  0.42760872  0.26284162  1
  Li  Li30  1  0.44839413  0.62520936  0.23693280  1
  Li  Li31  1  0.46943295  0.05046024  0.28078269  1
  Li  Li32  1  0.97077992  0.00265343  0.21929207  1
  Li  Li33  1  0.70592137  0.24674337  0.32163803  1
  Li  Li34  1  0.70962829  0.44315391  0.40206491  1
  Li  Li35  1  0.72248859  0.01622565  0.35747270  1
  Li  Li36  1  0.72991255  0.67386229  0.36323302  1
  Li  Li37  1  0.22171245  0.66163423  0.36911658  1
  Li  Li38  1  0.22207577  0.01772389  0.35318666  1
  Li  Li39  1  0.22818677  0.42491817  0.42291203  1
  Li  Li40  1  0.20800746  0.24866711  0.32212947  1
  Li  Li41  1  0.94326428  0.25706623  0.37842393  1
  Li  Li42  1  0.45390707  0.44161730  0.34879752  1
  Li  Li43  1  0.47964318  0.87011871  0.38737249  1
  Li  Li44  1  0.97529376  0.81892381  0.33107919  1
  Li  Li45  1  0.67179247  0.04944938  0.43246026  1
  Li  Li46  1  0.64639259  0.24036013  0.51929058  1
  Li  Li47  1  0.70051731  0.80199107  0.47108759  1
  Li  Li48  1  0.60441904  0.45909627  0.46622990  1
  Li  Li49  1  0.34641560  0.89942529  0.44767748  1
  Li  Li50  1  0.14655919  0.08950084  0.41588540  1
  Li  Li51  1  0.01479553  0.09874353  0.48789810  1
  Li  Li52  1  0.36738371  0.24248989  0.46695969  1
  Li  Li53  1  0.96384270  0.62000276  0.43849856  1
  Li  Li54  1  0.65174328  0.59004553  0.58462651  1
  Li  Li55  1  0.45152605  0.39810381  0.55273940  1
  Li  Li56  1  0.09593433  0.30078460  0.52909128  1
  Li  Li57  1  0.19384281  0.95922795  0.53409789  1
  Li  Li58  1  0.12589983  0.54862010  0.56737752  1
  Li  Li59  1  0.15226663  0.73956843  0.48100365  1
  Li  Li60  1  0.43168960  0.74227884  0.53324372  1
  Li  Li61  1  0.78213237  0.59868818  0.51228631  1
  Li  Li62  1  0.83215234  0.11877300  0.56169680  1
  Li  Li63  1  0.56774440  0.92363651  0.57716728  1
  Li  Li64  1  0.59232437  0.74844020  0.67830624  1
  Li  Li65  1  0.57409603  0.16248461  0.63133820  1
  Li  Li66  1  0.57625761  0.51826088  0.64723830  1
  Li  Li67  1  0.07701908  0.51571608  0.64248548  1
  Li  Li68  1  0.06543197  0.17347363  0.63696319  1
  Li  Li69  1  0.09461174  0.74609073  0.67813556  1
  Li  Li70  1  0.08647703  0.94308136  0.59811641  1
  Li  Li71  1  0.34595267  0.94128656  0.65120056  1
  Li  Li72  1  0.85546065  0.75712330  0.62150958  1
  Li  Li73  1  0.82258978  0.31933300  0.66897112  1
  Li  Li74  1  0.31554515  0.36927896  0.61279134  1
  Li  Li75  1  0.59857310  0.11820042  0.70759164  1
  Li  Li76  1  0.59573376  0.92809813  0.78943738  1
  Li  Li77  1  0.58336904  0.35426667  0.74638349  1
  Li  Li78  1  0.58394300  0.69609513  0.75325806  1
  Li  Li79  1  0.08384728  0.69705874  0.75377092  1
  Li  Li80  1  0.08385065  0.35536007  0.74672705  1
  Li  Li81  1  0.09917612  0.93293182  0.79269134  1
  Li  Li82  1  0.09460517  0.12304587  0.71062979  1
  Li  Li83  1  0.34995094  0.12440680  0.76302189  1
  Li  Li84  1  0.85181751  0.92713234  0.73717579  1
  Li  Li85  1  0.83136609  0.50117180  0.78064376  1
  Li  Li86  1  0.32862787  0.55003965  0.71901201  1
  Li  Li87  1  0.59669102  0.30536919  0.82219293  1
  Li  Li88  1  0.59131414  0.10556888  0.90203061  1
  Li  Li89  1  0.57651483  0.53421663  0.85734602  1
  Li  Li90  1  0.56984960  0.87626758  0.86320560  1
  Li  Li91  1  0.07726729  0.88862891  0.86912362  1
  Li  Li92  1  0.07641978  0.53142250  0.85242654  1
  Li  Li93  1  0.07190527  0.12328595  0.92273760  1
  Li  Li94  1  0.09528374  0.30231018  0.82194551  1
  Li  Li95  1  0.35749313  0.29219805  0.87898627  1
  Li  Li96  1  0.84751798  0.10860556  0.84866450  1
  Li  Li97  1  0.81931006  0.67931202  0.88720618  1
  Li  Li98  1  0.32340578  0.73338701  0.83112360  1
  Li  Li99  1  0.62935932  0.49986468  0.93263037  1
  Li  Li100  1  0.65292170  0.30715872  0.01879974  1
  Li  Li101  1  0.59861111  0.74751791  0.97123290  1
  Li  Li102  1  0.69610396  0.08921113  0.96624238  1
  Li  Li103  1  0.95437531  0.64996739  0.94740207  1
  Li  Li104  1  0.15396460  0.46094412  0.91529970  1
  Li  Li105  1  0.28632017  0.45094928  0.98747429  1
  Li  Li106  1  0.93332556  0.30525093  0.96649422  1
  Li  Li107  1  0.33442763  0.92849002  0.93860578  1
  P  P108  1  0.39365102  0.78279295  0.04521731  1
  P  P109  1  0.03996975  0.03908209  0.99716514  1
  P  P110  1  0.45943115  0.58016057  0.16364270  1
  P  P111  1  0.94689469  0.83361275  0.11150196  1
  P  P112  1  0.95549570  0.39628854  0.07584170  1
  P  P113  1  0.47110972  0.19444936  0.09277802  1
  P  P114  1  0.45499596  0.39756400  0.27457932  1
  P  P115  1  0.95494208  0.65475354  0.22523182  1
  P  P116  1  0.97080911  0.22359827  0.18356253  1
  P  P117  1  0.46758382  0.00856202  0.20574011  1
  P  P118  1  0.44538844  0.21577062  0.38837990  1
  P  P119  1  0.95882641  0.47079115  0.33622903  1
  P  P120  1  0.96726510  0.04341550  0.29411719  1
  P  P121  1  0.46970200  0.82788005  0.31626483  1
  P  P122  1  0.53970563  0.01029547  0.50289255  1
  P  P123  1  0.89197142  0.26577193  0.45501299  1
  P  P124  1  0.96890680  0.85458569  0.40716560  1
  P  P125  1  0.45233422  0.65249184  0.42399839  1
  P  P126  1  0.90618312  0.76553515  0.54524228  1
  P  P127  1  0.25744640  0.51017537  0.49728364  1
  P  P128  1  0.84046834  0.97070089  0.66394800  1
  P  P129  1  0.35235864  0.71558311  0.61181431  1
  P  P130  1  0.34379778  0.15181136  0.57623882  1
  P  P131  1  0.82799543  0.35440916  0.59297240  1
  P  P132  1  0.84547810  0.15445333  0.77474460  1
  P  P133  1  0.34533784  0.89707683  0.72544603  1
  P  P134  1  0.32928711  0.32762519  0.68379556  1
  P  P135  1  0.83306249  0.54300943  0.70587143  1
  P  P136  1  0.85537185  0.33391838  0.88834977  1
  P  P137  1  0.34263160  0.07991857  0.83628351  1
  P  P138  1  0.33397615  0.50853619  0.79410345  1
  P  P139  1  0.83021339  0.72306483  0.81624121  1
  P  P140  1  0.76038716  0.53886541  0.00271730  1
  P  P141  1  0.40795682  0.28337407  0.95462312  1
  P  P142  1  0.33069323  0.69525093  0.90703620  1
  P  P143  1  0.84674851  0.89644561  0.92408470  1
  O  O144  1  0.55911190  0.78741960  0.01657415  1
  O  O145  1  0.82091524  0.97626951  0.00496410  1
  O  O146  1  0.74231763  0.46311045  0.08109283  1
  O  O147  1  0.15289599  0.47733246  0.06800241  1
  O  O148  1  0.10476434  0.09676587  0.03037507  1
  O  O149  1  0.17320219  0.74953765  0.02903057  1
  O  O150  1  0.23498114  0.96053476  0.98667739  1
  O  O151  1  0.40637852  0.90675728  0.05978643  1
  O  O152  1  0.92977654  0.30504188  0.04808733  1
  O  O153  1  0.98836162  0.12411506  0.96925466  1
  O  O154  1  0.46055214  0.25311740  0.05810396  1
  O  O155  1  0.67463294  0.53699613  0.14888426  1
  O  O156  1  0.73417682  0.87372732  0.13024348  1
  O  O157  1  0.76456420  0.29867590  0.17928487  1
  O  O158  1  0.68608766  0.11893046  0.09347708  1
  O  O159  1  0.27204248  0.11456989  0.09891638  1
  O  O160  1  0.18031893  0.29745140  0.17951189  1
  O  O161  1  0.15177074  0.87300574  0.13120431  1
  O  O162  1  0.26044476  0.54154314  0.14221565  1
  O  O163  1  0.94968108  0.70155707  0.10776559  1
  O  O164  1  0.45648551  0.71385213  0.16513168  1
  O  O165  1  0.48227516  0.28402458  0.12092958  1
  O  O166  1  0.97068607  0.12432754  0.15742700  1
  O  O167  1  0.44286748  0.69975349  0.07479537  1
  O  O168  1  0.93129750  0.89349638  0.07721095  1
  O  O169  1  0.99986296  0.33608812  0.10946338  1
  O  O170  1  0.46707509  0.06594038  0.17082596  1
  O  O171  1  0.65824499  0.35881588  0.25443319  1
  O  O172  1  0.74532398  0.69369870  0.24386844  1
  O  O173  1  0.76094514  0.12019349  0.29084059  1
  O  O174  1  0.67711605  0.93364218  0.20848023  1
  O  O175  1  0.26137740  0.93159306  0.20887584  1
  O  O176  1  0.17658228  0.11860132  0.29160950  1
  O  O177  1  0.15806593  0.69342500  0.24543525  1
  O  O178  1  0.24552442  0.35869139  0.25589836  1
  O  O179  1  0.95359910  0.52226280  0.22137334  1
  O  O180  1  0.45361389  0.53000319  0.27836501  1
  O  O181  1  0.46704141  0.10178783  0.23312764  1
  O  O182  1  0.96862457  0.95051252  0.26665152  1
  O  O183  1  0.43851176  0.52783524  0.19901588  1
  O  O184  1  0.96004172  0.71254828  0.19033320  1
  O  O185  1  0.96952058  0.16850158  0.21872930  1
  O  O186  1  0.46951882  0.88414248  0.28125799  1
  O  O187  1  0.65026439  0.17687291  0.36858593  1
  O  O188  1  0.76005174  0.50903848  0.35775420  1
  O  O189  1  0.77007098  0.93461354  0.40099511  1
  O  O190  1  0.67904012  0.75381029  0.32023237  1
  O  O191  1  0.26344167  0.75278506  0.32038706  1
  O  O192  1  0.18385635  0.93021723  0.40663481  1
  O  O193  1  0.17450549  0.51354797  0.35090033  1
  O  O194  1  0.23251407  0.17568761  0.36966950  1
  O  O195  1  0.95574829  0.33706842  0.33467542  1
  O  O196  1  0.44739208  0.34787883  0.39212476  1
  O  O197  1  0.46935018  0.92608356  0.34271857  1
  O  O198  1  0.98059949  0.76579117  0.37880403  1
  O  O199  1  0.45959763  0.33963427  0.30946712  1
  O  O200  1  0.93785613  0.52356085  0.30090587  1
  O  O201  1  0.96553147  0.98528279  0.32893875  1
  O  O202  1  0.49720446  0.71276127  0.39037599  1
  O  O203  1  0.60264597  0.95280902  0.46956777  1
  O  O204  1  0.67109165  0.29775313  0.47127317  1
  O  O205  1  0.64961039  0.57145486  0.43195058  1
  O  O206  1  0.23908895  0.58572318  0.41887183  1
  O  O207  1  0.05779430  0.26196536  0.48358722  1
  O  O208  1  0.32346064  0.07583989  0.49516613  1
  O  O209  1  0.90633080  0.14177835  0.44046138  1
  O  O210  1  0.73655680  0.08714756  0.51364723  1
  O  O211  1  0.42698835  0.74423054  0.45164528  1
  O  O212  1  0.43054596  0.15560376  0.42262990  1
  O  O213  1  0.93939414  0.34916407  0.42544267  1
  O  O214  1  0.95744766  0.79519549  0.44170922  1
  O  O215  1  0.48505666  0.92488919  0.53056179  1
  O  O216  1  0.74088316  0.76187152  0.51659362  1
  O  O217  1  0.47276296  0.57653272  0.50507064  1
  O  O218  1  0.55650371  0.08460014  0.58132514  1
  O  O219  1  0.14612831  0.07116620  0.56822038  1
  O  O220  1  0.19540887  0.45182562  0.53052429  1
  O  O221  1  0.12735172  0.79767550  0.52914604  1
  O  O222  1  0.05999414  0.58680632  0.48659900  1
  O  O223  1  0.89135727  0.64152976  0.55979239  1
  O  O224  1  0.36958492  0.24356584  0.54862907  1
  O  O225  1  0.31284712  0.42539125  0.46949679  1
  O  O226  1  0.83887819  0.29501532  0.55842580  1
  O  O227  1  0.62467933  0.01377542  0.64939370  1
  O  O228  1  0.56562407  0.67605387  0.63053722  1
  O  O229  1  0.53520049  0.25231261  0.67957870  1
  O  O230  1  0.61342455  0.43018538  0.59356707  1
  O  O231  1  0.02743213  0.43413862  0.59908664  1
  O  O232  1  0.11942875  0.25396969  0.67990174  1
  O  O233  1  0.14787752  0.67643625  0.63164655  1
  O  O234  1  0.03896875  0.00898797  0.64239899  1
  O  O235  1  0.34929900  0.84766316  0.60800621  1
  O  O236  1  0.84377807  0.83697517  0.66544448  1
  O  O237  1  0.81636498  0.26554102  0.62130524  1
  O  O238  1  0.32961469  0.42590700  0.65737869  1
  O  O239  1  0.85775850  0.84882635  0.57482582  1
  O  O240  1  0.36723952  0.65519838  0.57761663  1
  O  O241  1  0.29927644  0.21210873  0.60987753  1
  O  O242  1  0.83409343  0.48522069  0.67100652  1
  O  O243  1  0.64197832  0.19305411  0.75463387  1
  O  O244  1  0.55549413  0.85814452  0.74395363  1
  O  O245  1  0.54010465  0.43152945  0.79104135  1
  O  O246  1  0.62342111  0.61782470  0.70846469  1
  O  O247  1  0.03902740  0.62001389  0.70909451  1
  O  O248  1  0.12448459  0.43340492  0.79156416  1
  O  O249  1  0.14256620  0.85830735  0.74570697  1
  O  O250  1  0.05494964  0.19338145  0.75604458  1
  O  O251  1  0.34651517  0.02951811  0.72165248  1
  O  O252  1  0.84727779  0.02197130  0.77857677  1
  O  O253  1  0.83324243  0.44981932  0.73325288  1
  O  O254  1  0.33366200  0.60129320  0.76661186  1
  O  O255  1  0.86217167  0.02342445  0.69926641  1
  O  O256  1  0.33991373  0.83917013  0.69056070  1
  O  O257  1  0.33138768  0.38383259  0.71880201  1
  O  O258  1  0.83190696  0.66740398  0.78116542  1
  O  O259  1  0.65072565  0.37349169  0.86861800  1
  O  O260  1  0.54165647  0.04106779  0.85765728  1
  O  O261  1  0.52938468  0.61509182  0.90093892  1
  O  O262  1  0.62075172  0.79702055  0.82016518  1
  O  O263  1  0.03617802  0.79832479  0.82053856  1
  O  O264  1  0.11547488  0.61990321  0.90639180  1
  O  O265  1  0.12709757  0.03698313  0.85100424  1
  O  O266  1  0.06816304  0.37390717  0.86958120  1
  O  O267  1  0.34632353  0.21361953  0.83482641  1
  O  O268  1  0.85234898  0.20186814  0.89210102  1
  O  O269  1  0.83012085  0.62429079  0.84250213  1
  O  O270  1  0.31954756  0.78465805  0.87883756  1
  O  O271  1  0.84162221  0.21224760  0.80964038  1
  O  O272  1  0.36273722  0.02740095  0.80092502  1
  O  O273  1  0.33432689  0.56655887  0.82892242  1
  O  O274  1  0.80189912  0.83627362  0.89044791  1
  O  O275  1  0.69679422  0.59682819  0.96950189  1
  O  O276  1  0.62868196  0.25085666  0.97083606  1
  O  O277  1  0.64941024  0.97743041  0.93199593  1
  O  O278  1  0.05985009  0.96322912  0.91881918  1
  O  O279  1  0.24240504  0.28785329  0.98324400  1
  O  O280  1  0.97859562  0.47512234  0.99494127  1
  O  O281  1  0.39426308  0.40720553  0.93993741  1
  O  O282  1  0.56495491  0.46077070  0.01326517  1
  O  O283  1  0.87262245  0.80503072  0.95180257  1
  O  O284  1  0.87088604  0.39403459  0.92259584  1
  O  O285  1  0.35989945  0.19983873  0.92511066  1
  O  O286  1  0.34181550  0.75390048  0.94170598  1
  O  O287  1  0.81338649  0.62373366  0.03062595  1
