# generated using pymatgen
data_Li3PO4
_symmetry_space_group_name_H-M   'P 1'
_cell_length_a   6.15119200
_cell_length_b   11.66978300
_cell_length_c   36.64270450
_cell_angle_alpha   90.00000000
_cell_angle_beta   90.00000000
_cell_angle_gamma   90.00000000
_symmetry_Int_Tables_number   1
_chemical_formula_structural   Li3PO4
_chemical_formula_sum   'Li96 P32 O128'
_cell_volume   2630.32603595
_cell_formula_units_Z   32
loop_
 _symmetry_equiv_pos_site_id
 _symmetry_equiv_pos_as_xyz
  1  'x, y, z'
loop_
 _atom_site_type_symbol
 _atom_site_label
 _atom_site_symmetry_multiplicity
 _atom_site_fract_x
 _atom_site_fract_y
 _atom_site_fract_z
 _atom_site_occupancy
  Li  Li0  1  0.49174131  0.97859601  0.04960735  1
  Li  Li1  1  0.03196014  0.20991750  0.01064147  1
  Li  Li2  1  0.00966583  0.56309671  0.99726651  1
  Li  Li3  1  0.02108291  0.97276242  0.04683386  1
  Li  Li4  1  0.76548973  0.73886139  0.03635944  1
  Li  Li5  1  0.26541854  0.40484367  0.04504204  1
  Li  Li6  1  0.52070601  0.58794838  0.08342729  1
  Li  Li7  1  0.51291448  0.79198552  0.17213885  1
  Li  Li8  1  0.51673645  0.36205759  0.12202786  1
  Li  Li9  1  0.50576817  0.02699236  0.13081647  1
  Li  Li10  1  0.01390652  0.02698442  0.12993816  1
  Li  Li11  1  0.00058938  0.36291027  0.12178185  1
  Li  Li12  1  0.01237298  0.79220622  0.17203178  1
  Li  Li13  1  0.01156528  0.59084769  0.08310135  1
  Li  Li14  1  0.76263310  0.59824653  0.14294894  1
  Li  Li15  1  0.26343608  0.79884779  0.11179731  1
  Li  Li16  1  0.26074478  0.22046975  0.16107368  1
  Li  Li17  1  0.75651546  0.17135171  0.09050572  1
  Li  Li18  1  0.50965682  0.41395804  0.20492262  1
  Li  Li19  1  0.51479654  0.60823453  0.29370249  1
  Li  Li20  1  0.51401575  0.18064796  0.24530430  1
  Li  Li21  1  0.50856310  0.84098230  0.25457148  1
  Li  Li22  1  0.01391168  0.84172606  0.25464811  1
  Li  Li23  1  0.00883784  0.18009981  0.24567976  1
  Li  Li24  1  0.01165855  0.60862182  0.29399796  1
  Li  Li25  1  0.01345151  0.41399593  0.20478520  1
  Li  Li26  1  0.76293329  0.41126575  0.26416621  1
  Li  Li27  1  0.26189003  0.60913816  0.23385179  1
  Li  Li28  1  0.26312108  0.03588452  0.28378910  1
  Li  Li29  1  0.76047259  0.98604565  0.21564781  1
  Li  Li30  1  0.50901318  0.22913720  0.32828831  1
  Li  Li31  1  0.52402308  0.42504139  0.41415906  1
  Li  Li32  1  0.51518977  0.99624231  0.37168494  1
  Li  Li33  1  0.51434264  0.65930613  0.37477826  1
  Li  Li34  1  0.01098349  0.65818503  0.37597681  1
  Li  Li35  1  0.01348605  0.99415855  0.36788407  1
  Li  Li36  1  0.01066468  0.42628065  0.41611869  1
  Li  Li37  1  0.01415945  0.22890160  0.32861018  1
  Li  Li38  1  0.75898712  0.23173187  0.38953653  1
  Li  Li39  1  0.26158046  0.42900806  0.35605972  1
  Li  Li40  1  0.26221870  0.85148854  0.41099386  1
  Li  Li41  1  0.76254916  0.80587400  0.33903721  1
  Li  Li42  1  0.47907528  0.04616099  0.46386433  1
  Li  Li43  1  0.51387662  0.76024566  0.49724406  1
  Li  Li44  1  0.54108933  0.47855334  0.48723139  1
  Li  Li45  1  0.97961172  0.06957977  0.43668726  1
  Li  Li46  1  0.26500584  0.27132057  0.47380651  1
  Li  Li47  1  0.77078322  0.63267586  0.44593915  1
  Li  Li48  1  0.53151103  0.34729173  0.55000220  1
  Li  Li49  1  0.99053832  0.11573356  0.51049858  1
  Li  Li50  1  0.01637148  0.76280012  0.49747647  1
  Li  Li51  1  0.00147641  0.35318682  0.54729407  1
  Li  Li52  1  0.25747666  0.58495332  0.53640032  1
  Li  Li53  1  0.75822662  0.92150438  0.54464718  1
  Li  Li54  1  0.50441882  0.73840563  0.58340367  1
  Li  Li55  1  0.51301281  0.53334585  0.67215574  1
  Li  Li56  1  0.50770534  0.96409370  0.62215388  1
  Li  Li57  1  0.51730760  0.29840439  0.63114086  1
  Li  Li58  1  0.01047202  0.29790285  0.63027243  1
  Li  Li59  1  0.02121247  0.96263366  0.62187329  1
  Li  Li60  1  0.01387006  0.53320005  0.67211070  1
  Li  Li61  1  0.01336236  0.73581058  0.58293871  1
  Li  Li62  1  0.26189873  0.72795609  0.64294642  1
  Li  Li63  1  0.76311839  0.52580388  0.61163561  1
  Li  Li64  1  0.76455541  0.10516507  0.66115137  1
  Li  Li65  1  0.26653853  0.15404680  0.59076819  1
  Li  Li66  1  0.51453016  0.91070196  0.70510424  1
  Li  Li67  1  0.51186540  0.71651998  0.79366613  1
  Li  Li68  1  0.51206136  0.14310767  0.74530861  1
  Li  Li69  1  0.51583697  0.48304079  0.75428981  1
  Li  Li70  1  0.01215008  0.48153446  0.75448533  1
  Li  Li71  1  0.01589342  0.14354978  0.74553028  1
  Li  Li72  1  0.01578107  0.71470960  0.79407933  1
  Li  Li73  1  0.01110777  0.91121203  0.70504691  1
  Li  Li74  1  0.26322551  0.91095586  0.76434040  1
  Li  Li75  1  0.76399036  0.71470418  0.73344760  1
  Li  Li76  1  0.76271818  0.28921943  0.78400574  1
  Li  Li77  1  0.26412493  0.33770110  0.71569883  1
  Li  Li78  1  0.51497175  0.09419349  0.82780475  1
  Li  Li79  1  0.50515601  0.90073116  0.91416302  1
  Li  Li80  1  0.50925463  0.32835695  0.87119269  1
  Li  Li81  1  0.51115283  0.66600741  0.87470241  1
  Li  Li82  1  0.01422382  0.66504087  0.87567921  1
  Li  Li83  1  0.01238399  0.33196560  0.86792986  1
  Li  Li84  1  0.01584514  0.89789707  0.91605862  1
  Li  Li85  1  0.00991545  0.09557739  0.82838776  1
  Li  Li86  1  0.26594632  0.09332201  0.88911472  1
  Li  Li87  1  0.76377261  0.89482660  0.85589464  1
  Li  Li88  1  0.76273053  0.47388321  0.91108963  1
  Li  Li89  1  0.26453106  0.51818836  0.83871168  1
  Li  Li90  1  0.54485413  0.27948822  0.96350823  1
  Li  Li91  1  0.51107118  0.56464225  0.99730529  1
  Li  Li92  1  0.48613319  0.84784622  0.98722483  1
  Li  Li93  1  0.04578955  0.25606977  0.93686793  1
  Li  Li94  1  0.76168560  0.05237252  0.97309053  1
  Li  Li95  1  0.25743030  0.69298710  0.94596993  1
  P  P96  1  0.25754919  0.74486726  0.04137245  1
  P  P97  1  0.76401436  0.39242570  0.04643306  1
  P  P98  1  0.26216626  0.56475600  0.15384974  1
  P  P99  1  0.76091794  0.82854065  0.10081767  1
  P  P100  1  0.76072266  0.21038638  0.17530313  1
  P  P101  1  0.25780943  0.18300039  0.07851061  1
  P  P102  1  0.26181719  0.38161963  0.27658337  1
  P  P103  1  0.76231579  0.63988369  0.22308655  1
  P  P104  1  0.76098480  0.02699030  0.29918879  1
  P  P105  1  0.26016557  0.99547966  0.20162906  1
  P  P106  1  0.26491824  0.19920541  0.40101314  1
  P  P107  1  0.76348818  0.45452490  0.34463815  1
  P  P108  1  0.75799909  0.84751990  0.42506732  1
  P  P109  1  0.26356984  0.81304131  0.32465989  1
  P  P110  1  0.76232487  0.26857396  0.47092751  1
  P  P111  1  0.26091174  0.63263712  0.44054314  1
  P  P112  1  0.76617140  0.58099652  0.54163764  1
  P  P113  1  0.26000793  0.93362673  0.54644295  1
  P  P114  1  0.76246934  0.76067223  0.65388145  1
  P  P115  1  0.26383308  0.49703535  0.60097158  1
  P  P116  1  0.26371745  0.11452531  0.67549474  1
  P  P117  1  0.76534208  0.14288599  0.57863628  1
  P  P118  1  0.76390081  0.94226417  0.77660014  1
  P  P119  1  0.26319782  0.68470230  0.72306609  1
  P  P120  1  0.26422761  0.29712526  0.79901303  1
  P  P121  1  0.76440767  0.32926098  0.70166066  1
  P  P122  1  0.76105273  0.12622763  0.90082074  1
  P  P123  1  0.26171873  0.86997354  0.84466733  1
  P  P124  1  0.26723428  0.47764137  0.92492806  1
  P  P125  1  0.76174604  0.51148690  0.82446857  1
  P  P126  1  0.26315346  0.05710528  0.97073320  1
  P  P127  1  0.76482111  0.69214061  0.94052434  1
  O  O128  1  0.46562819  0.71929076  0.01810133  1
  O  O129  1  0.55681880  0.47111944  0.04273303  1
  O  O130  1  0.97185474  0.47099365  0.04439835  1
  O  O131  1  0.05250675  0.70987965  0.02027881  1
  O  O132  1  0.25836851  0.87291942  0.05168783  1
  O  O133  1  0.77112273  0.30197520  0.01562851  1
  O  O134  1  0.75733483  0.88994357  0.06288283  1
  O  O135  1  0.25666766  0.24664785  0.04183121  1
  O  O136  1  0.47121337  0.52508833  0.13295251  1
  O  O137  1  0.55620461  0.86202065  0.12321958  1
  O  O138  1  0.55391359  0.28675516  0.17151911  1
  O  O139  1  0.46334662  0.10557115  0.08259319  1
  O  O140  1  0.05062002  0.10531269  0.08129494  1
  O  O141  1  0.96603756  0.28761794  0.17139990  1
  O  O142  1  0.96725171  0.86222394  0.12275796  1
  O  O143  1  0.05359691  0.52574331  0.13277268  1
  O  O144  1  0.76258956  0.69563877  0.09328651  1
  O  O145  1  0.26249856  0.69676636  0.15909979  1
  O  O146  1  0.25769522  0.27388908  0.10988366  1
  O  O147  1  0.76070784  0.11741922  0.14502486  1
  O  O148  1  0.27014261  0.67344840  0.07710622  1
  O  O149  1  0.76276219  0.69846969  0.18484735  1
  O  O150  1  0.75796647  0.33828794  0.08580621  1
  O  O151  1  0.25933286  0.05208363  0.16310132  1
  O  O152  1  0.46902709  0.34341471  0.25533986  1
  O  O153  1  0.55487206  0.67797842  0.24438357  1
  O  O154  1  0.55541256  0.10373664  0.29468618  1
  O  O155  1  0.46707680  0.91923935  0.20589118  1
  O  O156  1  0.05380961  0.91908410  0.20606569  1
  O  O157  1  0.96928212  0.10252227  0.29532845  1
  O  O158  1  0.96895498  0.67812452  0.24458206  1
  O  O159  1  0.05507086  0.34325392  0.25523743  1
  O  O160  1  0.76227646  0.50743535  0.21849225  1
  O  O161  1  0.26210003  0.51411550  0.28123833  1
  O  O162  1  0.26092004  0.09009851  0.23156681  1
  O  O163  1  0.76118076  0.93192924  0.26953830  1
  O  O164  1  0.26167339  0.50612495  0.19221066  1
  O  O165  1  0.76347661  0.51124024  0.30622074  1
  O  O166  1  0.76150684  0.15284973  0.21383012  1
  O  O167  1  0.26147751  0.87001865  0.28612599  1
  O  O168  1  0.46703311  0.16105574  0.37885324  1
  O  O169  1  0.55638622  0.49406287  0.36566793  1
  O  O170  1  0.55121236  0.92343747  0.42142332  1
  O  O171  1  0.47200060  0.73689948  0.32768242  1
  O  O172  1  0.05457703  0.73745083  0.32842652  1
  O  O173  1  0.96431204  0.92194317  0.41775821  1
  O  O174  1  0.96970833  0.49372558  0.36587203  1
  O  O175  1  0.05131281  0.15836437  0.38153037  1
  O  O176  1  0.76286701  0.32142953  0.34182232  1
  O  O177  1  0.26525734  0.33190662  0.40517533  1
  O  O178  1  0.26617357  0.90672108  0.35477316  1
  O  O179  1  0.75641656  0.74717211  0.39634902  1
  O  O180  1  0.26124500  0.32324994  0.31506262  1
  O  O181  1  0.77199619  0.33338003  0.43333490  1
  O  O182  1  0.75978808  0.97151445  0.33805821  1
  O  O183  1  0.26712209  0.68911346  0.40199876  1
  O  O184  1  0.55490961  0.31439420  0.49122436  1
  O  O185  1  0.46952318  0.55501069  0.44416475  1
  O  O186  1  0.05227884  0.55978860  0.44315724  1
  O  O187  1  0.97343456  0.28802449  0.49392619  1
  O  O188  1  0.74966086  0.13759269  0.46334311  1
  O  O189  1  0.26603151  0.72987584  0.46898867  1
  O  O190  1  0.26242858  0.14408865  0.43983692  1
  O  O191  1  0.76656248  0.79276138  0.46389640  1
  O  O192  1  0.55756498  0.60617753  0.51847735  1
  O  O193  1  0.46709493  0.85493781  0.54264860  1
  O  O194  1  0.05213043  0.85505267  0.54429839  1
  O  O195  1  0.97064126  0.61539811  0.52026118  1
  O  O196  1  0.76523371  0.45307661  0.55220271  1
  O  O197  1  0.25274104  0.02439910  0.51570872  1
  O  O198  1  0.26608222  0.43534341  0.56306546  1
  O  O199  1  0.76600628  0.07957135  0.54189221  1
  O  O200  1  0.55339901  0.80038830  0.63299604  1
  O  O201  1  0.46910531  0.46350375  0.62321852  1
  O  O202  1  0.47039983  0.03819145  0.67159789  1
  O  O203  1  0.55984720  0.22023931  0.58283264  1
  O  O204  1  0.97280042  0.22033645  0.58149698  1
  O  O205  1  0.05789965  0.03765650  0.67156870  1
  O  O206  1  0.05800485  0.46300979  0.62300818  1
  O  O207  1  0.97084972  0.79992684  0.63278784  1
  O  O208  1  0.26175424  0.62982088  0.59332304  1
  O  O209  1  0.76293191  0.62871414  0.65922786  1
  O  O210  1  0.76583046  0.05180508  0.60995293  1
  O  O211  1  0.26337941  0.20791505  0.64534402  1
  O  O212  1  0.75493768  0.65286405  0.57725870  1
  O  O213  1  0.26301485  0.62697190  0.68470760  1
  O  O214  1  0.26581943  0.98729675  0.58588360  1
  O  O215  1  0.76473792  0.27272759  0.66312849  1
  O  O216  1  0.55637396  0.98042121  0.75541857  1
  O  O217  1  0.47089881  0.64651402  0.74427420  1
  O  O218  1  0.47003820  0.22057575  0.79459522  1
  O  O219  1  0.55740208  0.40540508  0.70588434  1
  O  O220  1  0.97103361  0.40552284  0.70598958  1
  O  O221  1  0.05591273  0.22174553  0.79514173  1
  O  O222  1  0.05671621  0.64575029  0.74446447  1
  O  O223  1  0.97060610  0.98092850  0.75532427  1
  O  O224  1  0.26247257  0.81720962  0.71869957  1
  O  O225  1  0.76439291  0.80978642  0.78120052  1
  O  O226  1  0.76414557  0.23459980  0.73157937  1
  O  O227  1  0.26397711  0.39212934  0.76936562  1
  O  O228  1  0.76303902  0.81929854  0.69225222  1
  O  O229  1  0.26285503  0.81244088  0.80635444  1
  O  O230  1  0.26365780  0.17152276  0.71408005  1
  O  O231  1  0.76322931  0.45472701  0.78591297  1
  O  O232  1  0.55849495  0.16327066  0.87857828  1
  O  O233  1  0.46914342  0.83133064  0.86577015  1
  O  O234  1  0.47341699  0.40129498  0.92123649  1
  O  O235  1  0.55405569  0.58811771  0.82758109  1
  O  O236  1  0.97153289  0.58641150  0.82827444  1
  O  O237  1  0.06031241  0.40356953  0.91772928  1
  O  O238  1  0.05560403  0.83042099  0.86582810  1
  O  O239  1  0.97411192  0.16711849  0.88122679  1
  O  O240  1  0.26123169  0.00294034  0.84155295  1
  O  O241  1  0.76227514  0.99349708  0.90531559  1
  O  O242  1  0.75860115  0.41769911  0.85452991  1
  O  O243  1  0.26920107  0.57769450  0.89612604  1
  O  O244  1  0.76385628  0.00057165  0.81507337  1
  O  O245  1  0.25399882  0.99207940  0.93316671  1
  O  O246  1  0.26535086  0.35292257  0.83783794  1
  O  O247  1  0.75801140  0.63589260  0.90193154  1
  O  O248  1  0.47071493  0.01142304  0.99106535  1
  O  O249  1  0.55706250  0.77036643  0.94416374  1
  O  O250  1  0.97386238  0.76459723  0.94319963  1
  O  O251  1  0.05175685  0.03756667  0.99367572  1
  O  O252  1  0.27578697  0.18801663  0.96319208  1
  O  O253  1  0.75870344  0.59464430  0.96888295  1
  O  O254  1  0.76304138  0.18166855  0.93958838  1
  O  O255  1  0.25929875  0.53261634  0.96373116  1
