# generated using pymatgen
data_Li3PO4
_symmetry_space_group_name_H-M   'P 1'
_cell_length_a   6.15119200
_cell_length_b   11.66978300
_cell_length_c   45.84797912
_cell_angle_alpha   90.00000000
_cell_angle_beta   90.00000000
_cell_angle_gamma   90.00000000
_symmetry_Int_Tables_number   1
_chemical_formula_structural   Li3PO4
_chemical_formula_sum   'Li120 P40 O160'
_cell_volume   3291.10896199
_cell_formula_units_Z   40
loop_
 _symmetry_equiv_pos_site_id
 _symmetry_equiv_pos_as_xyz
  1  'x, y, z'
loop_
 _atom_site_type_symbol
 _atom_site_label
 _atom_site_symmetry_multiplicity
 _atom_site_fract_x
 _atom_site_fract_y
 _atom_site_fract_z
 _atom_site_occupancy
  Li  Li0  1  0.54200280  0.14716774  0.98593075  1
  Li  Li1  1  0.46523188  0.47042503  0.06680738  1
  Li  Li2  1  0.50139687  0.14193334  0.05625866  1
  Li  Li3  1  0.99889498  0.14190321  0.05625703  1
  Li  Li4  1  0.03378540  0.47005030  0.06688354  1
  Li  Li5  1  0.95838419  0.14699716  0.98590526  1
  Li  Li6  1  0.74978659  0.71192387  0.05341464  1
  Li  Li7  1  0.25002183  0.92469026  0.03864451  1
  Li  Li8  1  0.75141308  0.30031245  0.01785420  1
  Li  Li9  1  0.48883377  0.51087204  0.12104354  1
  Li  Li10  1  0.51131592  0.89081488  0.08429954  1
  Li  Li11  1  0.50054507  0.26831847  0.15033990  1
  Li  Li12  1  0.49823109  0.92830899  0.15437907  1
  Li  Li13  1  0.00190336  0.92829750  0.15437226  1
  Li  Li14  1  0.99950370  0.26834198  0.15033314  1
  Li  Li15  1  0.98871716  0.89082586  0.08429841  1
  Li  Li16  1  0.01130588  0.51085213  0.12106823  1
  Li  Li17  1  0.75009714  0.49856678  0.16596470  1
  Li  Li18  1  0.25028139  0.73304859  0.12446525  1
  Li  Li19  1  0.25019332  0.30279626  0.09167404  1
  Li  Li20  1  0.75003070  0.06927879  0.12500685  1
  Li  Li21  1  0.49984708  0.31627551  0.21515832  1
  Li  Li22  1  0.50036409  0.69635205  0.18476958  1
  Li  Li23  1  0.50081005  0.08259597  0.24652684  1
  Li  Li24  1  0.49774222  0.74305742  0.25220882  1
  Li  Li25  1  0.00242017  0.74309869  0.25222806  1
  Li  Li26  1  0.99933369  0.08257865  0.24652703  1
  Li  Li27  1  0.00075917  0.69635645  0.18473771  1
  Li  Li28  1  0.00175236  0.31601140  0.21522566  1
  Li  Li29  1  0.75085964  0.31470616  0.26278906  1
  Li  Li30  1  0.25012242  0.51257381  0.23829034  1
  Li  Li31  1  0.25032481  0.11901407  0.17915280  1
  Li  Li32  1  0.75036788  0.88875743  0.22217622  1
  Li  Li33  1  0.49893075  0.13151061  0.31291006  1
  Li  Li34  1  0.50258114  0.51037081  0.28553491  1
  Li  Li35  1  0.50216266  0.89870563  0.34435517  1
  Li  Li36  1  0.49890535  0.56005814  0.35114960  1
  Li  Li37  1  0.00111678  0.56007427  0.35115002  1
  Li  Li38  1  0.99791576  0.89879660  0.34434922  1
  Li  Li39  1  0.99807702  0.51016348  0.28569485  1
  Li  Li40  1  0.00117823  0.13155076  0.31290019  1
  Li  Li41  1  0.75001354  0.13141804  0.36154029  1
  Li  Li42  1  0.25003870  0.32704953  0.33598399  1
  Li  Li43  1  0.25003689  0.93625068  0.27694892  1
  Li  Li44  1  0.75005324  0.70449528  0.32063323  1
  Li  Li45  1  0.49728496  0.94988809  0.41122875  1
  Li  Li46  1  0.50310598  0.32651248  0.38396078  1
  Li  Li47  1  0.49766914  0.71408929  0.44286963  1
  Li  Li48  1  0.51633349  0.38288549  0.44863577  1
  Li  Li49  1  0.98279080  0.38264798  0.44880440  1
  Li  Li50  1  0.00284767  0.71409012  0.44288032  1
  Li  Li51  1  0.99701989  0.32679999  0.38407697  1
  Li  Li52  1  0.00082559  0.95012107  0.41138827  1
  Li  Li53  1  0.74857513  0.92929088  0.45919118  1
  Li  Li54  1  0.24859771  0.14318643  0.43512878  1
  Li  Li55  1  0.25013614  0.75339284  0.37544027  1
  Li  Li56  1  0.75008066  0.52739411  0.41774825  1
  Li  Li57  1  0.52360485  0.77764580  0.50665337  1
  Li  Li58  1  0.97424501  0.77723126  0.50673232  1
  Li  Li59  1  0.25001156  0.58936505  0.48766960  1
  Li  Li60  1  0.45734053  0.17720550  0.48575816  1
  Li  Li61  1  0.53055590  0.85387750  0.56655051  1
  Li  Li62  1  0.49960557  0.18240724  0.55547205  1
  Li  Li63  1  0.00023627  0.18238492  0.55549126  1
  Li  Li64  1  0.96327486  0.85364904  0.56675667  1
  Li  Li65  1  0.04139777  0.17709189  0.48583984  1
  Li  Li66  1  0.24847186  0.61363617  0.55328784  1
  Li  Li67  1  0.74948476  0.39751992  0.53860732  1
  Li  Li68  1  0.24988173  0.02317976  0.51833754  1
  Li  Li69  1  0.51088572  0.81394814  0.62085068  1
  Li  Li70  1  0.48864428  0.43437382  0.58401986  1
  Li  Li71  1  0.49871053  0.05725323  0.65010426  1
  Li  Li72  1  0.50167115  0.39736894  0.65415491  1
  Li  Li73  1  0.99906361  0.39712954  0.65418073  1
  Li  Li74  1  0.00115555  0.05728762  0.65011244  1
  Li  Li75  1  0.01087487  0.43437214  0.58406976  1
  Li  Li76  1  0.98900230  0.81400328  0.62085446  1
  Li  Li77  1  0.25005624  0.82809892  0.66592510  1
  Li  Li78  1  0.74994359  0.59007705  0.62437657  1
  Li  Li79  1  0.74935235  0.02116407  0.59112677  1
  Li  Li80  1  0.25002386  0.25485085  0.62476227  1
  Li  Li81  1  0.50097954  0.01109543  0.71513825  1
  Li  Li82  1  0.50099910  0.62906311  0.68503612  1
  Li  Li83  1  0.49903571  0.24501855  0.74644168  1
  Li  Li84  1  0.50219570  0.58403346  0.75222349  1
  Li  Li85  1  0.99786007  0.58401571  0.75220995  1
  Li  Li86  1  0.00107227  0.24501010  0.74644346  1
  Li  Li87  1  0.99958643  0.62888059  0.68476844  1
  Li  Li88  1  0.99840119  0.01117652  0.71507763  1
  Li  Li89  1  0.24997248  0.01126371  0.76225367  1
  Li  Li90  1  0.74987123  0.81212436  0.73794850  1
  Li  Li91  1  0.74999841  0.20499754  0.67903917  1
  Li  Li92  1  0.25005861  0.43838895  0.72203497  1
  Li  Li93  1  0.50153081  0.19523630  0.81299843  1
  Li  Li94  1  0.49735230  0.81677284  0.78541256  1
  Li  Li95  1  0.49947012  0.42550888  0.84422931  1
  Li  Li96  1  0.50108104  0.76680374  0.85087779  1
  Li  Li97  1  0.99926496  0.76682070  0.85087188  1
  Li  Li98  1  0.00078460  0.42553659  0.84419908  1
  Li  Li99  1  0.00229138  0.81677282  0.78532562  1
  Li  Li100  1  0.99853801  0.19524151  0.81299796  1
  Li  Li101  1  0.25007107  0.19297503  0.86188412  1
  Li  Li102  1  0.74998545  0.99756412  0.83570461  1
  Li  Li103  1  0.75005573  0.39010872  0.77671200  1
  Li  Li104  1  0.25011864  0.62065781  0.82051522  1
  Li  Li105  1  0.50143405  0.37481105  0.91092672  1
  Li  Li106  1  0.49696574  0.99804567  0.88381282  1
  Li  Li107  1  0.50380784  0.60984739  0.94235871  1
  Li  Li108  1  0.48188260  0.94038460  0.94856262  1
  Li  Li109  1  0.01864340  0.94014402  0.94834946  1
  Li  Li110  1  0.99745943  0.60958664  0.94233236  1
  Li  Li111  1  0.00337768  0.99799094  0.88371502  1
  Li  Li112  1  0.99957861  0.37479417  0.91085707  1
  Li  Li113  1  0.25008648  0.39301259  0.95947762  1
  Li  Li114  1  0.75011578  0.18030387  0.93480788  1
  Li  Li115  1  0.75011148  0.57335852  0.87496790  1
  Li  Li116  1  0.25047076  0.79545815  0.91730571  1
  Li  Li117  1  0.47493885  0.54372196  0.00601993  1
  Li  Li118  1  0.02597248  0.54596187  0.00699849  1
  Li  Li119  1  0.75013374  0.73253197  0.98808084  1
  P  P120  1  0.75002976  0.95205006  0.02774081  1
  P  P121  1  0.25050097  0.31608864  0.02247325  1
  P  P122  1  0.25004882  0.65910811  0.06805559  1
  P  P123  1  0.75020512  0.73025584  0.12654512  1
  P  P124  1  0.75012312  0.30189776  0.09789765  1
  P  P125  1  0.25011131  0.08158222  0.11266077  1
  P  P126  1  0.25028690  0.47052002  0.17580110  1
  P  P127  1  0.75056428  0.54351133  0.22855022  1
  P  P128  1  0.75024887  0.11169826  0.19102352  1
  P  P129  1  0.25021097  0.89679685  0.21027556  1
  P  P130  1  0.25051670  0.28428048  0.27184370  1
  P  P131  1  0.75004087  0.35751407  0.32714757  1
  P  P132  1  0.75006007  0.92869301  0.28837865  1
  P  P133  1  0.25014327  0.71308503  0.30901952  1
  P  P134  1  0.24978899  0.10145164  0.37010835  1
  P  P135  1  0.74917178  0.17699676  0.42786796  1
  P  P136  1  0.75010686  0.74857941  0.38663416  1
  P  P137  1  0.25019425  0.53042646  0.40710275  1
  P  P138  1  0.24927307  0.91790494  0.46756702  1
  P  P139  1  0.74985517  0.56882714  0.48420566  1
  P  P140  1  0.24931225  0.37271775  0.52757749  1
  P  P141  1  0.74933042  0.00742194  0.52216984  1
  P  P142  1  0.74862424  0.66516897  0.56797663  1
  P  P143  1  0.24986274  0.59497689  0.62642260  1
  P  P144  1  0.24948749  0.02260773  0.59742949  1
  P  P145  1  0.74993835  0.24315425  0.61235031  1
  P  P146  1  0.75004842  0.85531768  0.67570227  1
  P  P147  1  0.24981198  0.78313021  0.72836579  1
  P  P148  1  0.25009651  0.21429206  0.69077283  1
  P  P149  1  0.75021347  0.42914712  0.71015736  1
  P  P150  1  0.74997268  0.04257482  0.77163280  1
  P  P151  1  0.25002049  0.96905989  0.82686439  1
  P  P152  1  0.25014175  0.39766112  0.78837946  1
  P  P153  1  0.75027493  0.61277305  0.80875913  1
  P  P154  1  0.75014496  0.22329487  0.87012830  1
  P  P155  1  0.25021734  0.14643617  0.92781615  1
  P  P156  1  0.25031036  0.57658450  0.88632411  1
  P  P157  1  0.75058264  0.79385413  0.90665161  1
  P  P158  1  0.75094193  0.40553160  0.96736962  1
  P  P159  1  0.25028604  0.75385807  0.98394480  1
  O  O160  1  0.45873584  0.62131125  0.05112017  1
  O  O161  1  0.54517039  0.98343672  0.04673068  1
  O  O162  1  0.45471087  0.23894743  0.01914719  1
  O  O163  1  0.04713065  0.23837587  0.01906739  1
  O  O164  1  0.95495123  0.98348603  0.04671272  1
  O  O165  1  0.04133901  0.62109397  0.05109319  1
  O  O166  1  0.75011595  0.82302138  0.02150932  1
  O  O167  1  0.24962146  0.37162732  0.05315896  1
  O  O168  1  0.75038570  0.22488731  0.07063774  1
  O  O169  1  0.74989946  0.02536825  0.99880870  1
  O  O170  1  0.25020147  0.41787176  0.00065231  1
  O  O171  1  0.45722996  0.43249212  0.15857286  1
  O  O172  1  0.54105774  0.76885671  0.14335472  1
  O  O173  1  0.54389419  0.37885721  0.09791926  1
  O  O174  1  0.45645373  0.00493621  0.11560965  1
  O  O175  1  0.04365240  0.00498817  0.11559311  1
  O  O176  1  0.95661208  0.37868096  0.09802701  1
  O  O177  1  0.95958293  0.76872654  0.14332764  1
  O  O178  1  0.04320230  0.43259849  0.15859637  1
  O  O179  1  0.75004584  0.59699718  0.12552110  1
  O  O180  1  0.24977455  0.78679997  0.07781385  1
  O  O181  1  0.25006507  0.17632561  0.13678389  1
  O  O182  1  0.75016825  0.01728325  0.16707145  1
  O  O183  1  0.24987691  0.58531164  0.09757107  1
  O  O184  1  0.75009395  0.78478648  0.09539706  1
  O  O185  1  0.74978551  0.23134836  0.12661304  1
  O  O186  1  0.25023004  0.14242985  0.08247061  1
  O  O187  1  0.45792688  0.24590986  0.25486075  1
  O  O188  1  0.54375475  0.58022795  0.24584479  1
  O  O189  1  0.54275993  0.18778400  0.18812094  1
  O  O190  1  0.45784953  0.82104576  0.21320219  1
  O  O191  1  0.04266854  0.82095705  0.21320357  1
  O  O192  1  0.95784750  0.18772471  0.18812788  1
  O  O193  1  0.95713080  0.58022695  0.24588931  1
  O  O194  1  0.04329036  0.24579142  0.25483490  1
  O  O195  1  0.75061532  0.41089843  0.22468744  1
  O  O196  1  0.25051679  0.60173935  0.17934424  1
  O  O197  1  0.25013790  0.99047354  0.23442889  1
  O  O198  1  0.75010061  0.83520590  0.26424748  1
  O  O199  1  0.25039369  0.40849417  0.20587090  1
  O  O200  1  0.75060646  0.60386651  0.19811021  1
  O  O201  1  0.75015764  0.05461202  0.22177629  1
  O  O202  1  0.25007499  0.95417454  0.17949980  1
  O  O203  1  0.45720336  0.06247419  0.35323597  1
  O  O204  1  0.54338491  0.39598971  0.34422835  1
  O  O205  1  0.54274781  0.00501850  0.28547889  1
  O  O206  1  0.45712676  0.63696863  0.31239806  1
  O  O207  1  0.04316751  0.63697142  0.31241837  1
  O  O208  1  0.95730400  0.00506219  0.28546705  1
  O  O209  1  0.95661881  0.39599061  0.34425611  1
  O  O210  1  0.04267211  0.06261708  0.35315231  1
  O  O211  1  0.75002200  0.22482079  0.32396167  1
  O  O212  1  0.25033468  0.41669288  0.27549549  1
  O  O213  1  0.25013306  0.80785820  0.33285953  1
  O  O214  1  0.75005906  0.65303886  0.36291575  1
  O  O215  1  0.25031972  0.22570502  0.30247579  1
  O  O216  1  0.75022732  0.41531733  0.29648230  1
  O  O217  1  0.75007892  0.87122143  0.31912345  1
  O  O218  1  0.25009412  0.76923449  0.27810688  1
  O  O219  1  0.45280466  0.87849211  0.45023122  1
  O  O220  1  0.54282351  0.21904273  0.44488457  1
  O  O221  1  0.54313149  0.82472914  0.38328486  1
  O  O222  1  0.45589111  0.45283382  0.41066701  1
  O  O223  1  0.04465205  0.45278540  0.41078515  1
  O  O224  1  0.95695484  0.82482789  0.38328494  1
  O  O225  1  0.95521410  0.21879723  0.44499756  1
  O  O226  1  0.04539780  0.87867844  0.45028259  1
  O  O227  1  0.74900903  0.04470330  0.42516188  1
  O  O228  1  0.24988599  0.23406241  0.37341088  1
  O  O229  1  0.25039258  0.62608546  0.43018723  1
  O  O230  1  0.74960308  0.48018605  0.45822769  1
  O  O231  1  0.24927471  0.04523072  0.40103162  1
  O  O232  1  0.74989588  0.23204170  0.39679166  1
  O  O233  1  0.75017164  0.69286146  0.41743669  1
  O  O234  1  0.24989648  0.58422917  0.37592051  1
  O  O235  1  0.54497346  0.64831358  0.48078166  1
  O  O236  1  0.95504116  0.64804891  0.48075995  1
  O  O237  1  0.24962783  0.05107579  0.47123856  1
  O  O238  1  0.24937767  0.86414064  0.49911162  1
  O  O239  1  0.74965415  0.50590764  0.51259521  1
  O  O240  1  0.53954953  0.70276366  0.55105177  1
  O  O241  1  0.45421836  0.34064308  0.54645260  1
  O  O242  1  0.54615016  0.08540794  0.51877137  1
  O  O243  1  0.95333847  0.08484457  0.51889571  1
  O  O244  1  0.04456911  0.34070239  0.54648692  1
  O  O245  1  0.95686375  0.70297939  0.55089584  1
  O  O246  1  0.24934164  0.50187456  0.52158922  1
  O  O247  1  0.74812100  0.95203157  0.55286302  1
  O  O248  1  0.24991521  0.09897128  0.57003401  1
  O  O249  1  0.24903817  0.30007576  0.49849141  1
  O  O250  1  0.74922743  0.90547575  0.50044398  1
  O  O251  1  0.54314425  0.89268983  0.65836633  1
  O  O252  1  0.45923743  0.55686067  0.64327720  1
  O  O253  1  0.45544122  0.94558342  0.59765621  1
  O  O254  1  0.54356834  0.31985049  0.61530143  1
  O  O255  1  0.95639342  0.31976617  0.61532129  1
  O  O256  1  0.04316757  0.94578968  0.59758621  1
  O  O257  1  0.04063754  0.55675148  0.64330140  1
  O  O258  1  0.95710627  0.89274933  0.65840318  1
  O  O259  1  0.24971573  0.72814188  0.62521527  1
  O  O260  1  0.74921131  0.53765565  0.57785528  1
  O  O261  1  0.74979246  0.14858105  0.63654763  1
  O  O262  1  0.25020474  0.30828060  0.66673124  1
  O  O263  1  0.74950611  0.73930609  0.59740277  1
  O  O264  1  0.24958166  0.53978103  0.59535976  1
  O  O265  1  0.24960032  0.09343956  0.62610343  1
  O  O266  1  0.74992590  0.18209491  0.58216189  1
  O  O267  1  0.54259430  0.08100810  0.75464000  1
  O  O268  1  0.45627956  0.74646692  0.74573406  1
  O  O269  1  0.45733634  0.13800667  0.68787916  1
  O  O270  1  0.54275548  0.50502000  0.71315158  1
  O  O271  1  0.95769197  0.50501803  0.71310859  1
  O  O272  1  0.04275804  0.13807883  0.68787169  1
  O  O273  1  0.04332452  0.74641916  0.74571619  1
  O  O274  1  0.95732257  0.08099600  0.75463318  1
  O  O275  1  0.24973621  0.91571102  0.72441232  1
  O  O276  1  0.75015345  0.72426334  0.67965520  1
  O  O277  1  0.75019566  0.33577921  0.73438773  1
  O  O278  1  0.25008947  0.49149561  0.76431948  1
  O  O279  1  0.74981739  0.91833305  0.70565861  1
  O  O280  1  0.25001874  0.72232297  0.69800070  1
  O  O281  1  0.25011383  0.27185544  0.72146457  1
  O  O282  1  0.75010041  0.37131569  0.67944097  1
  O  O283  1  0.54289603  0.26242758  0.85325486  1
  O  O284  1  0.45640598  0.93000299  0.84393533  1
  O  O285  1  0.45749158  0.32141680  0.78540404  1
  O  O286  1  0.54338826  0.68896529  0.81218489  1
  O  O287  1  0.95730029  0.68887333  0.81215587  1
  O  O288  1  0.04275425  0.32142951  0.78540970  1
  O  O289  1  0.04345281  0.92999473  0.84389465  1
  O  O290  1  0.95744316  0.26247260  0.85326847  1
  O  O291  1  0.25005201  0.10171889  0.82392226  1
  O  O292  1  0.74990483  0.91009176  0.77527035  1
  O  O293  1  0.75018227  0.51752157  0.83248047  1
  O  O294  1  0.25032859  0.67306655  0.86284950  1
  O  O295  1  0.75003430  0.10095401  0.80229227  1
  O  O296  1  0.25005760  0.91174528  0.79615013  1
  O  O297  1  0.25017408  0.45429182  0.81921313  1
  O  O298  1  0.75007497  0.55700880  0.77780215  1
  O  O299  1  0.54656109  0.44478282  0.95017018  1
  O  O300  1  0.45639933  0.10459219  0.94489029  1
  O  O301  1  0.45736370  0.50046814  0.88291924  1
  O  O302  1  0.54505937  0.87132078  0.91049453  1
  O  O303  1  0.95638105  0.87122072  0.91035696  1
  O  O304  1  0.04331463  0.50047338  0.88289145  1
  O  O305  1  0.04409481  0.10448530  0.94487794  1
  O  O306  1  0.95440374  0.44458922  0.94999238  1
  O  O307  1  0.25032149  0.27874456  0.92497902  1
  O  O308  1  0.75013815  0.09072273  0.87333022  1
  O  O309  1  0.75084808  0.69696983  0.92939820  1
  O  O310  1  0.25005165  0.84202422  0.95786111  1
  O  O311  1  0.75017160  0.27933730  0.90105254  1
  O  O312  1  0.25016869  0.09136337  0.89673042  1
  O  O313  1  0.25039401  0.63110352  0.91725751  1
  O  O314  1  0.75014004  0.74152985  0.87531332  1
  O  O315  1  0.45546977  0.67452699  0.98053873  1
  O  O316  1  0.04532233  0.67435251  0.98062119  1
  O  O317  1  0.75070112  0.27238738  0.97120730  1
  O  O318  1  0.75130884  0.45942474  0.99890438  1
  O  O319  1  0.25059846  0.81756515  0.01222452  1
