# generated using pymatgen
data_Li3PO4
_symmetry_space_group_name_H-M   'P 1'
_cell_length_a   6.15119200
_cell_length_b   11.66978300
_cell_length_c   42.76337283
_cell_angle_alpha   90.00000000
_cell_angle_beta   90.00000000
_cell_angle_gamma   90.00000000
_symmetry_Int_Tables_number   1
_chemical_formula_structural   Li3PO4
_chemical_formula_sum   'Li108 P36 O144'
_cell_volume   3069.68643450
_cell_formula_units_Z   36
loop_
 _symmetry_equiv_pos_site_id
 _symmetry_equiv_pos_as_xyz
  1  'x, y, z'
loop_
 _atom_site_type_symbol
 _atom_site_label
 _atom_site_symmetry_multiplicity
 _atom_site_fract_x
 _atom_site_fract_y
 _atom_site_fract_z
 _atom_site_occupancy
  Li  Li0  1  0.50561599  0.57494090  0.04155338  1
  Li  Li1  1  0.53536156  0.22102234  0.04276094  1
  Li  Li2  1  0.03382538  0.25716830  0.02540947  1
  Li  Li3  1  0.02997719  0.57392049  0.03762405  1
  Li  Li4  1  0.78019956  0.79561785  0.05348957  1
  Li  Li5  1  0.19172461  0.99118835  0.02982754  1
  Li  Li6  1  0.26836981  0.41362112  0.06658959  1
  Li  Li7  1  0.51630305  0.60887689  0.10764782  1
  Li  Li8  1  0.53225723  0.98510117  0.07323778  1
  Li  Li9  1  0.51589983  0.37099673  0.13758533  1
  Li  Li10  1  0.50670933  0.03096022  0.14607626  1
  Li  Li11  1  0.01519115  0.03350118  0.14680028  1
  Li  Li12  1  0.01148585  0.37082267  0.13812034  1
  Li  Li13  1  0.00168970  0.96690771  0.07994089  1
  Li  Li14  1  0.02448157  0.61326578  0.10622796  1
  Li  Li15  1  0.76435629  0.60018603  0.15834752  1
  Li  Li16  1  0.26675548  0.80166188  0.13373343  1
  Li  Li17  1  0.26191724  0.22482678  0.17101877  1
  Li  Li18  1  0.76520132  0.17650508  0.11232570  1
  Li  Li19  1  0.50552653  0.41676310  0.21057616  1
  Li  Li20  1  0.51120461  0.79470841  0.18450273  1
  Li  Li21  1  0.50946551  0.18456562  0.24478255  1
  Li  Li22  1  0.50112047  0.84550698  0.25363972  1
  Li  Li23  1  0.00909385  0.84449012  0.25321414  1
  Li  Li24  1  0.00217910  0.18520429  0.24465758  1
  Li  Li25  1  0.00812656  0.79595826  0.18327040  1
  Li  Li26  1  0.00671849  0.41708106  0.21050058  1
  Li  Li27  1  0.75181351  0.41706556  0.26271391  1
  Li  Li28  1  0.25378778  0.61288720  0.23583383  1
  Li  Li29  1  0.25408614  0.03855350  0.27811160  1
  Li  Li30  1  0.75776874  0.99138348  0.21968684  1
  Li  Li31  1  0.49573035  0.23314302  0.31448306  1
  Li  Li32  1  0.50237704  0.61167002  0.28761003  1
  Li  Li33  1  0.50348167  0.99907823  0.35216945  1
  Li  Li34  1  0.50170814  0.65866014  0.35969611  1
  Li  Li35  1  0.00349017  0.65810693  0.36041002  1
  Li  Li36  1  0.00089533  0.99640298  0.34955968  1
  Li  Li37  1  0.00091345  0.61133936  0.28802384  1
  Li  Li38  1  0.00179569  0.23288038  0.31585337  1
  Li  Li39  1  0.73823023  0.23209449  0.36391331  1
  Li  Li40  1  0.24833698  0.42877593  0.34019713  1
  Li  Li41  1  0.25121908  0.85399399  0.38539888  1
  Li  Li42  1  0.75153492  0.80375612  0.32682870  1
  Li  Li43  1  0.48607448  0.04997608  0.42657391  1
  Li  Li44  1  0.49142213  0.42712167  0.39286542  1
  Li  Li45  1  0.48197351  0.82816987  0.45477912  1
  Li  Li46  1  0.52565051  0.45708181  0.46458739  1
  Li  Li47  1  0.01129950  0.46529153  0.45890905  1
  Li  Li48  1  0.00695610  0.82040511  0.45945391  1
  Li  Li49  1  0.99029761  0.42393401  0.39268509  1
  Li  Li50  1  0.97678195  0.07426287  0.40772921  1
  Li  Li51  1  0.86000848  0.08906456  0.47063322  1
  Li  Li52  1  0.23677135  0.24436360  0.44549521  1
  Li  Li53  1  0.75243659  0.62224843  0.43610141  1
  Li  Li54  1  0.02593806  0.95650533  0.53557022  1
  Li  Li55  1  0.98339736  0.32359855  0.54469699  1
  Li  Li56  1  0.50353385  0.31525769  0.53998243  1
  Li  Li57  1  0.51187327  0.96390766  0.54112352  1
  Li  Li58  1  0.73911827  0.74338338  0.55505452  1
  Li  Li59  1  0.35997317  0.58825542  0.52930327  1
  Li  Li60  1  0.25338781  0.11926476  0.56498964  1
  Li  Li61  1  0.99038927  0.92384092  0.60710927  1
  Li  Li62  1  0.98718757  0.54769486  0.57356496  1
  Li  Li63  1  0.00117179  0.15656675  0.64030107  1
  Li  Li64  1  0.00101453  0.49670981  0.64791088  1
  Li  Li65  1  0.49732444  0.49248780  0.65033055  1
  Li  Li66  1  0.50301386  0.15622462  0.63970982  1
  Li  Li67  1  0.48112382  0.57061486  0.59137439  1
  Li  Li68  1  0.48975342  0.92112629  0.60753568  1
  Li  Li69  1  0.74634113  0.92597759  0.65965196  1
  Li  Li70  1  0.24053158  0.72830558  0.63622557  1
  Li  Li71  1  0.24851500  0.30043476  0.67313596  1
  Li  Li72  1  0.75054371  0.35149140  0.61467001  1
  Li  Li73  1  0.99650240  0.10702449  0.71220932  1
  Li  Li74  1  0.99700814  0.73014294  0.68553614  1
  Li  Li75  1  0.99339131  0.33866497  0.74687979  1
  Li  Li76  1  0.99731082  0.67864290  0.75512266  1
  Li  Li77  1  0.49125964  0.67822190  0.75487106  1
  Li  Li78  1  0.49993745  0.33858738  0.74650564  1
  Li  Li79  1  0.50074530  0.72861384  0.68470915  1
  Li  Li80  1  0.49564267  0.10836207  0.71220613  1
  Li  Li81  1  0.74330447  0.10539997  0.76433332  1
  Li  Li82  1  0.24688143  0.91155064  0.73711282  1
  Li  Li83  1  0.24561211  0.48370226  0.77993907  1
  Li  Li84  1  0.74851891  0.53265980  0.72151245  1
  Li  Li85  1  0.99368116  0.28710688  0.81731816  1
  Li  Li86  1  0.99346517  0.90977176  0.78918993  1
  Li  Li87  1  0.99043708  0.52266994  0.85160936  1
  Li  Li88  1  0.98907157  0.86204490  0.86137581  1
  Li  Li89  1  0.48748608  0.86151344  0.86084583  1
  Li  Li90  1  0.49251493  0.52093789  0.85299742  1
  Li  Li91  1  0.49496439  0.91019275  0.78914719  1
  Li  Li92  1  0.48861125  0.28635981  0.81641229  1
  Li  Li93  1  0.73311467  0.29038071  0.86545219  1
  Li  Li94  1  0.23573815  0.09028007  0.84180710  1
  Li  Li95  1  0.23876629  0.66640918  0.88622066  1
  Li  Li96  1  0.74127705  0.71595153  0.82805642  1
  Li  Li97  1  0.98068885  0.44876920  0.91320439  1
  Li  Li98  1  0.98116378  0.09925383  0.89670235  1
  Li  Li99  1  0.00102063  0.68889065  0.95883171  1
  Li  Li100  1  0.97877147  0.05642914  0.96290989  1
  Li  Li101  1  0.50178947  0.05267910  0.96306099  1
  Li  Li102  1  0.46568211  0.67589825  0.95381252  1
  Li  Li103  1  0.47893083  0.08902872  0.89313451  1
  Li  Li104  1  0.48320493  0.46166046  0.92441798  1
  Li  Li105  1  0.75010978  0.45542487  0.97285019  1
  Li  Li106  1  0.23722681  0.26972475  0.94885167  1
  Li  Li107  1  0.73718430  0.89069247  0.93895715  1
  P  P108  1  0.27854843  0.76592605  0.06344685  1
  P  P109  1  0.78268218  0.02060828  0.01299199  1
  P  P110  1  0.26142835  0.56939673  0.16735422  1
  P  P111  1  0.76030898  0.82968479  0.12461602  1
  P  P112  1  0.77113767  0.40685467  0.07784008  1
  P  P113  1  0.26227275  0.18696396  0.09818401  1
  P  P114  1  0.25148769  0.38523573  0.27161866  1
  P  P115  1  0.75606448  0.64319709  0.22707028  1
  P  P116  1  0.75958050  0.21623795  0.18365901  1
  P  P117  1  0.25811781  0.00100558  0.20764465  1
  P  P118  1  0.25039434  0.20101540  0.37598472  1
  P  P119  1  0.74893147  0.45950298  0.33127548  1
  P  P120  1  0.75393926  0.02867635  0.29071173  1
  P  P121  1  0.25345938  0.81294113  0.31429366  1
  P  P122  1  0.22886378  0.02947002  0.48852669  1
  P  P123  1  0.73983653  0.27527578  0.43246161  1
  P  P124  1  0.75083570  0.84544384  0.39893600  1
  P  P125  1  0.25190695  0.63260866  0.42034440  1
  P  P126  1  0.24085574  0.77370870  0.56787788  1
  P  P127  1  0.72958545  0.52698621  0.51212446  1
  P  P128  1  0.24764308  0.95666622  0.66890875  1
  P  P129  1  0.75064508  0.69811818  0.62444863  1
  P  P130  1  0.75184821  0.13033561  0.58004198  1
  P  P131  1  0.24988594  0.34333480  0.60141442  1
  P  P132  1  0.24313293  0.13686659  0.77324791  1
  P  P133  1  0.74580430  0.88017097  0.72834646  1
  P  P134  1  0.75031759  0.30953668  0.68604972  1
  P  P135  1  0.24675404  0.52394415  0.70939549  1
  P  P136  1  0.24095611  0.31697817  0.87767491  1
  P  P137  1  0.73993951  0.06053929  0.83281507  1
  P  P138  1  0.74389995  0.49259197  0.79249984  1
  P  P139  1  0.24310486  0.70782884  0.81552100  1
  P  P140  1  0.22544571  0.47451675  0.99013559  1
  P  P141  1  0.73695691  0.24222089  0.93322157  1
  P  P142  1  0.73927955  0.67166042  0.90019404  1
  P  P143  1  0.23693327  0.88192470  0.92165086  1
  O  O144  1  0.48971371  0.73043026  0.04600098  1
  O  O145  1  0.56786459  0.07198290  0.02628335  1
  O  O146  1  0.87826914  0.93213802  0.03553303  1
  O  O147  1  0.06972391  0.72339945  0.04704945  1
  O  O148  1  0.73382405  0.96910979  0.97995615  1
  O  O149  1  0.27354574  0.89962219  0.06614091  1
  O  O150  1  0.77167922  0.32379356  0.04952439  1
  O  O151  1  0.97632444  0.10700776  0.00826123  1
  O  O152  1  0.26318433  0.24539315  0.06516866  1
  O  O153  1  0.47024147  0.53221421  0.14928413  1
  O  O154  1  0.55693787  0.86646387  0.14380551  1
  O  O155  1  0.56273687  0.48393381  0.07713097  1
  O  O156  1  0.47258227  0.11245810  0.10157270  1
  O  O157  1  0.05762060  0.10895333  0.10218616  1
  O  O158  1  0.97592273  0.48580275  0.07604324  1
  O  O159  1  0.97203132  0.86971453  0.14161406  1
  O  O160  1  0.05705795  0.53211751  0.14836385  1
  O  O161  1  0.76725643  0.69751519  0.12048427  1
  O  O162  1  0.26016255  0.70145402  0.17212590  1
  O  O163  1  0.26217755  0.27991390  0.12443416  1
  O  O164  1  0.76009090  0.12312494  0.15762425  1
  O  O165  1  0.27996457  0.71025463  0.09693239  1
  O  O166  1  0.75032580  0.88884436  0.09236411  1
  O  O167  1  0.76971550  0.34185688  0.10976603  1
  O  O168  1  0.26136145  0.05727546  0.17444894  1
  O  O169  1  0.45980783  0.34692881  0.25358476  1
  O  O170  1  0.54747580  0.68194547  0.24497440  1
  O  O171  1  0.55334602  0.29294863  0.18011860  1
  O  O172  1  0.46372809  0.92485751  0.21210216  1
  O  O173  1  0.05162927  0.92470401  0.21138423  1
  O  O174  1  0.96764867  0.29184327  0.18036295  1
  O  O175  1  0.96221126  0.68134711  0.24560597  1
  O  O176  1  0.04498390  0.34740180  0.25318866  1
  O  O177  1  0.75542692  0.51082211  0.22299763  1
  O  O178  1  0.25217058  0.51753150  0.27581661  1
  O  O179  1  0.25524943  0.09623261  0.23306829  1
  O  O180  1  0.75655390  0.93424600  0.26518415  1
  O  O181  1  0.25731367  0.50969690  0.20000690  1
  O  O182  1  0.76038515  0.70173600  0.19435104  1
  O  O183  1  0.75707542  0.15882119  0.21668348  1
  O  O184  1  0.25370796  0.87060720  0.28133138  1
  O  O185  1  0.44929619  0.16267092  0.35609857  1
  O  O186  1  0.54138871  0.49661371  0.34962983  1
  O  O187  1  0.54856915  0.10529001  0.28653217  1
  O  O188  1  0.46027884  0.73666865  0.31763066  1
  O  O189  1  0.04601032  0.73725847  0.31794831  1
  O  O190  1  0.96162524  0.10462046  0.28754689  1
  O  O191  1  0.95519693  0.49702691  0.34981822  1
  O  O192  1  0.03486209  0.15795727  0.35992302  1
  O  O193  1  0.74972785  0.32735261  0.32616892  1
  O  O194  1  0.24420853  0.33315280  0.37914601  1
  O  O195  1  0.25443263  0.90673593  0.34017070  1
  O  O196  1  0.75057201  0.75095899  0.37331567  1
  O  O197  1  0.24871485  0.32631051  0.30438447  1
  O  O198  1  0.75032454  0.51943144  0.29865364  1
  O  O199  1  0.74971397  0.97198496  0.32387302  1
  O  O200  1  0.25946907  0.68694617  0.38693585  1
  O  O201  1  0.41966520  0.97819110  0.46929859  1
  O  O202  1  0.53009212  0.30950405  0.44978106  1
  O  O203  1  0.54331641  0.92180982  0.39592474  1
  O  O204  1  0.45547983  0.55446252  0.42547195  1
  O  O205  1  0.04337295  0.55666976  0.42214443  1
  O  O206  1  0.95819851  0.92112586  0.39453168  1
  O  O207  1  0.94941784  0.32058814  0.44782332  1
  O  O208  1  0.15287414  0.14608247  0.47660261  1
  O  O209  1  0.75133116  0.14067647  0.43103502  1
  O  O210  1  0.28745425  0.04045706  0.52382015  1
  O  O211  1  0.24593575  0.72855497  0.44548796  1
  O  O212  1  0.25831751  0.14254855  0.40855294  1
  O  O213  1  0.73392380  0.32687866  0.39872620  1
  O  O214  1  0.75264037  0.79127727  0.43252127  1
  O  O215  1  0.01909045  0.95044958  0.48693697  1
  O  O216  1  0.03132131  0.80893548  0.55063104  1
  O  O217  1  0.92098249  0.47479372  0.53106664  1
  O  O218  1  0.65402213  0.64276728  0.52471806  1
  O  O219  1  0.45080071  0.81937646  0.55269684  1
  O  O220  1  0.78731578  0.54048649  0.47688796  1
  O  O221  1  0.25182321  0.63909923  0.56908730  1
  O  O222  1  0.74516822  0.22560276  0.55474345  1
  O  O223  1  0.51961658  0.44808543  0.51344274  1
  O  O224  1  0.25211372  0.28908150  0.56787228  1
  O  O225  1  0.04026970  0.99377607  0.65054083  1
  O  O226  1  0.95046130  0.66009743  0.64419817  1
  O  O227  1  0.95618093  0.05257086  0.57518754  1
  O  O228  1  0.04254373  0.41962533  0.60459130  1
  O  O229  1  0.45706719  0.41904569  0.60597906  1
  O  O230  1  0.54416205  0.05382238  0.57835253  1
  O  O231  1  0.53611763  0.65485812  0.64071540  1
  O  O232  1  0.45413752  0.99482605  0.65054787  1
  O  O233  1  0.74345124  0.83025814  0.62116922  1
  O  O234  1  0.24955577  0.82445848  0.67407432  1
  O  O235  1  0.24980190  0.24846282  0.62698253  1
  O  O236  1  0.75152928  0.40410256  0.66042518  1
  O  O237  1  0.23412774  0.82429266  0.60172157  1
  O  O238  1  0.75923794  0.63995577  0.59187005  1
  O  O239  1  0.75857162  0.18532220  0.61339673  1
  O  O240  1  0.24546929  0.46783529  0.67622437  1
  O  O241  1  0.03634393  0.17541385  0.75498177  1
  O  O242  1  0.95331360  0.84135874  0.74648284  1
  O  O243  1  0.95730432  0.23352941  0.68265267  1
  O  O244  1  0.04147367  0.60068381  0.71347427  1
  O  O245  1  0.45456383  0.59964361  0.71283115  1
  O  O246  1  0.54276730  0.23392501  0.68237999  1
  O  O247  1  0.53877763  0.84105046  0.74656027  1
  O  O248  1  0.45106137  0.17614110  0.75529215  1
  O  O249  1  0.74522971  0.01257587  0.72448816  1
  O  O250  1  0.24439368  0.00442154  0.77716808  1
  O  O251  1  0.24700377  0.42911656  0.73490293  1
  O  O252  1  0.74515634  0.58752093  0.76705710  1
  O  O253  1  0.24690506  0.01603797  0.70164511  1
  O  O254  1  0.74648414  0.82235344  0.69549779  1
  O  O255  1  0.74857178  0.36591029  0.71921178  1
  O  O256  1  0.24423480  0.65089637  0.78249923  1
  O  O257  1  0.02756162  0.36138022  0.86152393  1
  O  O258  1  0.94355182  0.02265207  0.85181626  1
  O  O259  1  0.95199986  0.41701442  0.78930612  1
  O  O260  1  0.03509056  0.78325768  0.81905988  1
  O  O261  1  0.45003005  0.78386544  0.81902362  1
  O  O262  1  0.53866015  0.41581763  0.78850074  1
  O  O263  1  0.53005522  0.02240882  0.85050107  1
  O  O264  1  0.44057976  0.35783335  0.85825632  1
  O  O265  1  0.74114329  0.19279188  0.82780133  1
  O  O266  1  0.23378611  0.18486173  0.88014795  1
  O  O267  1  0.24319309  0.61356754  0.84129780  1
  O  O268  1  0.73736117  0.76737472  0.87503848  1
  O  O269  1  0.24045034  0.19442736  0.80617210  1
  O  O270  1  0.74417124  0.00150361  0.80004369  1
  O  O271  1  0.74020002  0.54888567  0.82571202  1
  O  O272  1  0.23997054  0.83321421  0.88755686  1
  O  O273  1  0.17407977  0.34702326  0.98648689  1
  O  O274  1  0.95815761  0.19467788  0.94388372  1
  O  O275  1  0.94701444  0.59640701  0.89571821  1
  O  O276  1  0.02875678  0.95610313  0.92610185  1
  O  O277  1  0.44141951  0.96000174  0.92617451  1
  O  O278  1  0.53086721  0.59564939  0.89708425  1
  O  O279  1  0.54093433  0.20491921  0.95334072  1
  O  O280  1  0.42134750  0.51762327  0.96928152  1
  O  O281  1  0.74588569  0.37695790  0.93295784  1
  O  O282  1  0.28239332  0.49561118  0.02500243  1
  O  O283  1  0.23939015  0.78004094  0.94510780  1
  O  O284  1  0.24947250  0.37198262  0.91084699  1
  O  O285  1  0.70834430  0.19402203  0.89942139  1
  O  O286  1  0.74041620  0.72188586  0.93427093  1
  O  O287  1  0.01422130  0.54707341  0.98238389  1
