# generated using pymatgen
data_Li3PO4
_symmetry_space_group_name_H-M   'P 1'
_cell_length_a   6.15119200
_cell_length_b   14.50933100
_cell_length_c   44.10978133
_cell_angle_alpha   90.00000000
_cell_angle_beta   90.00000000
_cell_angle_gamma   90.00000000
_symmetry_Int_Tables_number   1
_chemical_formula_structural   Li3PO4
_chemical_formula_sum   'Li144 P48 O192'
_cell_volume   3936.78390233
_cell_formula_units_Z   48
loop_
 _symmetry_equiv_pos_site_id
 _symmetry_equiv_pos_as_xyz
  1  'x, y, z'
loop_
 _atom_site_type_symbol
 _atom_site_label
 _atom_site_symmetry_multiplicity
 _atom_site_fract_x
 _atom_site_fract_y
 _atom_site_fract_z
 _atom_site_occupancy
  Li  Li0  1  0.40934889  0.14952279  0.00305939  1
  Li  Li1  1  0.39054749  0.09502118  0.07191443  1
  Li  Li2  1  0.89851055  0.09575380  0.07125918  1
  Li  Li3  1  0.91814537  0.60709167  0.00803152  1
  Li  Li4  1  0.87236611  0.15013601  0.00296632  1
  Li  Li5  1  0.86475428  0.82272222  0.02594577  1
  Li  Li6  1  0.62496129  0.69892054  0.05792620  1
  Li  Li7  1  0.17362625  0.90860884  0.04162286  1
  Li  Li8  1  0.14269067  0.44321631  0.04842705  1
  Li  Li9  1  0.64599497  0.23811392  0.05436748  1
  Li  Li10  1  0.38478000  0.56260813  0.08395247  1
  Li  Li11  1  0.39407190  0.87403547  0.08883913  1
  Li  Li12  1  0.40711109  0.35803963  0.09612458  1
  Li  Li13  1  0.38725934  0.85172684  0.15706067  1
  Li  Li14  1  0.89371004  0.85220729  0.15697685  1
  Li  Li15  1  0.89099879  0.35545755  0.09764593  1
  Li  Li16  1  0.88961161  0.87485430  0.08905700  1
  Li  Li17  1  0.88739188  0.56013294  0.08388473  1
  Li  Li18  1  0.64047674  0.51579613  0.13146484  1
  Li  Li19  1  0.13822348  0.68703189  0.12449956  1
  Li  Li20  1  0.14648371  0.21495809  0.11273578  1
  Li  Li21  1  0.64020095  0.99323831  0.13767720  1
  Li  Li22  1  0.38958799  0.32553029  0.16491551  1
  Li  Li23  1  0.39227713  0.64120303  0.17082189  1
  Li  Li24  1  0.39327777  0.11784937  0.17750857  1
  Li  Li25  1  0.38896638  0.61429207  0.23982162  1
  Li  Li26  1  0.89300696  0.61404980  0.23985104  1
  Li  Li27  1  0.88849360  0.11811056  0.17760210  1
  Li  Li28  1  0.88819551  0.64064278  0.17106800  1
  Li  Li29  1  0.89275373  0.32545164  0.16520442  1
  Li  Li30  1  0.64039347  0.27868383  0.21232720  1
  Li  Li31  1  0.14029397  0.45263579  0.20425729  1
  Li  Li32  1  0.14069559  0.97676020  0.19584495  1
  Li  Li33  1  0.64093672  0.75602960  0.22116169  1
  Li  Li34  1  0.38858666  0.08922018  0.24748345  1
  Li  Li35  1  0.39105857  0.40494211  0.25181668  1
  Li  Li36  1  0.39532241  0.88064511  0.26048053  1
  Li  Li37  1  0.39205837  0.37942476  0.32094148  1
  Li  Li38  1  0.89298433  0.37961603  0.32082292  1
  Li  Li39  1  0.88867825  0.88086723  0.26022593  1
  Li  Li40  1  0.88903274  0.40492868  0.25186191  1
  Li  Li41  1  0.89294018  0.08954175  0.24742417  1
  Li  Li42  1  0.64097517  0.03987651  0.29492573  1
  Li  Li43  1  0.14184471  0.21651636  0.28595863  1
  Li  Li44  1  0.14136318  0.74100248  0.27890059  1
  Li  Li45  1  0.64161045  0.52235471  0.30274445  1
  Li  Li46  1  0.38496192  0.85193520  0.33065816  1
  Li  Li47  1  0.39532215  0.16701421  0.33252658  1
  Li  Li48  1  0.39228828  0.64496071  0.34369605  1
  Li  Li49  1  0.39114052  0.14214607  0.39979850  1
  Li  Li50  1  0.89568742  0.14004054  0.39919095  1
  Li  Li51  1  0.88974148  0.64533969  0.34343080  1
  Li  Li52  1  0.88788680  0.16692696  0.33216711  1
  Li  Li53  1  0.89381085  0.85195585  0.33075406  1
  Li  Li54  1  0.63666233  0.80782137  0.37930722  1
  Li  Li55  1  0.13775892  0.97807956  0.36976424  1
  Li  Li56  1  0.14260084  0.50430276  0.36115601  1
  Li  Li57  1  0.64390507  0.28425917  0.38184840  1
  Li  Li58  1  0.39459406  0.62192717  0.41459357  1
  Li  Li59  1  0.38377025  0.93431891  0.41826959  1
  Li  Li60  1  0.38963243  0.40048287  0.42161965  1
  Li  Li61  1  0.36686320  0.92309670  0.49205623  1
  Li  Li62  1  0.89565467  0.40272036  0.42282087  1
  Li  Li63  1  0.88375903  0.93001593  0.41896779  1
  Li  Li64  1  0.88955115  0.62555248  0.41301369  1
  Li  Li65  1  0.65732556  0.57061316  0.45989817  1
  Li  Li66  1  0.13593866  0.74548327  0.45505391  1
  Li  Li67  1  0.13870770  0.24909650  0.44449311  1
  Li  Li68  1  0.63751545  0.03789286  0.46616454  1
  Li  Li69  1  0.42176571  0.39859992  0.47985448  1
  Li  Li70  1  0.90089127  0.91839675  0.49118295  1
  Li  Li71  1  0.88571226  0.40660003  0.48220964  1
  Li  Li72  1  0.86557048  0.17657967  0.50276597  1
  Li  Li73  1  0.88363224  0.23187376  0.57189223  1
  Li  Li74  1  0.37643066  0.23069704  0.57085672  1
  Li  Li75  1  0.35617105  0.71922488  0.50827885  1
  Li  Li76  1  0.40251940  0.17541495  0.50259888  1
  Li  Li77  1  0.40883726  0.50380611  0.52550123  1
  Li  Li78  1  0.65064291  0.62516758  0.55803371  1
  Li  Li79  1  0.10351365  0.41764456  0.54156576  1
  Li  Li80  1  0.12794076  0.88328532  0.54828824  1
  Li  Li81  1  0.62746690  0.08858101  0.55429725  1
  Li  Li82  1  0.88899060  0.76289845  0.58391957  1
  Li  Li83  1  0.88040623  0.45137473  0.58881974  1
  Li  Li84  1  0.86497625  0.96850675  0.59601312  1
  Li  Li85  1  0.88893181  0.47273347  0.65717759  1
  Li  Li86  1  0.38153583  0.47239266  0.65714858  1
  Li  Li87  1  0.38151692  0.97113034  0.59722158  1
  Li  Li88  1  0.38609052  0.45115741  0.58928753  1
  Li  Li89  1  0.38760733  0.76505874  0.58374118  1
  Li  Li90  1  0.63397577  0.80976627  0.63139545  1
  Li  Li91  1  0.13669470  0.63791267  0.62454301  1
  Li  Li92  1  0.12788204  0.11120434  0.61271718  1
  Li  Li93  1  0.63547220  0.33242198  0.63790659  1
  Li  Li94  1  0.88436960  0.99956736  0.66471711  1
  Li  Li95  1  0.88477148  0.68395163  0.67110485  1
  Li  Li96  1  0.88068129  0.20663849  0.67721752  1
  Li  Li97  1  0.88797401  0.70976882  0.73993472  1
  Li  Li98  1  0.38389846  0.70989957  0.73976159  1
  Li  Li99  1  0.38619133  0.20663204  0.67711719  1
  Li  Li100  1  0.38708522  0.68421887  0.67110260  1
  Li  Li101  1  0.38283959  0.99927414  0.66528339  1
  Li  Li102  1  0.63709638  0.04555534  0.71261887  1
  Li  Li103  1  0.13462472  0.87294641  0.70427817  1
  Li  Li104  1  0.13541155  0.34637835  0.69574262  1
  Li  Li105  1  0.63609047  0.56820270  0.72111219  1
  Li  Li106  1  0.88751330  0.23463077  0.74719606  1
  Li  Li107  1  0.88428746  0.91870056  0.75198175  1
  Li  Li108  1  0.88122962  0.44420439  0.76067238  1
  Li  Li109  1  0.88423129  0.94521704  0.82091074  1
  Li  Li110  1  0.38352987  0.94524969  0.82088641  1
  Li  Li111  1  0.38841519  0.44389778  0.76055134  1
  Li  Li112  1  0.38594310  0.91874472  0.75179416  1
  Li  Li113  1  0.38200917  0.23469905  0.74713494  1
  Li  Li114  1  0.63483586  0.28432808  0.79447312  1
  Li  Li115  1  0.13581698  0.10715111  0.78599661  1
  Li  Li116  1  0.13501629  0.58374797  0.77887388  1
  Li  Li117  1  0.63555048  0.80290068  0.80331343  1
  Li  Li118  1  0.88927745  0.47217603  0.83050986  1
  Li  Li119  1  0.88037050  0.15754294  0.83269803  1
  Li  Li120  1  0.88349983  0.67896744  0.84371165  1
  Li  Li121  1  0.88187604  0.18346744  0.89997786  1
  Li  Li122  1  0.37664893  0.18445436  0.89924451  1
  Li  Li123  1  0.38614940  0.67918150  0.84361938  1
  Li  Li124  1  0.38824221  0.15784400  0.83236364  1
  Li  Li125  1  0.38137614  0.47244830  0.83079080  1
  Li  Li126  1  0.63866217  0.51589554  0.87924207  1
  Li  Li127  1  0.13549045  0.34567623  0.86965030  1
  Li  Li128  1  0.13430963  0.82043003  0.86160432  1
  Li  Li129  1  0.62790236  0.04105413  0.88201320  1
  Li  Li130  1  0.88011226  0.70295942  0.91494004  1
  Li  Li131  1  0.88938527  0.39110482  0.91825793  1
  Li  Li132  1  0.88457506  0.92611955  0.92193189  1
  Li  Li133  1  0.90419111  0.40184151  0.99201875  1
  Li  Li134  1  0.37719509  0.92211947  0.92294978  1
  Li  Li135  1  0.39034391  0.39433305  0.91878596  1
  Li  Li136  1  0.38679847  0.69707229  0.91259382  1
  Li  Li137  1  0.61529804  0.75462612  0.95979680  1
  Li  Li138  1  0.13887196  0.57899823  0.95507268  1
  Li  Li139  1  0.13658435  0.07617301  0.94477732  1
  Li  Li140  1  0.63618136  0.28625161  0.96582504  1
  Li  Li141  1  0.85182961  0.92730964  0.97992645  1
  Li  Li142  1  0.37231719  0.40606182  0.99153847  1
  Li  Li143  1  0.38942683  0.91732467  0.98231987  1
  P  P144  1  0.14196166  0.71280867  0.05835839  1
  P  P145  1  0.64234651  0.97137756  0.03506065  1
  P  P146  1  0.64286999  0.43318871  0.04317490  1
  P  P147  1  0.14455566  0.26711634  0.04400829  1
  P  P148  1  0.14131321  0.48348776  0.13820913  1
  P  P149  1  0.64000380  0.72152693  0.11733029  1
  P  P150  1  0.64470207  0.19476617  0.12399020  1
  P  P151  1  0.14102321  0.01199437  0.12687473  1
  P  P152  1  0.14049879  0.24639812  0.21898108  1
  P  P153  1  0.64042480  0.48484415  0.19829389  1
  P  P154  1  0.64087743  0.95875694  0.20693071  1
  P  P155  1  0.14127165  0.77385694  0.21051495  1
  P  P156  1  0.14081443  0.00923752  0.30136565  1
  P  P157  1  0.64130198  0.24874615  0.27953643  1
  P  P158  1  0.64117884  0.72231616  0.29023966  1
  P  P159  1  0.14154195  0.53792081  0.29257718  1
  P  P160  1  0.13949638  0.77392067  0.38576021  1
  P  P161  1  0.63932500  0.00871928  0.36207286  1
  P  P162  1  0.64303499  0.48783769  0.37252315  1
  P  P163  1  0.14170893  0.30128706  0.37208151  1
  P  P164  1  0.16291070  0.53478314  0.46958040  1
  P  P165  1  0.64191293  0.78226235  0.44938525  1
  P  P166  1  0.64200294  0.24227846  0.44941976  1
  P  P167  1  0.13690973  0.07072762  0.45480551  1
  P  P168  1  0.13311130  0.61272628  0.55856992  1
  P  P169  1  0.63266800  0.35517792  0.53473102  1
  P  P170  1  0.62959997  0.89270253  0.54292264  1
  P  P171  1  0.12842902  0.05941439  0.54383262  1
  P  P172  1  0.13401507  0.84235388  0.63803427  1
  P  P173  1  0.63581148  0.60383934  0.61763280  1
  P  P174  1  0.62930456  0.13096945  0.62384669  1
  P  P175  1  0.13437628  0.31340010  0.62677879  1
  P  P176  1  0.13562010  0.07811319  0.71892925  1
  P  P177  1  0.63499416  0.83980444  0.69831986  1
  P  P178  1  0.63501986  0.36572017  0.70694121  1
  P  P179  1  0.13593719  0.55035003  0.71061289  1
  P  P180  1  0.13501996  0.31491345  0.80122162  1
  P  P181  1  0.63511653  0.07561241  0.77956803  1
  P  P182  1  0.63507643  0.60252478  0.79029188  1
  P  P183  1  0.13552477  0.78662619  0.79276786  1
  P  P184  1  0.13521470  0.55018178  0.88573339  1
  P  P185  1  0.63492046  0.31585466  0.86197309  1
  P  P186  1  0.63323686  0.83699792  0.87267574  1
  P  P187  1  0.13199285  0.02361715  0.87217619  1
  P  P188  1  0.11048379  0.79049623  0.96959385  1
  P  P189  1  0.63214781  0.54236117  0.94948339  1
  P  P190  1  0.63242850  0.08274117  0.94958000  1
  P  P191  1  0.13698618  0.25427265  0.95492264  1
  O  O192  1  0.34808688  0.69928997  0.03987428  1
  O  O193  1  0.43717953  0.96292323  0.05542806  1
  O  O194  1  0.43329893  0.49018382  0.04807091  1
  O  O195  1  0.34979551  0.20478012  0.04193272  1
  O  O196  1  0.94153322  0.20362038  0.04226553  1
  O  O197  1  0.84947967  0.49737366  0.04400076  1
  O  O198  1  0.85817635  0.94916203  0.05232677  1
  O  O199  1  0.92239312  0.70272206  0.03988033  1
  O  O200  1  0.62989918  0.89764672  0.00873322  1
  O  O201  1  0.13794594  0.81228048  0.07229976  1
  O  O202  1  0.14700686  0.31668017  0.07580653  1
  O  O203  1  0.63731106  0.37965658  0.01262490  1
  O  O204  1  0.13192805  0.63985038  0.08448317  1
  O  O205  1  0.65288648  0.06942370  0.02287385  1
  O  O206  1  0.65892506  0.36278876  0.07005823  1
  O  O207  1  0.14037063  0.34478911  0.01962936  1
  O  O208  1  0.34911868  0.47251577  0.11835182  1
  O  O209  1  0.43277847  0.73225019  0.13722712  1
  O  O210  1  0.43868543  0.25713886  0.12701209  1
  O  O211  1  0.34653333  0.94933877  0.12471779  1
  O  O212  1  0.93367765  0.95038010  0.12451826  1
  O  O213  1  0.85317170  0.25546296  0.12752406  1
  O  O214  1  0.84594636  0.73176716  0.13747883  1
  O  O215  1  0.93412748  0.47254927  0.11810961  1
  O  O216  1  0.63829571  0.62556510  0.10105775  1
  O  O217  1  0.14039739  0.57968124  0.15368100  1
  O  O218  1  0.14098532  0.06209286  0.15808821  1
  O  O219  1  0.64539779  0.14667004  0.09253563  1
  O  O220  1  0.14034703  0.40677945  0.16299498  1
  O  O221  1  0.64123123  0.79566513  0.09195936  1
  O  O222  1  0.64131934  0.12178892  0.14999775  1
  O  O223  1  0.14244042  0.08411271  0.10044227  1
  O  O224  1  0.34707018  0.23425396  0.19886328  1
  O  O225  1  0.43345464  0.49744518  0.21830953  1
  O  O226  1  0.43399541  0.02032232  0.20989086  1
  O  O227  1  0.34838254  0.71243229  0.20768856  1
  O  O228  1  0.93440556  0.71226740  0.20782437  1
  O  O229  1  0.84811092  0.02013761  0.20987802  1
  O  O230  1  0.84747732  0.49746158  0.21830314  1
  O  O231  1  0.93293962  0.23396310  0.19908878  1
  O  O232  1  0.64066028  0.38738404  0.18363807  1
  O  O233  1  0.14037821  0.34402083  0.23354105  1
  O  O234  1  0.14175163  0.82327569  0.24178014  1
  O  O235  1  0.64066933  0.90969357  0.17561431  1
  O  O236  1  0.14129044  0.17167726  0.24445153  1
  O  O237  1  0.64031215  0.55975566  0.17291586  1
  O  O238  1  0.64103299  0.88555732  0.23291469  1
  O  O239  1  0.14050950  0.84676535  0.18447399  1
  O  O240  1  0.34806236  0.99647073  0.28140390  1
  O  O241  1  0.43492896  0.26200831  0.29962779  1
  O  O242  1  0.43394666  0.78356448  0.29308150  1
  O  O243  1  0.34879679  0.47681773  0.28916311  1
  O  O244  1  0.93411658  0.47692395  0.28909357  1
  O  O245  1  0.84858426  0.78348158  0.29312280  1
  O  O246  1  0.84874876  0.26218466  0.29939563  1
  O  O247  1  0.93403077  0.99680791  0.28129610  1
  O  O248  1  0.64101976  0.15023750  0.26569094  1
  O  O249  1  0.14147299  0.10782717  0.31514823  1
  O  O250  1  0.14133500  0.58547762  0.32424286  1
  O  O251  1  0.64121763  0.67247115  0.25901991  1
  O  O252  1  0.13965812  0.93564766  0.32718779  1
  O  O253  1  0.64039428  0.32274120  0.25389500  1
  O  O254  1  0.64084539  0.64962233  0.31638708  1
  O  O255  1  0.14148988  0.61229694  0.26705777  1
  O  O256  1  0.34462434  0.76082625  0.36536720  1
  O  O257  1  0.43216630  0.02155643  0.38186752  1
  O  O258  1  0.43576426  0.54874468  0.37681068  1
  O  O259  1  0.35014662  0.24134433  0.36854378  1
  O  O260  1  0.93639783  0.23993134  0.36800308  1
  O  O261  1  0.84998116  0.54901090  0.37676287  1
  O  O262  1  0.84495216  0.02030788  0.38220382  1
  O  O263  1  0.93099325  0.75941883  0.36607037  1
  O  O264  1  0.63897659  0.91078559  0.34778634  1
  O  O265  1  0.13672012  0.87215515  0.39953723  1
  O  O266  1  0.13887453  0.34758180  0.40379107  1
  O  O267  1  0.64274950  0.44229180  0.34064419  1
  O  O268  1  0.14348130  0.70057345  0.41174052  1
  O  O269  1  0.64144135  0.08356310  0.33652624  1
  O  O270  1  0.64459934  0.41106893  0.39725427  1
  O  O271  1  0.14224591  0.37783171  0.34720647  1
  O  O272  1  0.36753486  0.50783070  0.44970314  1
  O  O273  1  0.43766574  0.79480903  0.47011895  1
  O  O274  1  0.43217683  0.30206522  0.45303693  1
  O  O275  1  0.34095951  0.00639354  0.45630548  1
  O  O276  1  0.93190800  0.00732378  0.45567748  1
  O  O277  1  0.84473627  0.30593773  0.45488674  1
  O  O278  1  0.85689972  0.80294321  0.46607871  1
  O  O279  1  0.94601846  0.51298163  0.45187370  1
  O  O280  1  0.64479906  0.68002712  0.43652100  1
  O  O281  1  0.18135560  0.63470631  0.47888129  1
  O  O282  1  0.13578777  0.14588669  0.47980642  1
  O  O283  1  0.64853130  0.20248891  0.41690817  1
  O  O284  1  0.16821321  0.46309763  0.49686545  1
  O  O285  1  0.62432902  0.84933867  0.42145716  1
  O  O286  1  0.63927662  0.16261088  0.47244217  1
  O  O287  1  0.14165090  0.12572197  0.42428449  1
  O  O288  1  0.92716484  0.62593454  0.54003074  1
  O  O289  1  0.83855238  0.36328561  0.55499638  1
  O  O290  1  0.83836050  0.83518425  0.54793271  1
  O  O291  1  0.92370019  0.12201294  0.54172841  1
  O  O292  1  0.33216224  0.12257953  0.54203541  1
  O  O293  1  0.42218988  0.82892789  0.54381781  1
  O  O294  1  0.41791874  0.37778963  0.55219045  1
  O  O295  1  0.35255731  0.62302701  0.54005822  1
  O  O296  1  0.64468607  0.42885392  0.50837917  1
  O  O297  1  0.13753013  0.51335851  0.57257404  1
  O  O298  1  0.12563979  0.01007140  0.57567267  1
  O  O299  1  0.63590266  0.94560003  0.51225399  1
  O  O300  1  0.14253237  0.68582740  0.58463492  1
  O  O301  1  0.62057012  0.25718307  0.52251541  1
  O  O302  1  0.61442894  0.96355751  0.56967872  1
  O  O303  1  0.13197311  0.98145372  0.51953742  1
  O  O304  1  0.92600913  0.85376476  0.61820629  1
  O  O305  1  0.84300595  0.59287850  0.63752398  1
  O  O306  1  0.83538279  0.06866160  0.62693965  1
  O  O307  1  0.92883803  0.37602475  0.62466764  1
  O  O308  1  0.34188202  0.37495559  0.62461983  1
  O  O309  1  0.42096483  0.07033611  0.62748504  1
  O  O310  1  0.42961782  0.59308814  0.63770790  1
  O  O311  1  0.34109590  0.85377139  0.61792040  1
  O  O312  1  0.63684356  0.69984913  0.60137941  1
  O  O313  1  0.13526391  0.74592911  0.65340018  1
  O  O314  1  0.13367362  0.26261128  0.65787923  1
  O  O315  1  0.62881520  0.17894385  0.59236448  1
  O  O316  1  0.13468453  0.91860137  0.66297707  1
  O  O317  1  0.63483696  0.52989834  0.59217350  1
  O  O318  1  0.63323566  0.20400485  0.64982520  1
  O  O319  1  0.13309569  0.24179674  0.60021640  1
  O  O320  1  0.92901264  0.09062810  0.69882011  1
  O  O321  1  0.84164430  0.82699920  0.71840202  1
  O  O322  1  0.84166176  0.30398202  0.70975367  1
  O  O323  1  0.92931320  0.61211556  0.70777988  1
  O  O324  1  0.34296241  0.61185370  0.70779195  1
  O  O325  1  0.42765632  0.30438444  0.70975021  1
  O  O326  1  0.42748453  0.82697772  0.71823484  1
  O  O327  1  0.34319869  0.09057823  0.69905077  1
  O  O328  1  0.63512238  0.93739636  0.68373943  1
  O  O329  1  0.13496604  0.98048676  0.73351974  1
  O  O330  1  0.13534379  0.50138239  0.74194489  1
  O  O331  1  0.63536396  0.41525877  0.67569874  1
  O  O332  1  0.13505217  0.15263779  0.74445062  1
  O  O333  1  0.63551842  0.76509977  0.67288229  1
  O  O334  1  0.63542203  0.43867513  0.73300325  1
  O  O335  1  0.13567627  0.47717411  0.68466286  1
  O  O336  1  0.92803746  0.32763631  0.78121503  1
  O  O337  1  0.84182132  0.06258548  0.79959671  1
  O  O338  1  0.84229149  0.54122938  0.79313044  1
  O  O339  1  0.92817660  0.84770214  0.78934231  1
  O  O340  1  0.34277512  0.84772940  0.78934691  1
  O  O341  1  0.42776869  0.54130798  0.79323140  1
  O  O342  1  0.42823058  0.06251702  0.79956435  1
  O  O343  1  0.34188477  0.32738467  0.78117815  1
  O  O344  1  0.63486628  0.17382283  0.76548601  1
  O  O345  1  0.13453156  0.21650060  0.81514533  1
  O  O346  1  0.13503559  0.73888905  0.82439829  1
  O  O347  1  0.63533108  0.65201947  0.75903136  1
  O  O348  1  0.13556143  0.38862273  0.82702664  1
  O  O349  1  0.63525839  0.00117717  0.75405363  1
  O  O350  1  0.63542149  0.67523223  0.81642292  1
  O  O351  1  0.13590349  0.71246028  0.76717638  1
  O  O352  1  0.93057981  0.56303457  0.86525037  1
  O  O353  1  0.84144679  0.30330532  0.88192532  1
  O  O354  1  0.84037832  0.77604726  0.87698721  1
  O  O355  1  0.92349269  0.08347355  0.86866740  1
  O  O356  1  0.33729843  0.08504331  0.86811147  1
  O  O357  1  0.42654215  0.77551157  0.87682947  1
  O  O358  1  0.42884618  0.30404576  0.88199695  1
  O  O359  1  0.34439688  0.56498708  0.86619337  1
  O  O360  1  0.63561571  0.41384874  0.84775094  1
  O  O361  1  0.13791430  0.45191974  0.89947878  1
  O  O362  1  0.13546485  0.97744746  0.90389729  1
  O  O363  1  0.63363752  0.88250363  0.84078558  1
  O  O364  1  0.13036206  0.62356106  0.91170791  1
  O  O365  1  0.63447718  0.24115742  0.83639905  1
  O  O366  1  0.63000452  0.91383310  0.89738741  1
  O  O367  1  0.13290915  0.94705327  0.84731753  1
  O  O368  1  0.90609134  0.81780857  0.94972291  1
  O  O369  1  0.83673226  0.52967864  0.97013365  1
  O  O370  1  0.84312393  0.02350381  0.95313377  1
  O  O371  1  0.93272485  0.31849570  0.95637239  1
  O  O372  1  0.34212616  0.31754544  0.95569528  1
  O  O373  1  0.43057433  0.01864713  0.95505204  1
  O  O374  1  0.41734793  0.52166159  0.96619895  1
  O  O375  1  0.32791382  0.81215337  0.95199738  1
  O  O376  1  0.62947378  0.64464187  0.93664584  1
  O  O377  1  0.09167053  0.69036349  0.97869155  1
  O  O378  1  0.13884393  0.17925985  0.97998014  1
  O  O379  1  0.62491651  0.12267570  0.91708155  1
  O  O380  1  0.10552329  0.86206376  0.99692911  1
  O  O381  1  0.64930016  0.47537798  0.92149883  1
  O  O382  1  0.63513456  0.16226403  0.97263873  1
  O  O383  1  0.13180640  0.19914703  0.92442357  1
