# generated using pymatgen
data_Li36P10O43
_symmetry_space_group_name_H-M   'P 1'
_cell_length_a   6.15119200
_cell_length_b   14.50933100
_cell_length_c   40.98876260
_cell_angle_alpha   90.00000000
_cell_angle_beta   90.00000000
_cell_angle_gamma   90.00000000
_symmetry_Int_Tables_number   1
_chemical_formula_structural   Li36P10O43
_chemical_formula_sum   'Li144 P40 O172'
_cell_volume   3658.23397705
_cell_formula_units_Z   4
loop_
 _symmetry_equiv_pos_site_id
 _symmetry_equiv_pos_as_xyz
  1  'x, y, z'
loop_
 _atom_site_type_symbol
 _atom_site_label
 _atom_site_symmetry_multiplicity
 _atom_site_fract_x
 _atom_site_fract_y
 _atom_site_fract_z
 _atom_site_occupancy
  Li  Li0  1  0.56961592  0.77418830  0.04809690  1
  Li  Li1  1  0.32933026  0.14332226  0.99329446  1
  Li  Li2  1  0.60966245  0.50764468  0.04098587  1
  Li  Li3  1  0.56959611  0.32682175  0.01828974  1
  Li  Li4  1  0.17489283  0.33310610  0.02441310  1
  Li  Li5  1  0.10873405  0.51676259  0.03700041  1
  Li  Li6  1  0.04316770  0.06530188  0.02944453  1
  Li  Li7  1  0.15141963  0.75252886  0.03539845  1
  Li  Li8  1  0.58190324  0.94603409  0.01608324  1
  Li  Li9  1  0.34755821  0.88133670  0.07086106  1
  Li  Li10  1  0.36821983  0.39285611  0.07095008  1
  Li  Li11  1  0.84785394  0.42325581  0.99486143  1
  Li  Li12  1  0.61875788  0.49910964  0.11797703  1
  Li  Li13  1  0.61772116  0.80995382  0.12061510  1
  Li  Li14  1  0.60642248  0.28952889  0.12435494  1
  Li  Li15  1  0.60857758  0.02678726  0.10425258  1
  Li  Li16  1  0.11895346  0.02945083  0.10537375  1
  Li  Li17  1  0.12220633  0.28943350  0.12398375  1
  Li  Li18  1  0.11676035  0.80930612  0.12086119  1
  Li  Li19  1  0.11940630  0.49996338  0.11736150  1
  Li  Li20  1  0.87024263  0.67441485  0.07707680  1
  Li  Li21  1  0.36804386  0.62464044  0.15740268  1
  Li  Li22  1  0.36806487  0.13472635  0.15667995  1
  Li  Li23  1  0.85594029  0.16307551  0.08378177  1
  Li  Li24  1  0.61506315  0.26247325  0.20274153  1
  Li  Li25  1  0.61883603  0.57547943  0.20834299  1
  Li  Li26  1  0.62355686  0.05191242  0.21761718  1
  Li  Li27  1  0.61316376  0.78594738  0.19484424  1
  Li  Li28  1  0.11979137  0.78585746  0.19521312  1
  Li  Li29  1  0.11106421  0.05232583  0.21702760  1
  Li  Li30  1  0.11480202  0.57581669  0.20822559  1
  Li  Li31  1  0.11530277  0.26281042  0.20239713  1
  Li  Li32  1  0.86636039  0.44530416  0.16729645  1
  Li  Li33  1  0.36582733  0.38602058  0.24619036  1
  Li  Li34  1  0.36652098  0.91164518  0.23688701  1
  Li  Li35  1  0.86664520  0.92809881  0.17431008  1
  Li  Li36  1  0.61661344  0.02401685  0.29209123  1
  Li  Li37  1  0.61820923  0.33769732  0.29764125  1
  Li  Li38  1  0.62182747  0.81366106  0.30533617  1
  Li  Li39  1  0.61432646  0.54822117  0.28323173  1
  Li  Li40  1  0.12455758  0.54806917  0.28289359  1
  Li  Li41  1  0.11796900  0.81359760  0.30563597  1
  Li  Li42  1  0.11873346  0.33755839  0.29760213  1
  Li  Li43  1  0.11926423  0.02398144  0.29184859  1
  Li  Li44  1  0.86773757  0.21423048  0.25396025  1
  Li  Li45  1  0.36814509  0.15488907  0.33292613  1
  Li  Li46  1  0.36897197  0.67174701  0.32635421  1
  Li  Li47  1  0.86903200  0.68910001  0.26322922  1
  Li  Li48  1  0.61501480  0.79078927  0.37945826  1
  Li  Li49  1  0.62245082  0.09993729  0.38225113  1
  Li  Li50  1  0.62034925  0.57085208  0.39514263  1
  Li  Li51  1  0.62350337  0.31088679  0.37564523  1
  Li  Li52  1  0.10797287  0.31065099  0.37583754  1
  Li  Li53  1  0.11035892  0.57440417  0.39599581  1
  Li  Li54  1  0.12006042  0.10071381  0.38207865  1
  Li  Li55  1  0.11678006  0.79034048  0.37983454  1
  Li  Li56  1  0.87070663  0.97398199  0.34298475  1
  Li  Li57  1  0.37169448  0.92609088  0.42325599  1
  Li  Li58  1  0.35717473  0.43631274  0.41631684  1
  Li  Li59  1  0.86634972  0.46563649  0.34366889  1
  Li  Li60  1  0.54166776  0.53385095  0.47052448  1
  Li  Li61  1  0.65191374  0.84772763  0.46495041  1
  Li  Li62  1  0.67659252  0.26680931  0.47606587  1
  Li  Li63  1  0.61072327  0.08335088  0.46335688  1
  Li  Li64  1  0.11107619  0.09180863  0.45919001  1
  Li  Li65  1  0.07131564  0.27236644  0.48147025  1
  Li  Li66  1  0.06966512  0.82593247  0.45203641  1
  Li  Li67  1  0.82988698  0.45585687  0.50655255  1
  Li  Li68  1  0.84737885  0.71927030  0.42918744  1
  Li  Li69  1  0.08171480  0.65442072  0.48420911  1
  Li  Li70  1  0.34760126  0.17561049  0.50525222  1
  Li  Li71  1  0.87007826  0.20720411  0.42912103  1
  Li  Li72  1  0.93032324  0.32592802  0.54796488  1
  Li  Li73  1  0.17070032  0.95583364  0.49348469  1
  Li  Li74  1  0.88895135  0.59182623  0.54080700  1
  Li  Li75  1  0.92867112  0.77235871  0.51852599  1
  Li  Li76  1  0.32331020  0.76687995  0.52392249  1
  Li  Li77  1  0.38929734  0.58335151  0.53664118  1
  Li  Li78  1  0.45838643  0.03386103  0.52948167  1
  Li  Li79  1  0.34809081  0.34772812  0.53504608  1
  Li  Li80  1  0.91832931  0.15441411  0.51579714  1
  Li  Li81  1  0.15260606  0.21928551  0.57081168  1
  Li  Li82  1  0.13029103  0.70737188  0.57086101  1
  Li  Li83  1  0.65239879  0.67560595  0.49474495  1
  Li  Li84  1  0.88010192  0.60112723  0.61783324  1
  Li  Li85  1  0.88320662  0.29033713  0.62016139  1
  Li  Li86  1  0.89199311  0.81067228  0.62416104  1
  Li  Li87  1  0.88995787  0.07441592  0.60402391  1
  Li  Li88  1  0.37969503  0.07085346  0.60487035  1
  Li  Li89  1  0.37646508  0.81090824  0.62436540  1
  Li  Li90  1  0.38490398  0.29086761  0.62053120  1
  Li  Li91  1  0.37760984  0.59993605  0.61771923  1
  Li  Li92  1  0.62824068  0.42603719  0.57671147  1
  Li  Li93  1  0.12910248  0.47406550  0.65698203  1
  Li  Li94  1  0.13353374  0.96568715  0.65639705  1
  Li  Li95  1  0.64278230  0.93624542  0.58373754  1
  Li  Li96  1  0.88128932  0.83758786  0.70240320  1
  Li  Li97  1  0.88092331  0.52400216  0.70814343  1
  Li  Li98  1  0.87536376  0.04834168  0.71714998  1
  Li  Li99  1  0.88200566  0.31366292  0.69435806  1
  Li  Li100  1  0.37821412  0.31372714  0.69464876  1
  Li  Li101  1  0.38566907  0.04830773  0.71678653  1
  Li  Li102  1  0.38372721  0.52420839  0.70786828  1
  Li  Li103  1  0.38183737  0.83771526  0.70236469  1
  Li  Li104  1  0.63171379  0.65479051  0.66699895  1
  Li  Li105  1  0.13229402  0.71424645  0.74603250  1
  Li  Li106  1  0.13130780  0.18937033  0.73677301  1
  Li  Li107  1  0.63103763  0.17176416  0.67363905  1
  Li  Li108  1  0.88561872  0.07595336  0.79179770  1
  Li  Li109  1  0.88469347  0.76282308  0.79759876  1
  Li  Li110  1  0.88014630  0.28602115  0.80479209  1
  Li  Li111  1  0.88895182  0.55234861  0.78297704  1
  Li  Li112  1  0.37646882  0.55194078  0.78237792  1
  Li  Li113  1  0.38686741  0.28595880  0.80515511  1
  Li  Li114  1  0.38489794  0.76253378  0.79725288  1
  Li  Li115  1  0.38239808  0.07559955  0.79166289  1
  Li  Li116  1  0.63424103  0.88610130  0.75381196  1
  Li  Li117  1  0.13368348  0.94533630  0.83269973  1
  Li  Li118  1  0.13340800  0.42811487  0.82568829  1
  Li  Li119  1  0.63356834  0.41173930  0.76311806  1
  Li  Li120  1  0.88319313  0.30931371  0.87913989  1
  Li  Li121  1  0.88057068  0.99995800  0.88263647  1
  Li  Li122  1  0.88105961  0.52947211  0.89462411  1
  Li  Li123  1  0.87777842  0.78943189  0.87601410  1
  Li  Li124  1  0.39358704  0.78954974  0.87564282  1
  Li  Li125  1  0.39141568  0.52679199  0.89574904  1
  Li  Li126  1  0.38123434  0.99907851  0.88204499  1
  Li  Li127  1  0.38217832  0.30999140  0.87942395  1
  Li  Li128  1  0.63159640  0.12460455  0.84271286  1
  Li  Li129  1  0.12860883  0.17411759  0.92293250  1
  Li  Li130  1  0.14420235  0.66307090  0.91618227  1
  Li  Li131  1  0.63195956  0.63473084  0.84331339  1
  Li  Li132  1  0.95653369  0.56544406  0.97058665  1
  Li  Li133  1  0.84833632  0.25253565  0.96466383  1
  Li  Li134  1  0.82506782  0.83313522  0.97558256  1
  Li  Li135  1  0.89102308  0.01681997  0.96304186  1
  Li  Li136  1  0.38985100  0.00753654  0.95904399  1
  Li  Li137  1  0.43035844  0.82679750  0.98171490  1
  Li  Li138  1  0.43014591  0.27419084  0.95191945  1
  Li  Li139  1  0.67039774  0.64332333  0.00672294  1
  Li  Li140  1  0.65238488  0.38133183  0.92914552  1
  Li  Li141  1  0.41803675  0.44604712  0.98392104  1
  Li  Li142  1  0.15209556  0.92322647  0.00513917  1
  Li  Li143  1  0.63187039  0.89292391  0.92906319  1
  P  P144  1  0.86942466  0.89196420  0.06536577  1
  P  P145  1  0.86723783  0.37043942  0.07376510  1
  P  P146  1  0.36571938  0.65195664  0.08407023  1
  P  P147  1  0.86732470  0.65570548  0.15128948  1
  P  P148  1  0.86527357  0.13086675  0.15866151  1
  P  P149  1  0.36228935  0.18037946  0.06654318  1
  P  P150  1  0.36587396  0.41613858  0.17353242  1
  P  P151  1  0.86659094  0.41909021  0.23935804  1
  P  P152  1  0.86729865  0.89251540  0.24843882  1
  P  P153  1  0.36696273  0.94441602  0.16301785  1
  P  P154  1  0.36724528  0.18089317  0.26090354  1
  P  P155  1  0.86798639  0.18391803  0.32647008  1
  P  P156  1  0.86883971  0.65578386  0.33741575  1
  P  P157  1  0.36802075  0.70728246  0.25196203  1
  P  P158  1  0.36888336  0.94422012  0.34901912  1
  P  P159  1  0.86623985  0.94797977  0.41616846  1
  P  P160  1  0.86394177  0.41962428  0.43346838  1
  P  P161  1  0.36591358  0.46951754  0.34157531  1
  P  P162  1  0.36944748  0.70827067  0.43495488  1
  P  P163  1  0.36974734  0.22885659  0.42619607  1
  P  P164  1  0.63049734  0.20828582  0.56504611  1
  P  P165  1  0.63020500  0.72894502  0.57377571  1
  P  P166  1  0.13365558  0.44802403  0.58379966  1
  P  P167  1  0.63119983  0.44428205  0.65092722  1
  P  P168  1  0.63412809  0.96956815  0.65844746  1
  P  P169  1  0.13604907  0.91961436  0.56654592  1
  P  P170  1  0.13201597  0.68395050  0.67350765  1
  P  P171  1  0.63290718  0.68093574  0.73908592  1
  P  P172  1  0.63217857  0.20742484  0.74803036  1
  P  P173  1  0.13122743  0.15586198  0.66260260  1
  P  P174  1  0.13343596  0.91916728  0.76064711  1
  P  P175  1  0.63422962  0.91617304  0.82646649  1
  P  P176  1  0.63305998  0.44445963  0.83698726  1
  P  P177  1  0.13282883  0.39264756  0.75155156  1
  P  P178  1  0.13262555  0.15575362  0.84871757  1
  P  P179  1  0.63380939  0.15194794  0.91598402  1
  P  P180  1  0.63774492  0.68041701  0.93344968  1
  P  P181  1  0.13483545  0.63089575  0.84132356  1
  P  P182  1  0.13032716  0.39198406  0.93463983  1
  P  P183  1  0.13273197  0.87043942  0.92623631  1
  O  O184  1  0.56882903  0.64261092  0.06121955  1
  O  O185  1  0.56538572  0.11919714  0.07091713  1
  O  O186  1  0.15028503  0.12091024  0.06961719  1
  O  O187  1  0.15962923  0.63867756  0.06281986  1
  O  O188  1  0.87358181  0.79209676  0.05061030  1
  O  O189  1  0.16371602  0.04333228  0.98930237  1
  O  O190  1  0.36486322  0.43226618  0.02706810  1
  O  O191  1  0.87047777  0.33554200  0.03770332  1
  O  O192  1  0.36200752  0.84304951  0.02727115  1
  O  O193  1  0.87337911  0.96057700  0.03685982  1
  O  O194  1  0.36184852  0.22464403  0.03138167  1
  O  O195  1  0.57282700  0.40219760  0.15222410  1
  O  O196  1  0.65414676  0.90226272  0.08523532  1
  O  O197  1  0.66257609  0.42984423  0.08019679  1
  O  O198  1  0.57348745  0.88288673  0.16048846  1
  O  O199  1  0.16151744  0.88223186  0.16096809  1
  O  O200  1  0.07200553  0.42933945  0.08020087  1
  O  O201  1  0.06633919  0.90655909  0.08842541  1
  O  O202  1  0.15936204  0.40215154  0.15217282  1
  O  O203  1  0.86864908  0.55639945  0.13733859  1
  O  O204  1  0.36816626  0.75124101  0.09890141  1
  O  O205  1  0.36041193  0.25851485  0.09302410  1
  O  O206  1  0.86284929  0.08103668  0.12531759  1
  O  O207  1  0.37252668  0.58019504  0.11232015  1
  O  O208  1  0.86638858  0.72674479  0.12280568  1
  O  O209  1  0.86351924  0.28760769  0.09804484  1
  O  O210  1  0.36544046  0.01689067  0.13490862  1
  O  O211  1  0.57402680  0.16920279  0.23924094  1
  O  O212  1  0.65975707  0.66969503  0.17262534  1
  O  O213  1  0.65640797  0.19202339  0.16187087  1
  O  O214  1  0.57502883  0.64581157  0.24861737  1
  O  O215  1  0.16134878  0.64561401  0.24853766  1
  O  O216  1  0.07567249  0.19124788  0.16154087  1
  O  O217  1  0.07524532  0.67024255  0.17252021  1
  O  O218  1  0.16053764  0.16939107  0.23919386  1
  O  O219  1  0.86601355  0.32217541  0.22315500  1
  O  O220  1  0.36634896  0.51505095  0.18833281  1
  O  O221  1  0.36789171  0.99815871  0.19608825  1
  O  O222  1  0.86610006  0.84428940  0.21465166  1
  O  O223  1  0.36568472  0.34320705  0.20153452  1
  O  O224  1  0.86667958  0.49418700  0.21210662  1
  O  O225  1  0.86599767  0.05867207  0.18708678  1
  O  O226  1  0.36746071  0.78163386  0.22445607  1
  O  O227  1  0.57730510  0.92928808  0.32795270  1
  O  O228  1  0.66010240  0.43100390  0.26107335  1
  O  O229  1  0.66016921  0.95390262  0.25186779  1
  O  O230  1  0.57581791  0.40874284  0.33865495  1
  O  O231  1  0.15657485  0.40867938  0.33837419  1
  O  O232  1  0.07352770  0.95456621  0.25149850  1
  O  O233  1  0.07362610  0.43078521  0.26097498  1
  O  O234  1  0.16192224  0.93004159  0.32757052  1
  O  O235  1  0.86820144  0.08480000  0.31183806  1
  O  O236  1  0.36769927  0.27782698  0.27712203  1
  O  O237  1  0.36809999  0.75500442  0.28583733  1
  O  O238  1  0.86963594  0.60231575  0.30429504  1
  O  O239  1  0.36746172  0.10564287  0.28810368  1
  O  O240  1  0.86803354  0.25684557  0.29847323  1
  O  O241  1  0.86947289  0.81862144  0.27609978  1
  O  O242  1  0.36776413  0.54167163  0.31315231  1
  O  O243  1  0.56614977  0.69368732  0.41186640  1
  O  O244  1  0.66124822  0.19799449  0.34777160  1
  O  O245  1  0.66341431  0.71796535  0.33951936  1
  O  O246  1  0.57403863  0.16992441  0.41959176  1
  O  O247  1  0.16442589  0.16971204  0.41987487  1
  O  O248  1  0.07563841  0.71710034  0.34003190  1
  O  O249  1  0.07476238  0.19801486  0.34782146  1
  O  O250  1  0.15417169  0.69845438  0.41507547  1
  O  O251  1  0.86741312  0.84863562  0.40137664  1
  O  O252  1  0.37005799  0.04367201  0.36278223  1
  O  O253  1  0.36429045  0.51942034  0.37490399  1
  O  O254  1  0.86183223  0.34173956  0.40689147  1
  O  O255  1  0.36636499  0.87346494  0.37758884  1
  O  O256  1  0.87390739  0.01945023  0.38783876  1
  O  O257  1  0.86664474  0.58324980  0.36550094  1
  O  O258  1  0.36556898  0.31193391  0.40200279  1
  O  O259  1  0.66069395  0.96155321  0.43748151  1
  O  O260  1  0.65160888  0.47896121  0.43052550  1
  O  O261  1  0.06692569  0.48090092  0.42915126  1
  O  O262  1  0.06965984  0.95707955  0.43894007  1
  O  O263  1  0.66326147  0.55562009  0.51059445  1
  O  O264  1  0.37398992  0.80796556  0.44985752  1
  O  O265  1  0.37332073  0.26344753  0.46231132  1
  O  O266  1  0.86594934  0.16755299  0.47286049  1
  O  O267  1  0.37307994  0.63919598  0.46332155  1
  O  O268  1  0.86214031  0.75675529  0.47289423  1
  O  O269  1  0.86393324  0.37493394  0.46856695  1
  O  O270  1  0.93033812  0.45711190  0.56100169  1
  O  O271  1  0.93301755  0.98085483  0.57087166  1
  O  O272  1  0.34834219  0.97897319  0.56948829  1
  O  O273  1  0.33927661  0.46155805  0.56250084  1
  O  O274  1  0.62599681  0.30798352  0.55014798  1
  O  O275  1  0.33693350  0.05563188  0.48940053  1
  O  O276  1  0.13410480  0.66758183  0.52713510  1
  O  O277  1  0.62650422  0.76362156  0.53767468  1
  O  O278  1  0.13783078  0.25676193  0.52710321  1
  O  O279  1  0.62675075  0.13924428  0.53667019  1
  O  O280  1  0.13608290  0.87494517  0.53144236  1
  O  O281  1  0.92523250  0.69807389  0.65215757  1
  O  O282  1  0.84579973  0.19842605  0.58491785  1
  O  O283  1  0.83575716  0.66994715  0.58006275  1
  O  O284  1  0.92441375  0.21716605  0.65996809  1
  O  O285  1  0.33663878  0.21804712  0.66047034  1
  O  O286  1  0.42610041  0.66989109  0.58036808  1
  O  O287  1  0.43379345  0.19371671  0.58813629  1
  O  O288  1  0.33873004  0.69796912  0.65219359  1
  O  O289  1  0.63017808  0.54371051  0.63713158  1
  O  O290  1  0.13244158  0.34868682  0.59860296  1
  O  O291  1  0.13821136  0.84170809  0.59311134  1
  O  O292  1  0.63580288  0.01948101  0.62511884  1
  O  O293  1  0.12591702  0.51953280  0.61211479  1
  O  O294  1  0.63366199  0.37346752  0.62237560  1
  O  O295  1  0.63423359  0.81193506  0.59800682  1
  O  O296  1  0.13345116  0.08324339  0.63454648  1
  O  O297  1  0.92628671  0.93091125  0.73905280  1
  O  O298  1  0.83811429  0.43011519  0.67238865  1
  O  O299  1  0.84347102  0.90871952  0.66163728  1
  O  O300  1  0.92655422  0.45468378  0.74851796  1
  O  O301  1  0.33994759  0.45403582  0.74811363  1
  O  O302  1  0.42423595  0.90877628  0.66136153  1
  O  O303  1  0.42276638  0.42940876  0.67199621  1
  O  O304  1  0.33986082  0.93102189  0.73891061  1
  O  O305  1  0.63247970  0.77789805  0.72289189  1
  O  O306  1  0.13182844  0.58485086  0.68814649  1
  O  O307  1  0.13045928  0.10252546  0.69574885  1
  O  O308  1  0.63196445  0.25510133  0.71414978  1
  O  O309  1  0.13205234  0.75689656  0.70149704  1
  O  O310  1  0.63275428  0.60572578  0.71186810  1
  O  O311  1  0.63225691  0.04171755  0.68687069  1
  O  O312  1  0.13057345  0.31880905  0.72387245  1
  O  O313  1  0.92466869  0.17033808  0.82749888  1
  O  O314  1  0.83957569  0.66939187  0.76080058  1
  O  O315  1  0.83890743  0.14580849  0.75146576  1
  O  O316  1  0.92438069  0.69124705  0.83844483  1
  O  O317  1  0.34367347  0.69206650  0.83810864  1
  O  O318  1  0.42528724  0.14589557  0.75138579  1
  O  O319  1  0.42608698  0.66922046  0.76073805  1
  O  O320  1  0.34023155  0.16972022  0.82738278  1
  O  O321  1  0.63400952  0.01509924  0.81167243  1
  O  O322  1  0.13394701  0.82222260  0.77683947  1
  O  O323  1  0.13406166  0.34434592  0.78532630  1
  O  O324  1  0.63207202  0.49821060  0.80392053  1
  O  O325  1  0.13373618  0.99426811  0.78789771  1
  O  O326  1  0.63428832  0.84325100  0.79846236  1
  O  O327  1  0.63261993  0.28179786  0.77552957  1
  O  O328  1  0.13411900  0.55867683  0.81290635  1
  O  O329  1  0.93349295  0.40659517  0.91156180  1
  O  O330  1  0.84072052  0.90214677  0.84782618  1
  O  O331  1  0.83861157  0.38233108  0.83902645  1
  O  O332  1  0.92801972  0.92937280  0.91979943  1
  O  O333  1  0.33742184  0.92983121  0.91981375  1
  O  O334  1  0.42662157  0.38288144  0.83952207  1
  O  O335  1  0.42726256  0.90229386  0.84777675  1
  O  O336  1  0.34566510  0.40231349  0.91478362  1
  O  O337  1  0.63168609  0.25121579  0.90113778  1
  O  O338  1  0.13132334  0.05643446  0.86266768  1
  O  O339  1  0.13725575  0.58108001  0.87467014  1
  O  O340  1  0.63953776  0.75856896  0.90697457  1
  O  O341  1  0.13357331  0.22673452  0.87722117  1
  O  O342  1  0.62738597  0.08016681  0.88773645  1
  O  O343  1  0.63452441  0.51692447  0.86509721  1
  O  O344  1  0.13645143  0.78762644  0.90195044  1
  O  O345  1  0.83965079  0.13864604  0.93728936  1
  O  O346  1  0.84979695  0.62099108  0.93037039  1
  O  O347  1  0.43469867  0.61921265  0.92906731  1
  O  O348  1  0.43051565  0.14263299  0.93878664  1
  O  O349  1  0.83592987  0.54335291  0.01070961  1
  O  O350  1  0.12607047  0.29211101  0.94938651  1
  O  O351  1  0.12942705  0.83554259  0.96229676  1
  O  O352  1  0.63493458  0.93226218  0.97294082  1
  O  O353  1  0.12624868  0.46060174  0.96314505  1
  O  O354  1  0.63776941  0.34308469  0.97274150  1
  O  O355  1  0.63814775  0.72465157  0.96861815  1
