# generated using pymatgen
data_Li3PO4
_symmetry_space_group_name_H-M   'P 1'
_cell_length_a   6.15119200
_cell_length_b   14.50933100
_cell_length_c   44.02476265
_cell_angle_alpha   90.00000000
_cell_angle_beta   90.00000000
_cell_angle_gamma   90.00000000
_symmetry_Int_Tables_number   1
_chemical_formula_structural   Li3PO4
_chemical_formula_sum   'Li144 P48 O192'
_cell_volume   3929.19601279
_cell_formula_units_Z   48
loop_
 _symmetry_equiv_pos_site_id
 _symmetry_equiv_pos_as_xyz
  1  'x, y, z'
loop_
 _atom_site_type_symbol
 _atom_site_label
 _atom_site_symmetry_multiplicity
 _atom_site_fract_x
 _atom_site_fract_y
 _atom_site_fract_z
 _atom_site_occupancy
  Li  Li0  1  0.02386074  0.29768810  0.99702844  1
  Li  Li1  1  0.98436613  0.54686322  0.00911617  1
  Li  Li2  1  0.02253708  0.06611885  0.01813747  1
  Li  Li3  1  0.97503855  0.76158213  0.99372855  1
  Li  Li4  1  0.75049635  0.72601433  0.04650105  1
  Li  Li5  1  0.26114123  0.91159124  0.04353635  1
  Li  Li6  1  0.25012063  0.42837963  0.03889882  1
  Li  Li7  1  0.74830118  0.22028572  0.05310563  1
  Li  Li8  1  0.50146279  0.53750702  0.08216100  1
  Li  Li9  1  0.50819265  0.85249158  0.08566192  1
  Li  Li10  1  0.49971177  0.32761185  0.09997780  1
  Li  Li11  1  0.50514619  0.06992912  0.07363188  1
  Li  Li12  1  0.99640021  0.07091563  0.07662674  1
  Li  Li13  1  0.99610764  0.32790934  0.10036856  1
  Li  Li14  1  0.00000215  0.85187034  0.08533228  1
  Li  Li15  1  0.00189798  0.53775779  0.08223169  1
  Li  Li16  1  0.75032215  0.49073048  0.13041344  1
  Li  Li17  1  0.25278262  0.66452528  0.12023040  1
  Li  Li18  1  0.25118985  0.18480519  0.11694387  1
  Li  Li19  1  0.75067779  0.96736696  0.13805493  1
  Li  Li20  1  0.49851257  0.30295999  0.16711303  1
  Li  Li21  1  0.50411361  0.61869316  0.16957624  1
  Li  Li22  1  0.50010356  0.09250414  0.17847472  1
  Li  Li23  1  0.50008466  0.82658439  0.15624505  1
  Li  Li24  1  0.00424959  0.82696692  0.15615936  1
  Li  Li25  1  0.00025781  0.09253883  0.17846152  1
  Li  Li26  1  0.99865342  0.61892556  0.16947345  1
  Li  Li27  1  0.00543483  0.30228957  0.16715259  1
  Li  Li28  1  0.75191028  0.25270097  0.21397725  1
  Li  Li29  1  0.25251669  0.42975765  0.20542549  1
  Li  Li30  1  0.25178720  0.95139821  0.19618715  1
  Li  Li31  1  0.75230070  0.73123594  0.22070360  1
  Li  Li32  1  0.50270868  0.06560806  0.24809550  1
  Li  Li33  1  0.50630205  0.38092311  0.25256216  1
  Li  Li34  1  0.50431361  0.85689593  0.26007305  1
  Li  Li35  1  0.49997357  0.59069079  0.23937456  1
  Li  Li36  1  0.00661046  0.59056795  0.23908800  1
  Li  Li37  1  0.99994653  0.85707226  0.26006054  1
  Li  Li38  1  0.99970096  0.38107894  0.25225781  1
  Li  Li39  1  0.00476285  0.06557745  0.24807659  1
  Li  Li40  1  0.75332285  0.01790099  0.29589047  1
  Li  Li41  1  0.25277854  0.19137131  0.28770461  1
  Li  Li42  1  0.25175782  0.71460886  0.27839374  1
  Li  Li43  1  0.75292001  0.49290323  0.30401543  1
  Li  Li44  1  0.50245680  0.82891197  0.32896249  1
  Li  Li45  1  0.50375944  0.14543332  0.33520251  1
  Li  Li46  1  0.50452930  0.61798393  0.34230038  1
  Li  Li47  1  0.50006667  0.35266634  0.32294755  1
  Li  Li48  1  0.00772085  0.35273078  0.32261925  1
  Li  Li49  1  0.99812271  0.61827447  0.34263764  1
  Li  Li50  1  0.00035331  0.14501235  0.33497617  1
  Li  Li51  1  0.00647654  0.82996562  0.32888145  1
  Li  Li52  1  0.75632789  0.78347792  0.37581762  1
  Li  Li53  1  0.25800584  0.95463508  0.36904928  1
  Li  Li54  1  0.25181454  0.47728418  0.36225154  1
  Li  Li55  1  0.75206300  0.25688524  0.38732642  1
  Li  Li56  1  0.49571694  0.59432168  0.41001045  1
  Li  Li57  1  0.50572321  0.90527105  0.41766208  1
  Li  Li58  1  0.49801765  0.37728746  0.42845242  1
  Li  Li59  1  0.49464080  0.11325281  0.40385293  1
  Li  Li60  1  0.01039222  0.11416123  0.40305398  1
  Li  Li61  1  0.99665304  0.37902065  0.42988553  1
  Li  Li62  1  0.01312646  0.90923920  0.41636704  1
  Li  Li63  1  0.99781360  0.59490350  0.41182383  1
  Li  Li64  1  0.70456894  0.56292339  0.45954464  1
  Li  Li65  1  0.26296280  0.75127402  0.44331126  1
  Li  Li66  1  0.24712922  0.22991418  0.44669042  1
  Li  Li67  1  0.75364730  0.02987029  0.45189144  1
  Li  Li68  1  0.97517929  0.86603184  0.49184028  1
  Li  Li69  1  0.98353215  0.07944541  0.50909462  1
  Li  Li70  1  0.01042666  0.64074838  0.48119000  1
  Li  Li71  1  0.01712152  0.33161115  0.49754426  1
  Li  Li72  1  0.47489099  0.32719393  0.49671488  1
  Li  Li73  1  0.51390582  0.07840894  0.50906527  1
  Li  Li74  1  0.47596877  0.55864728  0.51797893  1
  Li  Li75  1  0.51967678  0.86519881  0.49290788  1
  Li  Li76  1  0.74477941  0.89836927  0.54645880  1
  Li  Li77  1  0.23922609  0.71311453  0.54358148  1
  Li  Li78  1  0.24871653  0.19810806  0.54056897  1
  Li  Li79  1  0.75000587  0.40366841  0.55296460  1
  Li  Li80  1  0.99762905  0.08604252  0.58211843  1
  Li  Li81  1  0.98894312  0.77190877  0.58547304  1
  Li  Li82  1  0.99927115  0.29768040  0.60002576  1
  Li  Li83  1  0.99172682  0.55541885  0.57346097  1
  Li  Li84  1  0.50194648  0.55498044  0.57652776  1
  Li  Li85  1  0.50348267  0.29728211  0.60042969  1
  Li  Li86  1  0.49795279  0.77365203  0.58583057  1
  Li  Li87  1  0.49736890  0.08526890  0.58209389  1
  Li  Li88  1  0.74798038  0.13335156  0.63029030  1
  Li  Li89  1  0.24634551  0.96000625  0.62032572  1
  Li  Li90  1  0.24823493  0.44023517  0.61640562  1
  Li  Li91  1  0.74825217  0.65636095  0.63805462  1
  Li  Li92  1  0.00085644  0.32241308  0.66674722  1
  Li  Li93  1  0.99300596  0.00602877  0.66944957  1
  Li  Li94  1  0.99870252  0.53263744  0.67894972  1
  Li  Li95  1  0.99982433  0.79795170  0.65618794  1
  Li  Li96  1  0.49592580  0.79805029  0.65632885  1
  Li  Li97  1  0.49742178  0.53262816  0.67879715  1
  Li  Li98  1  0.50064844  0.00612153  0.66919364  1
  Li  Li99  1  0.49253202  0.32246121  0.66711981  1
  Li  Li100  1  0.74763886  0.37069502  0.71396431  1
  Li  Li101  1  0.24762659  0.19549331  0.70510171  1
  Li  Li102  1  0.24828316  0.67455761  0.69636263  1
  Li  Li103  1  0.74802326  0.89433925  0.72130402  1
  Li  Li104  1  0.99989564  0.55961576  0.74806347  1
  Li  Li105  1  0.99554357  0.24345519  0.75268658  1
  Li  Li106  1  0.99605770  0.76827553  0.76015532  1
  Li  Li107  1  0.00050081  0.03542479  0.73973091  1
  Li  Li108  1  0.49372619  0.03530088  0.73950719  1
  Li  Li109  1  0.50006679  0.76838187  0.76010201  1
  Li  Li110  1  0.50053773  0.24392018  0.75291101  1
  Li  Li111  1  0.49787570  0.55956073  0.74816951  1
  Li  Li112  1  0.74926752  0.60717148  0.79603631  1
  Li  Li113  1  0.24767336  0.43343701  0.78777225  1
  Li  Li114  1  0.24810838  0.91056958  0.77886197  1
  Li  Li115  1  0.74724060  0.13174951  0.80434060  1
  Li  Li116  1  0.99893545  0.79616972  0.82948838  1
  Li  Li117  1  0.99719514  0.47990888  0.83528345  1
  Li  Li118  1  0.99385015  0.00720489  0.84296453  1
  Li  Li119  1  0.00018420  0.27217435  0.82297854  1
  Li  Li120  1  0.49406537  0.27275275  0.82284321  1
  Li  Li121  1  0.50174802  0.00664836  0.84323562  1
  Li  Li122  1  0.50067475  0.48027282  0.83509078  1
  Li  Li123  1  0.49614106  0.79490288  0.82916643  1
  Li  Li124  1  0.74609462  0.84143121  0.87609590  1
  Li  Li125  1  0.24300927  0.67048539  0.86912055  1
  Li  Li126  1  0.24875192  0.14817477  0.86278967  1
  Li  Li127  1  0.75006222  0.36899841  0.88790778  1
  Li  Li128  1  0.00656726  0.03080319  0.91039657  1
  Li  Li129  1  0.99380543  0.71919526  0.91762917  1
  Li  Li130  1  0.00273960  0.24661493  0.92861591  1
  Li  Li131  1  0.00911079  0.51117041  0.90387601  1
  Li  Li132  1  0.49118211  0.51098420  0.90330917  1
  Li  Li133  1  0.50392707  0.24769884  0.93003759  1
  Li  Li134  1  0.48878417  0.71556729  0.91645938  1
  Li  Li135  1  0.50471084  0.03012439  0.91209865  1
  Li  Li136  1  0.79701541  0.06216630  0.95991143  1
  Li  Li137  1  0.23708403  0.87303875  0.94357112  1
  Li  Li138  1  0.25236586  0.39394440  0.94645110  1
  Li  Li139  1  0.74917647  0.59508564  0.95200756  1
  Li  Li140  1  0.51775071  0.75593002  0.99144474  1
  Li  Li141  1  0.51714574  0.54570250  0.00907094  1
  Li  Li142  1  0.49104560  0.98379047  0.98145410  1
  Li  Li143  1  0.48267185  0.29220607  0.99787979  1
  P  P144  1  0.25150193  0.69346803  0.04965178  1
  P  P145  1  0.75503118  0.93354799  0.03053291  1
  P  P146  1  0.75085364  0.40137592  0.04556219  1
  P  P147  1  0.25163058  0.22830756  0.05018531  1
  P  P148  1  0.25090002  0.46206915  0.13783049  1
  P  P149  1  0.75239777  0.69721927  0.11444884  1
  P  P150  1  0.74948429  0.16802335  0.12736297  1
  P  P151  1  0.25190825  0.98326195  0.12679415  1
  P  P152  1  0.25242512  0.22192489  0.22045487  1
  P  P153  1  0.75210718  0.46127005  0.19849746  1
  P  P154  1  0.75191162  0.93383753  0.20715209  1
  P  P155  1  0.25193623  0.74967260  0.20971021  1
  P  P156  1  0.25351763  0.98593371  0.30193862  1
  P  P157  1  0.75300207  0.22403642  0.28127703  1
  P  P158  1  0.75253657  0.69692349  0.28914014  1
  P  P159  1  0.25198595  0.51160965  0.29286718  1
  P  P160  1  0.25361693  0.74876838  0.38243555  1
  P  P161  1  0.75436522  0.98652882  0.36264157  1
  P  P162  1  0.75271891  0.45836976  0.37294086  1
  P  P163  1  0.25012430  0.27483097  0.37663056  1
  P  P164  1  0.24764551  0.50326143  0.46401863  1
  P  P165  1  0.75345692  0.75753647  0.44221674  1
  P  P166  1  0.74979118  0.20400460  0.45688451  1
  P  P167  1  0.25120993  0.03350421  0.45855013  1
  P  P168  1  0.24670419  0.93074489  0.54968328  1
  P  P169  1  0.74456842  0.69132697  0.53016602  1
  P  P170  1  0.74819715  0.22356512  0.54561376  1
  P  P171  1  0.24718749  0.39643428  0.55011852  1
  P  P172  1  0.24778602  0.16295373  0.63760800  1
  P  P173  1  0.74693011  0.92746089  0.61433655  1
  P  P174  1  0.74928015  0.45745144  0.62753454  1
  P  P175  1  0.24677107  0.64173180  0.62679425  1
  P  P176  1  0.24762678  0.40274543  0.72060415  1
  P  P177  1  0.74736081  0.16399083  0.69848559  1
  P  P178  1  0.74832836  0.69150638  0.70724293  1
  P  P179  1  0.24783070  0.87624850  0.70979680  1
  P  P180  1  0.24787403  0.63955222  0.80210316  1
  P  P181  1  0.74820666  0.40118370  0.78132397  1
  P  P182  1  0.74763744  0.92826598  0.78963433  1
  P  P183  1  0.24796901  0.11329475  0.79327823  1
  P  P184  1  0.24793793  0.87625163  0.88284190  1
  P  P185  1  0.74694787  0.63843128  0.86286235  1
  P  P186  1  0.74760682  0.16710998  0.87332066  1
  P  P187  1  0.25086140  0.35036052  0.87664544  1
  P  P188  1  0.25430950  0.12198400  0.96434359  1
  P  P189  1  0.74751912  0.86734807  0.94248390  1
  P  P190  1  0.75066127  0.42061716  0.95692445  1
  P  P191  1  0.24923685  0.59104277  0.95875556  1
  O  O192  1  0.45950501  0.68094536  0.02958006  1
  O  O193  1  0.55388652  0.94794103  0.05177953  1
  O  O194  1  0.54624388  0.46600463  0.04475353  1
  O  O195  1  0.45939334  0.17057689  0.04610847  1
  O  O196  1  0.04434392  0.16677284  0.04528791  1
  O  O197  1  0.95469109  0.46637727  0.04491547  1
  O  O198  1  0.96839909  0.95591320  0.04919773  1
  O  O199  1  0.04275308  0.67998831  0.02987067  1
  O  O200  1  0.75773567  0.83206204  0.01968936  1
  O  O201  1  0.75233715  0.32949608  0.01969121  1
  O  O202  1  0.74913788  0.00403688  0.00389813  1
  O  O203  1  0.24779885  0.30977678  0.02748659  1
  O  O204  1  0.45667250  0.44977327  0.11765572  1
  O  O205  1  0.54518747  0.71047768  0.13438751  1
  O  O206  1  0.54285298  0.22912754  0.13117356  1
  O  O207  1  0.45799966  0.92121495  0.12351831  1
  O  O208  1  0.04436118  0.92197477  0.12307291  1
  O  O209  1  0.95659327  0.22873141  0.13134865  1
  O  O210  1  0.95962272  0.71029607  0.13438918  1
  O  O211  1  0.04427608  0.44991248  0.11783253  1
  O  O212  1  0.75159167  0.59927039  0.10022479  1
  O  O213  1  0.25124385  0.79326873  0.06353750  1
  O  O214  1  0.24367379  0.27005500  0.08282322  1
  O  O215  1  0.74956513  0.12025566  0.09597860  1
  O  O216  1  0.25262466  0.62202693  0.07632166  1
  O  O217  1  0.75302363  0.77067784  0.08842712  1
  O  O218  1  0.74933791  0.34506258  0.07566205  1
  O  O219  1  0.25344057  0.05744747  0.10123810  1
  O  O220  1  0.45883611  0.20895383  0.20036691  1
  O  O221  1  0.54547519  0.47397037  0.21862962  1
  O  O222  1  0.54445648  0.99489601  0.21054313  1
  O  O223  1  0.45905510  0.68827360  0.20680963  1
  O  O224  1  0.04496319  0.68823145  0.20671831  1
  O  O225  1  0.95932873  0.99488708  0.21061559  1
  O  O226  1  0.95946331  0.47403852  0.21847624  1
  O  O227  1  0.04509307  0.20873066  0.20054842  1
  O  O228  1  0.75207996  0.36280626  0.18461595  1
  O  O229  1  0.25159562  0.56040564  0.15183876  1
  O  O230  1  0.25038439  0.03106022  0.15844979  1
  O  O231  1  0.75219370  0.88559267  0.17556983  1
  O  O232  1  0.25144260  0.38743885  0.16341339  1
  O  O233  1  0.75148982  0.53517915  0.17270265  1
  O  O234  1  0.74956905  0.09280434  0.15275700  1
  O  O235  1  0.25198038  0.82266170  0.18366018  1
  O  O236  1  0.46025129  0.97359655  0.28183963  1
  O  O237  1  0.54601846  0.23632950  0.30136407  1
  O  O238  1  0.54530526  0.75829032  0.29204584  1
  O  O239  1  0.45937802  0.45023240  0.29018319  1
  O  O240  1  0.04536814  0.44997811  0.28988280  1
  O  O241  1  0.95915085  0.75858046  0.29212706  1
  O  O242  1  0.96016140  0.23636446  0.30129155  1
  O  O243  1  0.04606585  0.97320136  0.28199215  1
  O  O244  1  0.75322250  0.12631585  0.26673900  1
  O  O245  1  0.25263336  0.32029683  0.23446575  1
  O  O246  1  0.25171467  0.79868539  0.24109801  1
  O  O247  1  0.75317695  0.64817465  0.25773522  1
  O  O248  1  0.25337234  0.14778682  0.24611455  1
  O  O249  1  0.75275422  0.29849288  0.25568756  1
  O  O250  1  0.75186083  0.85971274  0.23285987  1
  O  O251  1  0.25262645  0.58478305  0.26682624  1
  O  O252  1  0.46171958  0.73735478  0.36276482  1
  O  O253  1  0.54925341  0.99694420  0.38324612  1
  O  O254  1  0.54649360  0.52069840  0.37439561  1
  O  O255  1  0.45759332  0.21304021  0.37355564  1
  O  O256  1  0.04309514  0.21319722  0.37295859  1
  O  O257  1  0.95863795  0.52084039  0.37545929  1
  O  O258  1  0.96341176  0.99751817  0.38242681  1
  O  O259  1  0.04785231  0.73935470  0.36222501  1
  O  O260  1  0.75339755  0.89049910  0.34705890  1
  O  O261  1  0.25283469  0.08334099  0.31665680  1
  O  O262  1  0.25056547  0.56083825  0.32420752  1
  O  O263  1  0.75530003  0.40769661  0.34175043  1
  O  O264  1  0.25479272  0.91100288  0.32737587  1
  O  O265  1  0.75174349  0.06325433  0.33783948  1
  O  O266  1  0.75224812  0.62352999  0.31507350  1
  O  O267  1  0.25270504  0.34794575  0.35060669  1
  O  O268  1  0.44662285  0.50782228  0.44188075  1
  O  O269  1  0.54420510  0.77816543  0.46041953  1
  O  O270  1  0.54312953  0.26493061  0.45820005  1
  O  O271  1  0.46138730  0.97231680  0.45718219  1
  O  O272  1  0.04442298  0.96937919  0.45719484  1
  O  O273  1  0.95311457  0.26676338  0.45866193  1
  O  O274  1  0.96780509  0.76331749  0.46187182  1
  O  O275  1  0.02351350  0.51996288  0.44776361  1
  O  O276  1  0.74218075  0.65966536  0.42816308  1
  O  O277  1  0.25791691  0.84423359  0.39896170  1
  O  O278  1  0.24655458  0.32178463  0.40821982  1
  O  O279  1  0.75286901  0.15101858  0.42547346  1
  O  O280  1  0.24843473  0.67364888  0.40760774  1
  O  O281  1  0.76848040  0.83119228  0.41648422  1
  O  O282  1  0.75080102  0.38667099  0.39948609  1
  O  O283  1  0.24896551  0.09877723  0.43034799  1
  O  O284  1  0.27344183  0.58168453  0.48784834  1
  O  O285  1  0.24865082  0.09210649  0.48780620  1
  O  O286  1  0.24603128  0.40527916  0.47669653  1
  O  O287  1  0.75012851  0.12628358  0.48152101  1
  O  O288  1  0.03836906  0.94327072  0.52972045  1
  O  O289  1  0.94556695  0.67727612  0.55149419  1
  O  O290  1  0.95289823  0.15895624  0.54492202  1
  O  O291  1  0.03913404  0.45416271  0.54631841  1
  O  O292  1  0.45411717  0.45825657  0.54535801  1
  O  O293  1  0.54433143  0.15851319  0.54507670  1
  O  O294  1  0.53125624  0.66886642  0.54882208  1
  O  O295  1  0.45493915  0.94445706  0.52981084  1
  O  O296  1  0.74123029  0.79281556  0.51928036  1
  O  O297  1  0.74676449  0.29528271  0.51967283  1
  O  O298  1  0.75153713  0.62061227  0.50361806  1
  O  O299  1  0.25090846  0.31527714  0.52728773  1
  O  O300  1  0.04189029  0.17526405  0.61746069  1
  O  O301  1  0.95406429  0.91427835  0.63426245  1
  O  O302  1  0.95634122  0.39637075  0.63097863  1
  O  O303  1  0.04078071  0.70385861  0.62348666  1
  O  O304  1  0.45472161  0.70288564  0.62314023  1
  O  O305  1  0.54240172  0.39645242  0.63128919  1
  O  O306  1  0.53972581  0.91452150  0.63429354  1
  O  O307  1  0.45443419  0.17483115  0.61759601  1
  O  O308  1  0.74747634  0.02536258  0.60012391  1
  O  O309  1  0.24787945  0.83111830  0.56367520  1
  O  O310  1  0.25568816  0.35382456  0.58265657  1
  O  O311  1  0.74840100  0.50660754  0.59637926  1
  O  O312  1  0.24634672  0.00215958  0.57638401  1
  O  O313  1  0.74559387  0.85411896  0.58831459  1
  O  O314  1  0.74963378  0.28038294  0.57561875  1
  O  O315  1  0.24488284  0.56779273  0.60116620  1
  O  O316  1  0.04064072  0.41559710  0.70061092  1
  O  O317  1  0.95437974  0.15143117  0.71856503  1
  O  O318  1  0.95619032  0.63066836  0.71070372  1
  O  O319  1  0.04047856  0.93750865  0.70694456  1
  O  O320  1  0.45496299  0.93762803  0.70685856  1
  O  O321  1  0.54092684  0.63043487  0.71072383  1
  O  O322  1  0.54060076  0.15150558  0.71860965  1
  O  O323  1  0.45412664  0.41578228  0.70053021  1
  O  O324  1  0.74731111  0.26224654  0.68444313  1
  O  O325  1  0.24685172  0.06465706  0.65168548  1
  O  O326  1  0.24817824  0.59416887  0.65849106  1
  O  O327  1  0.74784098  0.73947881  0.67563961  1
  O  O328  1  0.24749963  0.23768133  0.66318049  1
  O  O329  1  0.74727396  0.08993151  0.67272219  1
  O  O330  1  0.74936152  0.53164645  0.65324985  1
  O  O331  1  0.24785382  0.80329120  0.68370200  1
  O  O332  1  0.04139648  0.65206631  0.78196587  1
  O  O333  1  0.95479770  0.38880771  0.80148014  1
  O  O334  1  0.95478509  0.86686173  0.79250256  1
  O  O335  1  0.04058374  0.17466493  0.79045814  1
  O  O336  1  0.45463946  0.17499557  0.79036870  1
  O  O337  1  0.54106169  0.86652518  0.79242771  1
  O  O338  1  0.54073659  0.38903058  0.80130881  1
  O  O339  1  0.45557333  0.65229769  0.78220503  1
  O  O340  1  0.74877936  0.49895766  0.76683164  1
  O  O341  1  0.24803966  0.30451297  0.73471577  1
  O  O342  1  0.24813366  0.82702170  0.74118530  1
  O  O343  1  0.74750559  0.97748945  0.75828107  1
  O  O344  1  0.24812710  0.47721391  0.74617976  1
  O  O345  1  0.74841002  0.32652001  0.75580011  1
  O  O346  1  0.74823024  0.76562672  0.73296377  1
  O  O347  1  0.24784205  0.04034321  0.76717109  1
  O  O348  1  0.03960769  0.88782238  0.86320341  1
  O  O349  1  0.95212458  0.62781640  0.88342794  1
  O  O350  1  0.95375858  0.10471314  0.87489229  1
  O  O351  1  0.04383650  0.41237971  0.87355233  1
  O  O352  1  0.45813296  0.41189466  0.87306916  1
  O  O353  1  0.54169004  0.10461217  0.87582671  1
  O  O354  1  0.53786348  0.62740972  0.88264464  1
  O  O355  1  0.45365482  0.88552020  0.86262081  1
  O  O356  1  0.74825124  0.73465117  0.84740833  1
  O  O357  1  0.24807365  0.54207804  0.81679903  1
  O  O358  1  0.24879784  0.06402547  0.82460813  1
  O  O359  1  0.74553536  0.21753351  0.84208438  1
  O  O360  1  0.24645593  0.71429204  0.82762015  1
  O  O361  1  0.74934681  0.56204119  0.83796661  1
  O  O362  1  0.74727871  0.00143268  0.81564769  1
  O  O363  1  0.24802656  0.27722228  0.85065852  1
  O  O364  1  0.05522258  0.11697587  0.94220187  1
  O  O365  1  0.95640805  0.84690514  0.96079350  1
  O  O366  1  0.95683208  0.35940693  0.95832310  1
  O  O367  1  0.03941251  0.65220389  0.95715235  1
  O  O368  1  0.45637948  0.65516068  0.95745214  1
  O  O369  1  0.54674624  0.35824196  0.95871083  1
  O  O370  1  0.53286726  0.86116626  0.96204910  1
  O  O371  1  0.47834052  0.10527593  0.94809327  1
  O  O372  1  0.75903074  0.96523553  0.92845816  1
  O  O373  1  0.24314737  0.78068103  0.89929567  1
  O  O374  1  0.25332649  0.30336278  0.90825084  1
  O  O375  1  0.74905368  0.47332994  0.92544702  1
  O  O376  1  0.25348705  0.95133384  0.90801189  1
  O  O377  1  0.73326612  0.79373060  0.91671874  1
  O  O378  1  0.74947164  0.23892728  0.89982366  1
  O  O379  1  0.25284710  0.52554039  0.93062315  1
  O  O380  1  0.22845568  0.04378184  0.98824788  1
  O  O381  1  0.25091214  0.53278798  0.98809745  1
  O  O382  1  0.25494977  0.22011919  0.97686709  1
  O  O383  1  0.75030674  0.49853539  0.98148677  1
