# generated using pymatgen
data_Li3PO4
_symmetry_space_group_name_H-M   'P 1'
_cell_length_a   6.15119200
_cell_length_b   14.50933100
_cell_length_c   44.08682338
_cell_angle_alpha   90.00000000
_cell_angle_beta   90.00000000
_cell_angle_gamma   90.00000000
_symmetry_Int_Tables_number   1
_chemical_formula_structural   Li3PO4
_chemical_formula_sum   'Li144 P48 O192'
_cell_volume   3934.73491311
_cell_formula_units_Z   48
loop_
 _symmetry_equiv_pos_site_id
 _symmetry_equiv_pos_as_xyz
  1  'x, y, z'
loop_
 _atom_site_type_symbol
 _atom_site_label
 _atom_site_symmetry_multiplicity
 _atom_site_fract_x
 _atom_site_fract_y
 _atom_site_fract_z
 _atom_site_occupancy
  Li  Li0  1  0.08924738  0.29110145  0.98600721  1
  Li  Li1  1  0.05821195  0.53470462  0.01023860  1
  Li  Li2  1  0.07160188  0.05040878  0.00825651  1
  Li  Li3  1  0.05317387  0.77895206  0.99984988  1
  Li  Li4  1  0.33736811  0.88847593  0.05175759  1
  Li  Li5  1  0.33733541  0.37010316  0.04016085  1
  Li  Li6  1  0.58400090  0.50468297  0.08138541  1
  Li  Li7  1  0.59399210  0.81689966  0.08900458  1
  Li  Li8  1  0.59294717  0.29293559  0.09488639  1
  Li  Li9  1  0.58749767  0.04364247  0.07673628  1
  Li  Li10  1  0.08643556  0.04389499  0.07664256  1
  Li  Li11  1  0.08302019  0.29217246  0.09495846  1
  Li  Li12  1  0.08170239  0.81690945  0.08887562  1
  Li  Li13  1  0.09018841  0.50432581  0.08167684  1
  Li  Li14  1  0.83730036  0.68691585  0.04842626  1
  Li  Li15  1  0.33706052  0.62841528  0.12125452  1
  Li  Li16  1  0.33935071  0.14665609  0.12209431  1
  Li  Li17  1  0.83715603  0.18935252  0.03368044  1
  Li  Li18  1  0.58834498  0.26826725  0.16600584  1
  Li  Li19  1  0.58736430  0.58185234  0.16969547  1
  Li  Li20  1  0.59127364  0.05800040  0.18035520  1
  Li  Li21  1  0.58548745  0.79171534  0.15721844  1
  Li  Li22  1  0.08589654  0.79161282  0.15722767  1
  Li  Li23  1  0.08434409  0.05732439  0.18045993  1
  Li  Li24  1  0.08564952  0.58149123  0.16969215  1
  Li  Li25  1  0.09016855  0.26824938  0.16589082  1
  Li  Li26  1  0.83674519  0.45385753  0.12985662  1
  Li  Li27  1  0.33724660  0.39372049  0.20422426  1
  Li  Li28  1  0.33714232  0.91553285  0.19743525  1
  Li  Li29  1  0.83682696  0.93939978  0.13823743  1
  Li  Li30  1  0.58557553  0.03085905  0.24852171  1
  Li  Li31  1  0.59031449  0.34565321  0.25235387  1
  Li  Li32  1  0.58819428  0.82121917  0.26074218  1
  Li  Li33  1  0.58511783  0.55531791  0.23930346  1
  Li  Li34  1  0.09009772  0.55519527  0.23912129  1
  Li  Li35  1  0.08467590  0.82147093  0.26036045  1
  Li  Li36  1  0.08459294  0.34582931  0.25220684  1
  Li  Li37  1  0.08863396  0.03083210  0.24856138  1
  Li  Li38  1  0.83937260  0.21951856  0.21356686  1
  Li  Li39  1  0.33658585  0.15625628  0.28772607  1
  Li  Li40  1  0.33684382  0.67904077  0.27931273  1
  Li  Li41  1  0.83613288  0.69586416  0.22084989  1
  Li  Li42  1  0.58720976  0.79676559  0.33013790  1
  Li  Li43  1  0.58694169  0.11195189  0.33599726  1
  Li  Li44  1  0.58782058  0.58429707  0.34173816  1
  Li  Li45  1  0.58339520  0.31813121  0.32203298  1
  Li  Li46  1  0.09078038  0.31723172  0.32230561  1
  Li  Li47  1  0.08360314  0.58392930  0.34182724  1
  Li  Li48  1  0.08527284  0.11198700  0.33605243  1
  Li  Li49  1  0.08637225  0.79658350  0.33007394  1
  Li  Li50  1  0.83675273  0.98399426  0.29604284  1
  Li  Li51  1  0.33551290  0.92838109  0.36822724  1
  Li  Li52  1  0.33663880  0.44088273  0.36170831  1
  Li  Li53  1  0.83740017  0.45797331  0.30391696  1
  Li  Li54  1  0.58243776  0.56838761  0.40706803  1
  Li  Li55  1  0.58774030  0.87001749  0.41373857  1
  Li  Li56  1  0.58301361  0.34537852  0.42800387  1
  Li  Li57  1  0.57875456  0.08814401  0.40810582  1
  Li  Li58  1  0.09804723  0.08799821  0.40831856  1
  Li  Li59  1  0.09350232  0.34540232  0.42795232  1
  Li  Li60  1  0.08347570  0.86974071  0.41371653  1
  Li  Li61  1  0.09369192  0.56766143  0.40721216  1
  Li  Li62  1  0.83702778  0.74531910  0.37715161  1
  Li  Li63  1  0.33709132  0.68163309  0.45321815  1
  Li  Li64  1  0.33983625  0.19748260  0.46500859  1
  Li  Li65  1  0.83869129  0.22591949  0.38802012  1
  Li  Li66  1  0.55545076  0.34875545  0.50060182  1
  Li  Li67  1  0.55742014  0.58929512  0.51086009  1
  Li  Li68  1  0.57239325  0.07399024  0.50824156  1
  Li  Li69  1  0.58630719  0.83385964  0.48594241  1
  Li  Li70  1  0.83621817  0.51206354  0.44597857  1
  Li  Li71  1  0.83830185  0.99468320  0.45737776  1
  Li  Li72  1  0.08591650  0.83412341  0.48589225  1
  Li  Li73  1  0.11921445  0.58934117  0.51067894  1
  Li  Li74  1  0.10012519  0.07485776  0.50843345  1
  Li  Li75  1  0.12172036  0.34486320  0.49979402  1
  Li  Li76  1  0.83737955  0.23359817  0.55174777  1
  Li  Li77  1  0.83706152  0.75406200  0.54000753  1
  Li  Li78  1  0.58930741  0.61994462  0.58162525  1
  Li  Li79  1  0.58250917  0.30659424  0.58888188  1
  Li  Li80  1  0.58225412  0.83196142  0.59462896  1
  Li  Li81  1  0.58613064  0.07895121  0.57652033  1
  Li  Li82  1  0.08691386  0.07899523  0.57654783  1
  Li  Li83  1  0.09272957  0.83156472  0.59488380  1
  Li  Li84  1  0.09473851  0.30630130  0.58890610  1
  Li  Li85  1  0.08366790  0.61954740  0.58172409  1
  Li  Li86  1  0.33676036  0.43614806  0.54856563  1
  Li  Li87  1  0.83794964  0.49557252  0.62115678  1
  Li  Li88  1  0.83683490  0.97772487  0.62214981  1
  Li  Li89  1  0.33570600  0.93487985  0.53311536  1
  Li  Li90  1  0.58797416  0.85619938  0.66593653  1
  Li  Li91  1  0.58736305  0.54332989  0.66927056  1
  Li  Li92  1  0.58343557  0.06624637  0.68004841  1
  Li  Li93  1  0.58737917  0.33311925  0.65760306  1
  Li  Li94  1  0.08644852  0.33294010  0.65764593  1
  Li  Li95  1  0.08889056  0.06600835  0.68005632  1
  Li  Li96  1  0.09062828  0.54336461  0.66929066  1
  Li  Li97  1  0.08540171  0.85658870  0.66597917  1
  Li  Li98  1  0.33975156  0.67069377  0.62964853  1
  Li  Li99  1  0.83672772  0.73097891  0.70407661  1
  Li  Li100  1  0.83640573  0.20830421  0.69705093  1
  Li  Li101  1  0.33879567  0.18527998  0.63854574  1
  Li  Li102  1  0.58994495  0.09481427  0.74849286  1
  Li  Li103  1  0.58358614  0.77895061  0.75212917  1
  Li  Li104  1  0.58605105  0.30450350  0.76073334  1
  Li  Li105  1  0.58961151  0.56983051  0.73887450  1
  Li  Li106  1  0.08529610  0.57010530  0.73866365  1
  Li  Li107  1  0.09028542  0.30460277  0.76093382  1
  Li  Li108  1  0.08898352  0.77949430  0.75208131  1
  Li  Li109  1  0.08468837  0.09481504  0.74826489  1
  Li  Li110  1  0.33695588  0.90578566  0.71370861  1
  Li  Li111  1  0.83700051  0.96930572  0.78767786  1
  Li  Li112  1  0.83836005  0.44724371  0.77918853  1
  Li  Li113  1  0.33857471  0.42858331  0.72065777  1
  Li  Li114  1  0.58630844  0.33045976  0.83004406  1
  Li  Li115  1  0.58660607  0.01492232  0.83606199  1
  Li  Li116  1  0.58741834  0.54139870  0.84141461  1
  Li  Li117  1  0.59115040  0.80908934  0.82219918  1
  Li  Li118  1  0.08395769  0.80903968  0.82205242  1
  Li  Li119  1  0.09184199  0.54133555  0.84146687  1
  Li  Li120  1  0.08806910  0.01468180  0.83601961  1
  Li  Li121  1  0.08960672  0.32933470  0.83014033  1
  Li  Li122  1  0.33686378  0.14114241  0.79583866  1
  Li  Li123  1  0.83757388  0.19721295  0.86810549  1
  Li  Li124  1  0.83993608  0.68476106  0.86134312  1
  Li  Li125  1  0.33797633  0.66944652  0.80396562  1
  Li  Li126  1  0.59451030  0.55693637  0.90672843  1
  Li  Li127  1  0.58470863  0.25465972  0.91345933  1
  Li  Li128  1  0.59614781  0.77970704  0.92799627  1
  Li  Li129  1  0.59762530  0.03777882  0.90803895  1
  Li  Li130  1  0.07882895  0.03864522  0.90802494  1
  Li  Li131  1  0.08329652  0.77966894  0.92784787  1
  Li  Li132  1  0.09013072  0.25472065  0.91365829  1
  Li  Li133  1  0.08330821  0.55622267  0.90697255  1
  Li  Li134  1  0.33712314  0.38118960  0.87768019  1
  Li  Li135  1  0.84033858  0.44398213  0.95315984  1
  Li  Li136  1  0.83849713  0.92837780  0.96457690  1
  Li  Li137  1  0.33838078  0.89920387  0.88803236  1
  Li  Li138  1  0.62221171  0.78021660  0.99952027  1
  Li  Li139  1  0.61683037  0.53458182  0.01039824  1
  Li  Li140  1  0.60017287  0.05033386  0.00828033  1
  Li  Li141  1  0.58890026  0.29086932  0.98588666  1
  Li  Li142  1  0.33970722  0.61250848  0.94549788  1
  Li  Li143  1  0.33693470  0.13174374  0.95786980  1
  P  P144  1  0.83722060  0.90378176  0.04000435  1
  P  P145  1  0.83788110  0.37607375  0.04098602  1
  P  P146  1  0.33754594  0.19348024  0.04225670  1
  P  P147  1  0.33748508  0.66267258  0.05131308  1
  P  P148  1  0.83690872  0.66055524  0.11578065  1
  P  P149  1  0.83821962  0.13591218  0.12686379  1
  P  P150  1  0.33701970  0.95146159  0.12877104  1
  P  P151  1  0.33740057  0.42394883  0.13610763  1
  P  P152  1  0.83740235  0.42596737  0.19787429  1
  P  P153  1  0.83635588  0.89850186  0.20786367  1
  P  P154  1  0.33627181  0.71384769  0.20997084  1
  P  P155  1  0.33852909  0.18836669  0.22000386  1
  P  P156  1  0.83715722  0.18909482  0.28105924  1
  P  P157  1  0.83697138  0.66276831  0.28937663  1
  P  P158  1  0.33677536  0.47686907  0.29237892  1
  P  P159  1  0.33624982  0.95174695  0.30200055  1
  P  P160  1  0.83642186  0.95848978  0.36350150  1
  P  P161  1  0.83688162  0.42461179  0.37208675  1
  P  P162  1  0.33779510  0.24299576  0.37672561  1
  P  P163  1  0.33652302  0.71755973  0.38213482  1
  P  P164  1  0.83694064  0.71625407  0.44259285  1
  P  P165  1  0.83837535  0.19040131  0.46088473  1
  P  P166  1  0.33709069  0.98568728  0.45821841  1
  P  P167  1  0.33736878  0.48220866  0.45981447  1
  P  P168  1  0.33748594  0.21988461  0.53999664  1
  P  P169  1  0.33726512  0.74828201  0.54100459  1
  P  P170  1  0.83667936  0.93036059  0.54213639  1
  P  P171  1  0.83792841  0.46072193  0.55135171  1
  P  P172  1  0.33820696  0.46352453  0.61576435  1
  P  P173  1  0.33695392  0.98799095  0.62670325  1
  P  P174  1  0.83737041  0.17258643  0.62867353  1
  P  P175  1  0.83869949  0.70051115  0.63593234  1
  P  P176  1  0.33735086  0.69938798  0.69769648  1
  P  P177  1  0.33699493  0.22596226  0.70779693  1
  P  P178  1  0.83818214  0.41122861  0.70996544  1
  P  P179  1  0.83660531  0.93635286  0.71993558  1
  P  P180  1  0.33698925  0.93675335  0.78090948  1
  P  P181  1  0.33829670  0.46353111  0.78918524  1
  P  P182  1  0.83825232  0.64904330  0.79216898  1
  P  P183  1  0.83756302  0.17443427  0.80197420  1
  P  P184  1  0.33800113  0.16754706  0.86333418  1
  P  P185  1  0.33907704  0.70058670  0.87192614  1
  P  P186  1  0.83875873  0.88313040  0.87665231  1
  P  P187  1  0.83795041  0.40759728  0.88212354  1
  P  P188  1  0.33929810  0.40892800  0.94274134  1
  P  P189  1  0.33765364  0.93542992  0.96071834  1
  P  P190  1  0.83725068  0.13989051  0.95824904  1
  P  P191  1  0.83886790  0.64291346  0.95945253  1
  O  O192  1  0.54288995  0.64890898  0.03110185  1
  O  O193  1  0.62910189  0.43893404  0.04142709  1
  O  O194  1  0.54308155  0.13152023  0.04305855  1
  O  O195  1  0.13150740  0.13177094  0.04299123  1
  O  O196  1  0.04595661  0.43932778  0.04147869  1
  O  O197  1  0.13276986  0.64941848  0.03090518  1
  O  O198  1  0.83723164  0.80225991  0.03057495  1
  O  O199  1  0.83853742  0.31516055  0.01220899  1
  O  O200  1  0.83642226  0.96268818  0.01116800  1
  O  O201  1  0.33821477  0.25588127  0.01320019  1
  O  O202  1  0.54313849  0.41200601  0.11579717  1
  O  O203  1  0.62840591  0.92316177  0.05898569  1
  O  O204  1  0.63055209  0.19837371  0.12848981  1
  O  O205  1  0.54302283  0.88960057  0.12575252  1
  O  O206  1  0.13135680  0.88937861  0.12577030  1
  O  O207  1  0.04654396  0.19797883  0.12843303  1
  O  O208  1  0.04672229  0.92328973  0.05882290  1
  O  O209  1  0.13093977  0.41174841  0.11595632  1
  O  O210  1  0.83666395  0.56366499  0.10059809  1
  O  O211  1  0.33767063  0.76200313  0.06538733  1
  O  O212  1  0.33767358  0.26077849  0.07008588  1
  O  O213  1  0.83734282  0.07913098  0.09758788  1
  O  O214  1  0.33670066  0.59057152  0.07779887  1
  O  O215  1  0.83763685  0.73532608  0.09048007  1
  O  O216  1  0.83799821  0.31266350  0.06914481  1
  O  O217  1  0.33703403  0.02637351  0.10331878  1
  O  O218  1  0.54552183  0.17592531  0.19998789  1
  O  O219  1  0.62916419  0.67339750  0.13560125  1
  O  O220  1  0.62947167  0.95988908  0.21130063  1
  O  O221  1  0.54316554  0.65241786  0.20674414  1
  O  O222  1  0.12942562  0.65244206  0.20671402  1
  O  O223  1  0.04386057  0.95956271  0.21133481  1
  O  O224  1  0.04417302  0.67307678  0.13569676  1
  O  O225  1  0.13242075  0.17583931  0.19980563  1
  O  O226  1  0.83843805  0.32759135  0.18386988  1
  O  O227  1  0.33707715  0.52179705  0.15053761  1
  O  O228  1  0.33726332  0.00162522  0.16002827  1
  O  O229  1  0.83621579  0.85138713  0.17621453  1
  O  O230  1  0.33848914  0.34983654  0.16182801  1
  O  O231  1  0.83659325  0.49930256  0.17194146  1
  O  O232  1  0.83803725  0.06798348  0.15437591  1
  O  O233  1  0.33619876  0.78769172  0.18419630  1
  O  O234  1  0.54331248  0.93914963  0.28196362  1
  O  O235  1  0.63047898  0.43865081  0.21785907  1
  O  O236  1  0.63031816  0.72435599  0.29267728  1
  O  O237  1  0.54416120  0.41549196  0.28955785  1
  O  O238  1  0.12976941  0.41531224  0.28952208  1
  O  O239  1  0.04363721  0.72428352  0.29268002  1
  O  O240  1  0.04472668  0.43893765  0.21777591  1
  O  O241  1  0.12951537  0.93898149  0.28191014  1
  O  O242  1  0.83739791  0.09152488  0.26644212  1
  O  O243  1  0.33788169  0.28655540  0.23403836  1
  O  O244  1  0.33642783  0.76228250  0.24140196  1
  O  O245  1  0.83716780  0.61492787  0.25779760  1
  O  O246  1  0.33762424  0.11388456  0.24550930  1
  O  O247  1  0.83781413  0.26353725  0.25541225  1
  O  O248  1  0.83589948  0.82412788  0.23337900  1
  O  O249  1  0.33704604  0.54992080  0.26631747  1
  O  O250  1  0.54437672  0.70157006  0.36248942  1
  O  O251  1  0.62967220  0.20152955  0.30094892  1
  O  O252  1  0.63059520  0.48683334  0.37328079  1
  O  O253  1  0.54485014  0.18061390  0.37455497  1
  O  O254  1  0.13079471  0.18052230  0.37459026  1
  O  O255  1  0.04312161  0.48689458  0.37333386  1
  O  O256  1  0.04396123  0.20140422  0.30108253  1
  O  O257  1  0.12880160  0.70135615  0.36247633  1
  O  O258  1  0.83671178  0.85959857  0.34962499  1
  O  O259  1  0.33601694  0.04920025  0.31672521  1
  O  O260  1  0.33630914  0.52646361  0.32352335  1
  O  O261  1  0.83712272  0.37063531  0.34156088  1
  O  O262  1  0.33626577  0.87719042  0.32741461  1
  O  O263  1  0.83620406  0.03077406  0.33728128  1
  O  O264  1  0.83646791  0.58806455  0.31479404  1
  O  O265  1  0.33744047  0.31137838  0.34926761  1
  O  O266  1  0.54588051  0.48067209  0.43997692  1
  O  O267  1  0.62927220  0.97276414  0.38340650  1
  O  O268  1  0.63607792  0.25346447  0.46491432  1
  O  O269  1  0.55037448  0.93161217  0.45101726  1
  O  O270  1  0.12394314  0.93181277  0.45077596  1
  O  O271  1  0.04204839  0.25269818  0.46496041  1
  O  O272  1  0.04362942  0.97293610  0.38338250  1
  O  O273  1  0.12734188  0.48056173  0.44028675  1
  O  O274  1  0.83748782  0.62352636  0.42463887  1
  O  O275  1  0.33603977  0.81734908  0.39455456  1
  O  O276  1  0.33790291  0.29671465  0.40691367  1
  O  O277  1  0.83824545  0.14305176  0.42880981  1
  O  O278  1  0.33701173  0.64734864  0.40869873  1
  O  O279  1  0.83583849  0.79388838  0.41790895  1
  O  O280  1  0.83743729  0.35617389  0.39957594  1
  O  O281  1  0.33807683  0.07762899  0.43961930  1
  O  O282  1  0.63210169  0.72312823  0.46287585  1
  O  O283  1  0.04244196  0.72364745  0.46273298  1
  O  O284  1  0.33822714  0.56861128  0.48088905  1
  O  O285  1  0.33586314  0.99981049  0.49269562  1
  O  O286  1  0.33842622  0.39300120  0.47779946  1
  O  O287  1  0.83734693  0.10935835  0.48473363  1
  O  O288  1  0.63301544  0.47358573  0.53090098  1
  O  O289  1  0.54592868  0.68527417  0.54147723  1
  O  O290  1  0.63072186  0.99205657  0.54283715  1
  O  O291  1  0.04219069  0.99233931  0.54283081  1
  O  O292  1  0.12926854  0.68500410  0.54151535  1
  O  O293  1  0.04303491  0.47473685  0.53111136  1
  O  O294  1  0.33684397  0.32159831  0.53087247  1
  O  O295  1  0.33672991  0.80924221  0.51223807  1
  O  O296  1  0.33763627  0.16183547  0.51099871  1
  O  O297  1  0.83665718  0.86774630  0.51316547  1
  O  O298  1  0.63293910  0.71256328  0.61562529  1
  O  O299  1  0.54644601  0.20004184  0.55888369  1
  O  O300  1  0.54512165  0.92587587  0.62841328  1
  O  O301  1  0.63192513  0.23483855  0.62585831  1
  O  O302  1  0.04335288  0.23453758  0.62587990  1
  O  O303  1  0.12877038  0.92591547  0.62844154  1
  O  O304  1  0.12837288  0.19976120  0.55883026  1
  O  O305  1  0.04526464  0.71261548  0.61582203  1
  O  O306  1  0.33765803  0.56038612  0.60052269  1
  O  O307  1  0.83857701  0.36139290  0.56539904  1
  O  O308  1  0.83739587  0.86344339  0.57005286  1
  O  O309  1  0.33689084  0.04403968  0.59730666  1
  O  O310  1  0.83630388  0.53309044  0.57774941  1
  O  O311  1  0.33850316  0.38844098  0.59057749  1
  O  O312  1  0.33719034  0.81161075  0.56915533  1
  O  O313  1  0.83699133  0.09792033  0.60313771  1
  O  O314  1  0.63025251  0.94874765  0.69979577  1
  O  O315  1  0.54574835  0.45132169  0.63566369  1
  O  O316  1  0.54404752  0.16460292  0.71107472  1
  O  O317  1  0.63140922  0.47261904  0.70650920  1
  O  O318  1  0.04526082  0.47238385  0.70644426  1
  O  O319  1  0.12954073  0.16482769  0.71103644  1
  O  O320  1  0.13073949  0.45110041  0.63565475  1
  O  O321  1  0.04329585  0.94863359  0.69983681  1
  O  O322  1  0.33713590  0.79773098  0.68375082  1
  O  O323  1  0.83858047  0.60260182  0.65028958  1
  O  O324  1  0.83658584  0.12173520  0.65983325  1
  O  O325  1  0.33727077  0.27366463  0.67623310  1
  O  O326  1  0.83757184  0.77450890  0.66168448  1
  O  O327  1  0.33842338  0.62603895  0.67176085  1
  O  O328  1  0.33685043  0.05624182  0.65414101  1
  O  O329  1  0.83725199  0.33652668  0.68444449  1
  O  O330  1  0.63077205  0.18670983  0.78186215  1
  O  O331  1  0.54418059  0.68653733  0.71769148  1
  O  O332  1  0.54498410  0.40203748  0.79261868  1
  O  O333  1  0.63104839  0.71056893  0.78955039  1
  O  O334  1  0.04513560  0.71074397  0.78942846  1
  O  O335  1  0.13182889  0.40197353  0.79275941  1
  O  O336  1  0.12996343  0.68643269  0.71756175  1
  O  O337  1  0.04448021  0.18671736  0.78188137  1
  O  O338  1  0.33709861  0.03406628  0.76611209  1
  O  O339  1  0.83645431  0.83825836  0.73400687  1
  O  O340  1  0.83829116  0.36385352  0.74156676  1
  O  O341  1  0.33759372  0.51029000  0.75744319  1
  O  O342  1  0.83687090  0.01104137  0.74538712  1
  O  O343  1  0.33674098  0.86177980  0.75542248  1
  O  O344  1  0.33750860  0.30010910  0.73340868  1
  O  O345  1  0.83795540  0.57638424  0.76597826  1
  O  O346  1  0.63000990  0.42436432  0.86255655  1
  O  O347  1  0.54407693  0.92482522  0.80091692  1
  O  O348  1  0.54561299  0.63850669  0.87295549  1
  O  O349  1  0.63153489  0.94544696  0.87449325  1
  O  O350  1  0.04585129  0.94549259  0.87447320  1
  O  O351  1  0.13309602  0.63814407  0.87317360  1
  O  O352  1  0.12992031  0.92491740  0.80092410  1
  O  O353  1  0.04582301  0.42412409  0.86250739  1
  O  O354  1  0.33829805  0.26663147  0.84967950  1
  O  O355  1  0.83742225  0.07714707  0.81684468  1
  O  O356  1  0.83938254  0.59876661  0.82321019  1
  O  O357  1  0.33780124  0.75513705  0.84148513  1
  O  O358  1  0.83749322  0.24932635  0.82727857  1
  O  O359  1  0.33725835  0.09552180  0.83705851  1
  O  O360  1  0.33904439  0.53876946  0.81441271  1
  O  O361  1  0.83834751  0.81466390  0.84920429  1
  O  O362  1  0.63028808  0.64412220  0.93963279  1
  O  O363  1  0.54525032  0.15262029  0.88316402  1
  O  O364  1  0.54114032  0.87296703  0.96478491  1
  O  O365  1  0.62426834  0.19387174  0.95084995  1
  O  O366  1  0.05046021  0.19411484  0.95107144  1
  O  O367  1  0.13508254  0.87250560  0.96479284  1
  O  O368  1  0.13105107  0.15301858  0.88326985  1
  O  O369  1  0.04890740  0.64403070  0.93993125  1
  O  O370  1  0.33918421  0.50097312  0.92436678  1
  O  O371  1  0.83768544  0.30770538  0.89443181  1
  O  O372  1  0.83922184  0.82942638  0.90684234  1
  O  O373  1  0.33773180  0.98262691  0.92864826  1
  O  O374  1  0.83857351  0.47748871  0.90876980  1
  O  O375  1  0.33740435  0.33076059  0.91822905  1
  O  O376  1  0.33948939  0.76881343  0.89947539  1
  O  O377  1  0.83822223  0.04829084  0.93946630  1
  O  O378  1  0.54501208  0.40211483  0.96283371  1
  O  O379  1  0.13506369  0.40286155  0.96319863  1
  O  O380  1  0.83785289  0.55704879  0.98072594  1
  O  O381  1  0.83618593  0.12500486  0.99268621  1
  O  O382  1  0.83783686  0.73282438  0.97709149  1
  O  O383  1  0.33675877  0.01634430  0.98460817  1
