# generated using pymatgen
data_Li3PO4
_symmetry_space_group_name_H-M   'P 1'
_cell_length_a   6.15119200
_cell_length_b   14.50933100
_cell_length_c   44.02503212
_cell_angle_alpha   90.00000000
_cell_angle_beta   90.00000000
_cell_angle_gamma   90.00000000
_symmetry_Int_Tables_number   1
_chemical_formula_structural   Li3PO4
_chemical_formula_sum   'Li144 P48 O192'
_cell_volume   3929.22006237
_cell_formula_units_Z   48
loop_
 _symmetry_equiv_pos_site_id
 _symmetry_equiv_pos_as_xyz
  1  'x, y, z'
loop_
 _atom_site_type_symbol
 _atom_site_label
 _atom_site_symmetry_multiplicity
 _atom_site_fract_x
 _atom_site_fract_y
 _atom_site_fract_z
 _atom_site_occupancy
  Li  Li0  1  0.02417687  0.27354336  0.99656453  1
  Li  Li1  1  0.98589092  0.52175784  0.00918142  1
  Li  Li2  1  0.02220219  0.04053565  0.01816862  1
  Li  Li3  1  0.97952015  0.73388432  0.99291086  1
  Li  Li4  1  0.75181398  0.70047389  0.04638846  1
  Li  Li5  1  0.26134378  0.88609457  0.04350245  1
  Li  Li6  1  0.25003152  0.40059548  0.04030920  1
  Li  Li7  1  0.50236527  0.51256234  0.08210201  1
  Li  Li8  1  0.50936637  0.82654509  0.08567028  1
  Li  Li9  1  0.50018677  0.30203450  0.10000277  1
  Li  Li10  1  0.50781449  0.04353516  0.07349620  1
  Li  Li11  1  0.99825901  0.04359042  0.07679429  1
  Li  Li12  1  0.99579361  0.30268514  0.10037438  1
  Li  Li13  1  0.00039974  0.82618772  0.08535513  1
  Li  Li14  1  0.00229211  0.51279684  0.08210669  1
  Li  Li15  1  0.75125453  0.46583923  0.13044396  1
  Li  Li16  1  0.25291202  0.63818398  0.12021403  1
  Li  Li17  1  0.25200653  0.15958343  0.11682534  1
  Li  Li18  1  0.74918746  0.19449686  0.05291617  1
  Li  Li19  1  0.49802717  0.27737729  0.16711213  1
  Li  Li20  1  0.50426099  0.59381620  0.16956800  1
  Li  Li21  1  0.50029476  0.06601590  0.17890638  1
  Li  Li22  1  0.50053759  0.80106925  0.15643201  1
  Li  Li23  1  0.00354011  0.80176437  0.15606050  1
  Li  Li24  1  0.00043238  0.06630990  0.17882350  1
  Li  Li25  1  0.99835369  0.59380403  0.16957227  1
  Li  Li26  1  0.00441327  0.27722613  0.16720405  1
  Li  Li27  1  0.75131113  0.22775454  0.21394227  1
  Li  Li28  1  0.25131140  0.40474872  0.20541170  1
  Li  Li29  1  0.25128914  0.92422990  0.19638234  1
  Li  Li30  1  0.75118270  0.94211494  0.13802992  1
  Li  Li31  1  0.49982843  0.04067010  0.24806051  1
  Li  Li32  1  0.50476855  0.35663489  0.25265398  1
  Li  Li33  1  0.50327275  0.83189404  0.26018419  1
  Li  Li34  1  0.49766642  0.56534831  0.23937524  1
  Li  Li35  1  0.00376883  0.56495143  0.23962958  1
  Li  Li36  1  0.99957233  0.83285855  0.26006896  1
  Li  Li37  1  0.99845565  0.35566983  0.25269012  1
  Li  Li38  1  0.00254175  0.04078553  0.24816516  1
  Li  Li39  1  0.75047949  0.99301685  0.29594179  1
  Li  Li40  1  0.25155553  0.16683250  0.28774034  1
  Li  Li41  1  0.25017513  0.68997138  0.27830001  1
  Li  Li42  1  0.75090147  0.70570610  0.22092127  1
  Li  Li43  1  0.49963254  0.80366774  0.32904482  1
  Li  Li44  1  0.50322643  0.11989418  0.33532066  1
  Li  Li45  1  0.50451681  0.59289098  0.34262617  1
  Li  Li46  1  0.49871754  0.32744062  0.32296189  1
  Li  Li47  1  0.00593700  0.32723447  0.32264308  1
  Li  Li48  1  0.99691098  0.59315410  0.34282775  1
  Li  Li49  1  0.99817184  0.11976065  0.33471682  1
  Li  Li50  1  0.00295416  0.80488635  0.32878403  1
  Li  Li51  1  0.75367671  0.75745549  0.37597149  1
  Li  Li52  1  0.25523103  0.92931459  0.36896668  1
  Li  Li53  1  0.25041194  0.45237195  0.36229848  1
  Li  Li54  1  0.75114196  0.46818091  0.30431291  1
  Li  Li55  1  0.49477286  0.56990144  0.41010593  1
  Li  Li56  1  0.50447929  0.88006524  0.41763443  1
  Li  Li57  1  0.49537790  0.35237161  0.42841240  1
  Li  Li58  1  0.49084455  0.08810516  0.40351938  1
  Li  Li59  1  0.00718157  0.08842944  0.40299191  1
  Li  Li60  1  0.99440350  0.35268895  0.42998684  1
  Li  Li61  1  0.01121783  0.88423338  0.41642066  1
  Li  Li62  1  0.99656371  0.56978981  0.41184874  1
  Li  Li63  1  0.70339277  0.53704385  0.45941487  1
  Li  Li64  1  0.26118226  0.72714068  0.44334393  1
  Li  Li65  1  0.24640502  0.20386570  0.44637678  1
  Li  Li66  1  0.74880282  0.23177808  0.38739340  1
  Li  Li67  1  0.97558206  0.84117189  0.49194355  1
  Li  Li68  1  0.98411121  0.05485832  0.50911061  1
  Li  Li69  1  0.00827835  0.61535942  0.48107375  1
  Li  Li70  1  0.01762585  0.30651003  0.49755602  1
  Li  Li71  1  0.75094167  0.00473369  0.45201103  1
  Li  Li72  1  0.47454245  0.30235641  0.49669685  1
  Li  Li73  1  0.51361231  0.05442214  0.50907117  1
  Li  Li74  1  0.47578620  0.53436079  0.51798486  1
  Li  Li75  1  0.52050667  0.84021246  0.49295530  1
  Li  Li76  1  0.74728888  0.87353852  0.54654617  1
  Li  Li77  1  0.23871066  0.68737617  0.54343882  1
  Li  Li78  1  0.24790762  0.17420036  0.54107505  1
  Li  Li79  1  0.99683285  0.06099476  0.58205490  1
  Li  Li80  1  0.99053552  0.74710495  0.58560212  1
  Li  Li81  1  0.99960907  0.27351937  0.60004610  1
  Li  Li82  1  0.99246324  0.53017737  0.57354523  1
  Li  Li83  1  0.50207350  0.53009078  0.57668103  1
  Li  Li84  1  0.50432769  0.27154778  0.60073798  1
  Li  Li85  1  0.49869400  0.74866334  0.58560904  1
  Li  Li86  1  0.49690167  0.06081705  0.58206981  1
  Li  Li87  1  0.74821329  0.10875215  0.63026311  1
  Li  Li88  1  0.24675470  0.93529154  0.62023102  1
  Li  Li89  1  0.24971848  0.41494670  0.61685574  1
  Li  Li90  1  0.74999847  0.37987501  0.55338131  1
  Li  Li91  1  0.00301507  0.29728120  0.66698751  1
  Li  Li92  1  0.99322159  0.98102104  0.66935485  1
  Li  Li93  1  0.00012219  0.50747433  0.67894091  1
  Li  Li94  1  0.00005020  0.77381970  0.65619403  1
  Li  Li95  1  0.49683073  0.77334741  0.65619991  1
  Li  Li96  1  0.49977925  0.50745607  0.67892608  1
  Li  Li97  1  0.50041943  0.98135622  0.66923155  1
  Li  Li98  1  0.49480991  0.29750659  0.66735447  1
  Li  Li99  1  0.74988494  0.34593479  0.71390814  1
  Li  Li100  1  0.24830200  0.17010259  0.70519606  1
  Li  Li101  1  0.24868855  0.64987060  0.69616047  1
  Li  Li102  1  0.74971996  0.63165269  0.63806038  1
  Li  Li103  1  0.00028715  0.53556545  0.74804771  1
  Li  Li104  1  0.99628089  0.21914153  0.75274535  1
  Li  Li105  1  0.99636522  0.74419714  0.76017257  1
  Li  Li106  1  0.00181820  0.00983892  0.73936176  1
  Li  Li107  1  0.49618269  0.01025852  0.73946415  1
  Li  Li108  1  0.50032419  0.74432005  0.76007718  1
  Li  Li109  1  0.50219904  0.21925936  0.75267379  1
  Li  Li110  1  0.49782324  0.53544319  0.74815604  1
  Li  Li111  1  0.74986694  0.58318376  0.79601933  1
  Li  Li112  1  0.24888388  0.40898868  0.78770101  1
  Li  Li113  1  0.24912730  0.88641466  0.77893034  1
  Li  Li114  1  0.74823713  0.86959729  0.72127509  1
  Li  Li115  1  0.00113297  0.77188197  0.82957668  1
  Li  Li116  1  0.99798126  0.45579236  0.83520067  1
  Li  Li117  1  0.99515550  0.98281258  0.84282115  1
  Li  Li118  1  0.00173483  0.24820205  0.82287744  1
  Li  Li119  1  0.49601745  0.24855913  0.82255810  1
  Li  Li120  1  0.50269170  0.98220289  0.84319647  1
  Li  Li121  1  0.50130503  0.45593319  0.83504441  1
  Li  Li122  1  0.49776619  0.76998342  0.82897799  1
  Li  Li123  1  0.74640076  0.81723049  0.87603286  1
  Li  Li124  1  0.24595629  0.64562410  0.86915774  1
  Li  Li125  1  0.24957957  0.12371498  0.86249599  1
  Li  Li126  1  0.74903922  0.10738746  0.80421529  1
  Li  Li127  1  0.00769311  0.00597084  0.91041763  1
  Li  Li128  1  0.99394859  0.69499512  0.91750795  1
  Li  Li129  1  0.00421119  0.22207254  0.92831946  1
  Li  Li130  1  0.00934695  0.48717491  0.90382962  1
  Li  Li131  1  0.49127874  0.48682201  0.90333358  1
  Li  Li132  1  0.50617793  0.22199061  0.92999474  1
  Li  Li133  1  0.49010789  0.69116858  0.91657425  1
  Li  Li134  1  0.50516593  0.00598056  0.91205712  1
  Li  Li135  1  0.79963257  0.03643436  0.95991195  1
  Li  Li136  1  0.23844132  0.84704797  0.94329346  1
  Li  Li137  1  0.25305040  0.36938985  0.94625640  1
  Li  Li138  1  0.75092798  0.34491162  0.88780209  1
  Li  Li139  1  0.52289443  0.73212092  0.99186577  1
  Li  Li140  1  0.51635393  0.51933854  0.00915024  1
  Li  Li141  1  0.48955739  0.95960239  0.98127040  1
  Li  Li142  1  0.48123636  0.26818638  0.99750100  1
  Li  Li143  1  0.74954061  0.57104426  0.95204223  1
  P  P144  1  0.75546930  0.90738786  0.03027689  1
  P  P145  1  0.75099749  0.37557031  0.04547691  1
  P  P146  1  0.25183776  0.20238535  0.05019675  1
  P  P147  1  0.25206669  0.66805141  0.04966467  1
  P  P148  1  0.75310807  0.67146851  0.11442381  1
  P  P149  1  0.75007735  0.14215867  0.12749169  1
  P  P150  1  0.25247671  0.95738238  0.12688635  1
  P  P151  1  0.25124339  0.43664687  0.13775943  1
  P  P152  1  0.75127441  0.43621659  0.19859997  1
  P  P153  1  0.75147118  0.90810798  0.20730454  1
  P  P154  1  0.25078135  0.72415076  0.20975086  1
  P  P155  1  0.25140004  0.19695551  0.22049235  1
  P  P156  1  0.75104237  0.19897548  0.28118948  1
  P  P157  1  0.75074716  0.67187172  0.28928146  1
  P  P158  1  0.25100495  0.48696028  0.29308545  1
  P  P159  1  0.25170163  0.96109353  0.30197948  1
  P  P160  1  0.75222257  0.96102727  0.36260497  1
  P  P161  1  0.75167985  0.43308895  0.37308093  1
  P  P162  1  0.24813837  0.24959843  0.37654837  1
  P  P163  1  0.25167359  0.72372979  0.38251491  1
  P  P164  1  0.75163264  0.73224834  0.44233926  1
  P  P165  1  0.74849694  0.17890361  0.45674906  1
  P  P166  1  0.24977103  0.00793595  0.45851481  1
  P  P167  1  0.24555769  0.47810585  0.46405818  1
  P  P168  1  0.74456696  0.66635001  0.53029550  1
  P  P169  1  0.74805752  0.19907610  0.54561782  1
  P  P170  1  0.24778570  0.37173759  0.55021347  1
  P  P171  1  0.24737540  0.90590185  0.54965308  1
  P  P172  1  0.74698825  0.90277755  0.61433047  1
  P  P173  1  0.75029438  0.43226477  0.62761569  1
  P  P174  1  0.24790906  0.61671026  0.62682861  1
  P  P175  1  0.24799428  0.13800514  0.63765544  1
  P  P176  1  0.74855980  0.13892381  0.69852812  1
  P  P177  1  0.74881878  0.66678601  0.70718575  1
  P  P178  1  0.24859766  0.85137019  0.70973800  1
  P  P179  1  0.24927573  0.37788877  0.72060838  1
  P  P180  1  0.74917978  0.37686170  0.78120688  1
  P  P181  1  0.74898926  0.90365490  0.78959387  1
  P  P182  1  0.24940412  0.08878813  0.79308631  1
  P  P183  1  0.24884876  0.61518544  0.80204303  1
  P  P184  1  0.74812854  0.61415121  0.86282612  1
  P  P185  1  0.74898029  0.14253907  0.87315449  1
  P  P186  1  0.25217043  0.32600062  0.87652463  1
  P  P187  1  0.24871676  0.85185266  0.88279818  1
  P  P188  1  0.74814600  0.84292127  0.94245774  1
  P  P189  1  0.75134214  0.39651864  0.95679842  1
  P  P190  1  0.25008841  0.56695476  0.95869528  1
  P  P191  1  0.25457382  0.09784085  0.96415250  1
  O  O192  1  0.46013072  0.65566998  0.02962196  1
  O  O193  1  0.54608994  0.44007823  0.04480270  1
  O  O194  1  0.45991336  0.14477465  0.04626536  1
  O  O195  1  0.04493260  0.14051976  0.04556883  1
  O  O196  1  0.95484924  0.44061750  0.04492403  1
  O  O197  1  0.04339612  0.65424266  0.02988983  1
  O  O198  1  0.75823576  0.80601499  0.01932543  1
  O  O199  1  0.75239156  0.30402059  0.01950188  1
  O  O200  1  0.74912653  0.97834852  0.00378269  1
  O  O201  1  0.24734123  0.28349151  0.02734639  1
  O  O202  1  0.45727416  0.42439921  0.11762070  1
  O  O203  1  0.55464247  0.92160937  0.05161253  1
  O  O204  1  0.54342096  0.20339032  0.13110888  1
  O  O205  1  0.45807091  0.89498427  0.12362406  1
  O  O206  1  0.04416095  0.89653256  0.12299424  1
  O  O207  1  0.95693134  0.20309235  0.13138895  1
  O  O208  1  0.96889572  0.92963665  0.04896559  1
  O  O209  1  0.04497199  0.42474652  0.11765590  1
  O  O210  1  0.75239319  0.57355328  0.10019377  1
  O  O211  1  0.25134929  0.76776686  0.06357392  1
  O  O212  1  0.24407577  0.24518082  0.08271915  1
  O  O213  1  0.75103588  0.09355563  0.09623598  1
  O  O214  1  0.25340486  0.59654216  0.07632881  1
  O  O215  1  0.75368837  0.74480106  0.08836928  1
  O  O216  1  0.74961595  0.31899129  0.07552501  1
  O  O217  1  0.25553240  0.03160106  0.10135739  1
  O  O218  1  0.45804301  0.18365171  0.20046161  1
  O  O219  1  0.54611920  0.68467230  0.13439117  1
  O  O220  1  0.54361494  0.96892077  0.21069937  1
  O  O221  1  0.45811065  0.66288691  0.20692115  1
  O  O222  1  0.04387101  0.66264195  0.20698550  1
  O  O223  1  0.95886677  0.96915341  0.21078621  1
  O  O224  1  0.96037683  0.68461993  0.13433933  1
  O  O225  1  0.04427031  0.18367114  0.20055568  1
  O  O226  1  0.75107538  0.33781562  0.18464774  1
  O  O227  1  0.25172483  0.53488608  0.15185373  1
  O  O228  1  0.25047586  0.00470774  0.15861193  1
  O  O229  1  0.75209269  0.85987335  0.17572382  1
  O  O230  1  0.25097256  0.36197793  0.16333559  1
  O  O231  1  0.75135694  0.51015461  0.17280363  1
  O  O232  1  0.74969106  0.06729601  0.15304127  1
  O  O233  1  0.25082918  0.79653322  0.18352211  1
  O  O234  1  0.45816584  0.94857095  0.28184247  1
  O  O235  1  0.54419067  0.44897379  0.21864494  1
  O  O236  1  0.54345341  0.73321143  0.29218169  1
  O  O237  1  0.45826402  0.42553264  0.29033025  1
  O  O238  1  0.04423051  0.42537998  0.29014829  1
  O  O239  1  0.95736240  0.73360758  0.29205060  1
  O  O240  1  0.95808575  0.44879775  0.21869771  1
  O  O241  1  0.04401680  0.94870099  0.28205932  1
  O  O242  1  0.75064586  0.10127894  0.26665992  1
  O  O243  1  0.25161591  0.29533584  0.23450268  1
  O  O244  1  0.25103691  0.77400097  0.24101358  1
  O  O245  1  0.75052094  0.62260314  0.25796870  1
  O  O246  1  0.25140929  0.12286367  0.24617620  1
  O  O247  1  0.75074627  0.27356976  0.25565583  1
  O  O248  1  0.75126046  0.83409778  0.23303203  1
  O  O249  1  0.25126268  0.56001419  0.26701345  1
  O  O250  1  0.45982020  0.71227318  0.36284799  1
  O  O251  1  0.54468690  0.21131218  0.30138993  1
  O  O252  1  0.54582362  0.49566008  0.37455469  1
  O  O253  1  0.45568595  0.18781133  0.37347044  1
  O  O254  1  0.04111795  0.18795189  0.37284868  1
  O  O255  1  0.95784562  0.49542653  0.37555524  1
  O  O256  1  0.95867890  0.21118394  0.30114081  1
  O  O257  1  0.04597923  0.71434356  0.36229897  1
  O  O258  1  0.75105692  0.86497823  0.34705109  1
  O  O259  1  0.25177036  0.05841686  0.31674365  1
  O  O260  1  0.25000656  0.53615596  0.32441734  1
  O  O261  1  0.75378817  0.38229929  0.34190282  1
  O  O262  1  0.25233246  0.88593802  0.32734987  1
  O  O263  1  0.75036101  0.03779310  0.33779635  1
  O  O264  1  0.75131793  0.59877391  0.31532507  1
  O  O265  1  0.25108993  0.32283476  0.35057116  1
  O  O266  1  0.44429664  0.48296239  0.44187598  1
  O  O267  1  0.54678752  0.97158805  0.38311734  1
  O  O268  1  0.54209276  0.24000661  0.45813359  1
  O  O269  1  0.45995562  0.94674401  0.45709624  1
  O  O270  1  0.04287902  0.94387395  0.45731885  1
  O  O271  1  0.95234451  0.24135986  0.45845597  1
  O  O272  1  0.96096396  0.97203232  0.38245577  1
  O  O273  1  0.02129293  0.49506608  0.44786749  1
  O  O274  1  0.74072103  0.63446944  0.42820907  1
  O  O275  1  0.25609292  0.81914345  0.39906632  1
  O  O276  1  0.24504474  0.29639601  0.40815594  1
  O  O277  1  0.75006409  0.12579948  0.42534597  1
  O  O278  1  0.24664246  0.64867504  0.40769865  1
  O  O279  1  0.76632349  0.80589221  0.41659382  1
  O  O280  1  0.74931828  0.36139646  0.39962804  1
  O  O281  1  0.24656488  0.07289466  0.43021552  1
  O  O282  1  0.54251205  0.75256969  0.46059656  1
  O  O283  1  0.96606757  0.73814243  0.46193606  1
  O  O284  1  0.27139265  0.55618710  0.48799880  1
  O  O285  1  0.24842313  0.06692843  0.48766451  1
  O  O286  1  0.24424389  0.37990114  0.47653820  1
  O  O287  1  0.74940186  0.10131504  0.48143229  1
  O  O288  1  0.03915211  0.91860439  0.52966745  1
  O  O289  1  0.95250853  0.13424576  0.54493465  1
  O  O290  1  0.03952559  0.42930885  0.54647083  1
  O  O291  1  0.45427150  0.43373679  0.54541244  1
  O  O292  1  0.54388596  0.13414412  0.54512293  1
  O  O293  1  0.45594176  0.91963274  0.52986995  1
  O  O294  1  0.74198919  0.76783085  0.51938546  1
  O  O295  1  0.74687185  0.27056202  0.51963106  1
  O  O296  1  0.75086595  0.59560326  0.50376158  1
  O  O297  1  0.25136734  0.29071990  0.52732424  1
  O  O298  1  0.04215714  0.15061074  0.61752128  1
  O  O299  1  0.94518077  0.65212722  0.55167435  1
  O  O300  1  0.95759887  0.37137553  0.63116479  1
  O  O301  1  0.04217457  0.67900945  0.62356837  1
  O  O302  1  0.45593270  0.67777405  0.62304726  1
  O  O303  1  0.54378657  0.37109907  0.63151548  1
  O  O304  1  0.53097770  0.64411549  0.54893322  1
  O  O305  1  0.45457879  0.14954088  0.61760607  1
  O  O306  1  0.74735977  0.00060841  0.60006976  1
  O  O307  1  0.24802763  0.80617155  0.56358102  1
  O  O308  1  0.25691904  0.32888571  0.58273540  1
  O  O309  1  0.74885462  0.48071055  0.59634018  1
  O  O310  1  0.24625067  0.97728547  0.57637306  1
  O  O311  1  0.74631914  0.82922121  0.58837576  1
  O  O312  1  0.74994609  0.25580410  0.57564753  1
  O  O313  1  0.24535126  0.54253723  0.60128006  1
  O  O314  1  0.04276121  0.39066448  0.70051568  1
  O  O315  1  0.95411372  0.88979233  0.63427907  1
  O  O316  1  0.95654165  0.60587713  0.71057926  1
  O  O317  1  0.04111158  0.91254670  0.70680681  1
  O  O318  1  0.45574786  0.91275873  0.70683032  1
  O  O319  1  0.54136278  0.60575601  0.71067124  1
  O  O320  1  0.53976150  0.88990446  0.63428453  1
  O  O321  1  0.45632716  0.39080929  0.70063371  1
  O  O322  1  0.74913841  0.23721546  0.68451499  1
  O  O323  1  0.24674482  0.03972136  0.65172531  1
  O  O324  1  0.24963843  0.56916836  0.65852558  1
  O  O325  1  0.74833604  0.71484902  0.67559387  1
  O  O326  1  0.24901022  0.21266624  0.66324817  1
  O  O327  1  0.74782093  0.06494745  0.67274296  1
  O  O328  1  0.75043742  0.50689530  0.65318551  1
  O  O329  1  0.24880819  0.77841865  0.68365476  1
  O  O330  1  0.04235811  0.62782211  0.78191695  1
  O  O331  1  0.95542897  0.12629132  0.71861341  1
  O  O332  1  0.95613209  0.84229170  0.79257501  1
  O  O333  1  0.04219854  0.15027089  0.79034519  1
  O  O334  1  0.45626318  0.15034160  0.79016648  1
  O  O335  1  0.54221464  0.84201661  0.79237668  1
  O  O336  1  0.54169483  0.12661187  0.71862884  1
  O  O337  1  0.45646283  0.62812493  0.78214405  1
  O  O338  1  0.74940043  0.47463837  0.76672810  1
  O  O339  1  0.24914561  0.27969366  0.73471912  1
  O  O340  1  0.24863722  0.80246845  0.74116655  1
  O  O341  1  0.74926214  0.95243593  0.75816943  1
  O  O342  1  0.24891529  0.45252356  0.74612694  1
  O  O343  1  0.74951531  0.30209049  0.75570974  1
  O  O344  1  0.74882039  0.74081034  0.73293537  1
  O  O345  1  0.24898751  0.01581339  0.76698774  1
  O  O346  1  0.04023741  0.86340300  0.86319580  1
  O  O347  1  0.95580071  0.36453339  0.80136326  1
  O  O348  1  0.95498263  0.08005444  0.87475587  1
  O  O349  1  0.04492819  0.38797524  0.87348602  1
  O  O350  1  0.45918820  0.38773910  0.87300992  1
  O  O351  1  0.54279802  0.08016248  0.87567795  1
  O  O352  1  0.54186479  0.36464088  0.80121748  1
  O  O353  1  0.45414350  0.86097756  0.86251403  1
  O  O354  1  0.74936932  0.71030167  0.84733933  1
  O  O355  1  0.24909022  0.51762315  0.81667117  1
  O  O356  1  0.25013614  0.03940221  0.82440595  1
  O  O357  1  0.74720722  0.19296664  0.84191839  1
  O  O358  1  0.24776515  0.68969375  0.82762587  1
  O  O359  1  0.75001440  0.53776716  0.83792852  1
  O  O360  1  0.74832857  0.97707027  0.81551353  1
  O  O361  1  0.24972573  0.25310521  0.85045102  1
  O  O362  1  0.05554599  0.09241945  0.94203355  1
  O  O363  1  0.95351071  0.60354355  0.88334502  1
  O  O364  1  0.95752941  0.33531475  0.95810363  1
  O  O365  1  0.04029815  0.62842064  0.95722888  1
  O  O366  1  0.45721518  0.63096455  0.95736111  1
  O  O367  1  0.54750897  0.33411877  0.95852601  1
  O  O368  1  0.53932208  0.60318822  0.88266784  1
  O  O369  1  0.47880496  0.08060221  0.94801427  1
  O  O370  1  0.75975050  0.94076456  0.92839678  1
  O  O371  1  0.24408433  0.75634658  0.89932155  1
  O  O372  1  0.25492621  0.27866586  0.90807009  1
  O  O373  1  0.74961566  0.44958736  0.92539633  1
  O  O374  1  0.25444352  0.92690040  0.90797071  1
  O  O375  1  0.73390245  0.76939345  0.91665754  1
  O  O376  1  0.75100994  0.21439639  0.89965138  1
  O  O377  1  0.25272677  0.50172350  0.93049066  1
  O  O378  1  0.95717385  0.82239909  0.96072379  1
  O  O379  1  0.53333433  0.83672416  0.96198661  1
  O  O380  1  0.22819044  0.02028288  0.98825167  1
  O  O381  1  0.25144660  0.50843347  0.98792844  1
  O  O382  1  0.25560063  0.19640055  0.97630686  1
  O  O383  1  0.75100949  0.47410102  0.98148453  1
