# generated using pymatgen
data_Li3PO4
_symmetry_space_group_name_H-M   'P 1'
_cell_length_a   6.15119200
_cell_length_b   14.50933100
_cell_length_c   51.16550274
_cell_angle_alpha   90.00000000
_cell_angle_beta   90.00000000
_cell_angle_gamma   90.00000000
_symmetry_Int_Tables_number   1
_chemical_formula_structural   Li3PO4
_chemical_formula_sum   'Li168 P56 O224'
_cell_volume   4566.50478609
_cell_formula_units_Z   56
loop_
 _symmetry_equiv_pos_site_id
 _symmetry_equiv_pos_as_xyz
  1  'x, y, z'
loop_
 _atom_site_type_symbol
 _atom_site_label
 _atom_site_symmetry_multiplicity
 _atom_site_fract_x
 _atom_site_fract_y
 _atom_site_fract_z
 _atom_site_occupancy
  Li  Li0  1  0.50965870  0.59147312  0.07022697  1
  Li  Li1  1  0.52075896  0.16380085  0.00282182  1
  Li  Li2  1  0.48366184  0.62624916  0.00815523  1
  Li  Li3  1  0.49624169  0.11447292  0.06178200  1
  Li  Li4  1  0.00347398  0.11464474  0.06184687  1
  Li  Li5  1  0.01607545  0.62620836  0.00818536  1
  Li  Li6  1  0.97949300  0.16488123  0.00298980  1
  Li  Li7  1  0.99031059  0.59145552  0.07022679  1
  Li  Li8  1  0.75003684  0.78238339  0.04007800  1
  Li  Li9  1  0.25060647  0.92373729  0.03465569  1
  Li  Li10  1  0.25000604  0.46393723  0.04180949  1
  Li  Li11  1  0.74992212  0.26148046  0.04686813  1
  Li  Li12  1  0.49800609  0.35125166  0.14157163  1
  Li  Li13  1  0.49720118  0.89834027  0.07660411  1
  Li  Li14  1  0.50871389  0.38100775  0.08290703  1
  Li  Li15  1  0.49754240  0.87724573  0.13478289  1
  Li  Li16  1  0.00261594  0.87734425  0.13478012  1
  Li  Li17  1  0.99132132  0.38099219  0.08290098  1
  Li  Li18  1  0.00301567  0.89844830  0.07659857  1
  Li  Li19  1  0.00196230  0.35123717  0.14156741  1
  Li  Li20  1  0.74998251  0.54167526  0.11211838  1
  Li  Li21  1  0.24960226  0.71411672  0.10544508  1
  Li  Li22  1  0.24979496  0.23848810  0.09711690  1
  Li  Li23  1  0.74995976  0.01791265  0.11831320  1
  Li  Li24  1  0.49768857  0.11587174  0.21252388  1
  Li  Li25  1  0.50126521  0.66702538  0.14572166  1
  Li  Li26  1  0.50253339  0.14320801  0.15257141  1
  Li  Li27  1  0.49766224  0.63933435  0.20538233  1
  Li  Li28  1  0.00225594  0.63931091  0.20537874  1
  Li  Li29  1  0.99696077  0.14333881  0.15250165  1
  Li  Li30  1  0.99866568  0.66702192  0.14572811  1
  Li  Li31  1  0.00176139  0.11604046  0.21249122  1
  Li  Li32  1  0.74998388  0.30459163  0.18283305  1
  Li  Li33  1  0.24999907  0.47855190  0.17495273  1
  Li  Li34  1  0.24993796  0.00299752  0.16829437  1
  Li  Li35  1  0.74979576  0.78184201  0.18954697  1
  Li  Li36  1  0.49701818  0.87808677  0.28344904  1
  Li  Li37  1  0.50222121  0.43127559  0.21618818  1
  Li  Li38  1  0.50236601  0.90552481  0.22384523  1
  Li  Li39  1  0.49751439  0.40305156  0.27627753  1
  Li  Li40  1  0.00244654  0.40305639  0.27627389  1
  Li  Li41  1  0.99759183  0.90553389  0.22384745  1
  Li  Li42  1  0.99775366  0.43128261  0.21618617  1
  Li  Li43  1  0.00278643  0.87810691  0.28343550  1
  Li  Li44  1  0.74997609  0.06738334  0.25308294  1
  Li  Li45  1  0.24998240  0.24222593  0.24608904  1
  Li  Li46  1  0.24997146  0.76472703  0.23930624  1
  Li  Li47  1  0.74975457  0.54325258  0.26050174  1
  Li  Li48  1  0.49599844  0.63859330  0.35499333  1
  Li  Li49  1  0.50165999  0.19398291  0.28711107  1
  Li  Li50  1  0.50271294  0.66737683  0.29468574  1
  Li  Li51  1  0.49919628  0.16676582  0.34688032  1
  Li  Li52  1  0.00049949  0.16677000  0.34689123  1
  Li  Li53  1  0.99665974  0.66730768  0.29466664  1
  Li  Li54  1  0.99826858  0.19398602  0.28711085  1
  Li  Li55  1  0.00318699  0.63877670  0.35495702  1
  Li  Li56  1  0.74997355  0.82768826  0.32396166  1
  Li  Li57  1  0.24898969  0.00550945  0.31673460  1
  Li  Li58  1  0.24995379  0.52754049  0.31047048  1
  Li  Li59  1  0.74999125  0.30884873  0.33136834  1
  Li  Li60  1  0.49831146  0.40501919  0.42701889  1
  Li  Li61  1  0.50391809  0.95467089  0.35649545  1
  Li  Li62  1  0.50190603  0.43180112  0.36597515  1
  Li  Li63  1  0.49962151  0.92884392  0.41447182  1
  Li  Li64  1  0.00037641  0.92884907  0.41447395  1
  Li  Li65  1  0.99804459  0.43181602  0.36597941  1
  Li  Li66  1  0.99571353  0.95472955  0.35656444  1
  Li  Li67  1  0.00162228  0.40504329  0.42699548  1
  Li  Li68  1  0.74915813  0.59387158  0.39736757  1
  Li  Li69  1  0.25002821  0.76643103  0.38849627  1
  Li  Li70  1  0.24999088  0.29165566  0.38131148  1
  Li  Li71  1  0.74997851  0.07290537  0.39885437  1
  Li  Li72  1  0.51988584  0.18720747  0.48693749  1
  Li  Li73  1  0.50129711  0.71968548  0.43018002  1
  Li  Li74  1  0.49709748  0.18759416  0.43473126  1
  Li  Li75  1  0.47782645  0.70842320  0.49303018  1
  Li  Li76  1  0.02208898  0.70840428  0.49299024  1
  Li  Li77  1  0.00292094  0.18758046  0.43472349  1
  Li  Li78  1  0.99866888  0.71992043  0.43000844  1
  Li  Li79  1  0.98013665  0.18718810  0.48693827  1
  Li  Li80  1  0.75037583  0.34954987  0.46479115  1
  Li  Li81  1  0.24960157  0.52936481  0.46079358  1
  Li  Li82  1  0.25001563  0.03635830  0.45333641  1
  Li  Li83  1  0.75002244  0.82233177  0.47060510  1
  Li  Li84  1  0.99049426  0.53388790  0.57029989  1
  Li  Li85  1  0.97943088  0.96076375  0.50283421  1
  Li  Li86  1  0.01658019  0.49953462  0.50813358  1
  Li  Li87  1  0.00382699  0.01093118  0.56159901  1
  Li  Li88  1  0.49616151  0.01094056  0.56161264  1
  Li  Li89  1  0.48324378  0.49959468  0.50811461  1
  Li  Li90  1  0.52080078  0.96073984  0.50283212  1
  Li  Li91  1  0.50950511  0.53389841  0.57029939  1
  Li  Li92  1  0.74998544  0.34493453  0.54009035  1
  Li  Li93  1  0.25000334  0.20225145  0.53456078  1
  Li  Li94  1  0.25002126  0.66262852  0.54217244  1
  Li  Li95  1  0.75007820  0.86414869  0.54733619  1
  Li  Li96  1  0.00304890  0.77347346  0.64171826  1
  Li  Li97  1  0.00113257  0.22645347  0.57649954  1
  Li  Li98  1  0.99120680  0.74420687  0.58312614  1
  Li  Li99  1  0.00270925  0.24737717  0.63469192  1
  Li  Li100  1  0.49728116  0.24737956  0.63469185  1
  Li  Li101  1  0.50888934  0.74414453  0.58312373  1
  Li  Li102  1  0.49887601  0.22644782  0.57649889  1
  Li  Li103  1  0.49696099  0.77347612  0.64171924  1
  Li  Li104  1  0.75000309  0.58342077  0.61249267  1
  Li  Li105  1  0.25001062  0.41090034  0.60522069  1
  Li  Li106  1  0.25016665  0.88630554  0.59716340  1
  Li  Li107  1  0.75000315  0.10707731  0.61821118  1
  Li  Li108  1  0.00247843  0.00903567  0.71253071  1
  Li  Li109  1  0.99792784  0.45735828  0.64568081  1
  Li  Li110  1  0.99702134  0.98161154  0.65240305  1
  Li  Li111  1  0.00222403  0.48454878  0.70537223  1
  Li  Li112  1  0.49766560  0.48457744  0.70537441  1
  Li  Li113  1  0.50297707  0.98161240  0.65240426  1
  Li  Li114  1  0.50206864  0.45735918  0.64568080  1
  Li  Li115  1  0.49750309  0.00903287  0.71252796  1
  Li  Li116  1  0.74999896  0.82083459  0.68250725  1
  Li  Li117  1  0.24999424  0.64548089  0.67505055  1
  Li  Li118  1  0.24999294  0.12163411  0.66814322  1
  Li  Li119  1  0.74998637  0.34303257  0.68949587  1
  Li  Li120  1  0.00286646  0.24747992  0.78347383  1
  Li  Li121  1  0.99818492  0.69392433  0.71617803  1
  Li  Li122  1  0.99761525  0.21861339  0.72360303  1
  Li  Li123  1  0.00191408  0.72190765  0.77635880  1
  Li  Li124  1  0.49768241  0.72194456  0.77636009  1
  Li  Li125  1  0.50232155  0.21862018  0.72360220  1
  Li  Li126  1  0.50181874  0.69391585  0.71617515  1
  Li  Li127  1  0.49711469  0.24748322  0.78347484  1
  Li  Li128  1  0.74981282  0.05709584  0.75309965  1
  Li  Li129  1  0.24997565  0.88302816  0.74598767  1
  Li  Li130  1  0.24985245  0.36049189  0.73925626  1
  Li  Li131  1  0.74995155  0.58015338  0.76044924  1
  Li  Li132  1  0.00350243  0.48525563  0.85508287  1
  Li  Li133  1  0.99790134  0.93057408  0.78673497  1
  Li  Li134  1  0.99748770  0.45726322  0.79458463  1
  Li  Li135  1  0.00099566  0.95790733  0.84651747  1
  Li  Li136  1  0.49896527  0.95783495  0.84648033  1
  Li  Li137  1  0.50247825  0.45727180  0.79458519  1
  Li  Li138  1  0.50207936  0.93058209  0.78673030  1
  Li  Li139  1  0.49651490  0.48526535  0.85508898  1
  Li  Li140  1  0.75000085  0.29743060  0.82422383  1
  Li  Li141  1  0.24998841  0.11949038  0.81683047  1
  Li  Li142  1  0.24984822  0.59690923  0.81046984  1
  Li  Li143  1  0.74987685  0.81565835  0.83099489  1
  Li  Li144  1  0.00353020  0.71991752  0.92701323  1
  Li  Li145  1  0.99599790  0.17053495  0.85655022  1
  Li  Li146  1  0.99832405  0.69233960  0.86602856  1
  Li  Li147  1  0.00055525  0.19572461  0.91424759  1
  Li  Li148  1  0.49949871  0.19572076  0.91424973  1
  Li  Li149  1  0.50181710  0.69232266  0.86611851  1
  Li  Li150  1  0.50400441  0.17053787  0.85654792  1
  Li  Li151  1  0.49663777  0.71995356  0.92702931  1
  Li  Li152  1  0.75065455  0.53168848  0.89726803  1
  Li  Li153  1  0.24987028  0.35766089  0.88871990  1
  Li  Li154  1  0.25001578  0.83402100  0.88137747  1
  Li  Li155  1  0.75002819  0.05204976  0.89886824  1
  Li  Li156  1  0.98022118  0.93678174  0.98694707  1
  Li  Li157  1  0.99886800  0.40498042  0.93036293  1
  Li  Li158  1  0.00319954  0.93761536  0.93466170  1
  Li  Li159  1  0.02101112  0.41705387  0.99272014  1
  Li  Li160  1  0.47903672  0.41702168  0.99271883  1
  Li  Li161  1  0.49714018  0.93765067  0.93471243  1
  Li  Li162  1  0.50116514  0.40499360  0.93036016  1
  Li  Li163  1  0.52310852  0.93750851  0.98714206  1
  Li  Li164  1  0.75094376  0.77598372  0.96437080  1
  Li  Li165  1  0.25003530  0.59667136  0.96073390  1
  Li  Li166  1  0.25001650  0.08888118  0.95382025  1
  Li  Li167  1  0.75000704  0.30221077  0.97100176  1
  P  P168  1  0.25001361  0.73591619  0.04909945  1
  P  P169  1  0.75096109  0.99043229  0.03150736  1
  P  P170  1  0.74999939  0.45763801  0.03473024  1
  P  P171  1  0.25014329  0.28862947  0.03731489  1
  P  P172  1  0.24995835  0.50891648  0.11723899  1
  P  P173  1  0.74993392  0.74684679  0.09969764  1
  P  P174  1  0.74974128  0.21994098  0.10625217  1
  P  P175  1  0.24995900  0.03729849  0.10936151  1
  P  P176  1  0.24998445  0.27267430  0.18816003  1
  P  P177  1  0.74998055  0.51019177  0.16987718  1
  P  P178  1  0.74995083  0.98427590  0.17795877  1
  P  P179  1  0.24990751  0.79918430  0.18058081  1
  P  P180  1  0.24987605  0.03548820  0.25898041  1
  P  P181  1  0.74994056  0.27413338  0.24085770  1
  P  P182  1  0.74989465  0.74594384  0.24891156  1
  P  P183  1  0.24988766  0.56135126  0.25135453  1
  P  P184  1  0.24984324  0.79670331  0.32991222  1
  P  P185  1  0.74974056  0.03691843  0.31108160  1
  P  P186  1  0.74993695  0.50902982  0.32014176  1
  P  P187  1  0.24997053  0.32548425  0.32218599  1
  P  P188  1  0.24966388  0.56020366  0.40232637  1
  P  P189  1  0.74983586  0.79546888  0.38216635  1
  P  P190  1  0.75000039  0.27482955  0.39114710  1
  P  P191  1  0.24999235  0.08825718  0.39092103  1
  P  P192  1  0.25007491  0.32052766  0.47436016  1
  P  P193  1  0.74990759  0.56344951  0.45788599  1
  P  P194  1  0.75002641  0.02924522  0.45742574  1
  P  P195  1  0.25000014  0.85584758  0.46145094  1
  P  P196  1  0.24999868  0.38966943  0.54906080  1
  P  P197  1  0.75002009  0.13544917  0.53122741  1
  P  P198  1  0.75002627  0.66845194  0.53490703  1
  P  P199  1  0.25003841  0.83778861  0.53755635  1
  P  P200  1  0.25000617  0.61580592  0.61733467  1
  P  P201  1  0.75000494  0.37843261  0.59962570  1
  P  P202  1  0.75007056  0.90523056  0.60632697  1
  P  P203  1  0.24999761  0.08763193  0.60921745  1
  P  P204  1  0.24998056  0.85249857  0.68813021  1
  P  P205  1  0.75000104  0.61439300  0.67006551  1
  P  P206  1  0.74998843  0.14031149  0.67785248  1
  P  P207  1  0.24997759  0.32559127  0.68049360  1
  P  P208  1  0.24995000  0.08965729  0.75901212  1
  P  P209  1  0.74999246  0.85071117  0.74062307  1
  P  P210  1  0.74992788  0.37840467  0.74880190  1
  P  P211  1  0.24991342  0.56319349  0.75129188  1
  P  P212  1  0.25000007  0.32813913  0.82992267  1
  P  P213  1  0.74997852  0.08810277  0.81109095  1
  P  P214  1  0.74991826  0.61510844  0.82018662  1
  P  P215  1  0.24994918  0.79927763  0.82206654  1
  P  P216  1  0.25016758  0.56447169  0.90243908  1
  P  P217  1  0.74997562  0.32933972  0.88225363  1
  P  P218  1  0.75001360  0.85011383  0.89109395  1
  P  P219  1  0.25012831  0.03676221  0.89077555  1
  P  P220  1  0.25098943  0.80496224  0.97451783  1
  P  P221  1  0.75010295  0.56212559  0.95776503  1
  P  P222  1  0.75032961  0.09550623  0.95746214  1
  P  P223  1  0.25003082  0.26890531  0.96150969  1
  O  O224  1  0.46232275  0.72305152  0.03303363  1
  O  O225  1  0.53802797  0.98358315  0.04795285  1
  O  O226  1  0.54169207  0.52020220  0.03563917  1
  O  O227  1  0.45532087  0.22669744  0.03581636  1
  O  O228  1  0.04466174  0.22684647  0.03589598  1
  O  O229  1  0.95827744  0.52021900  0.03564542  1
  O  O230  1  0.96355740  0.98394311  0.04800724  1
  O  O231  1  0.03775503  0.72306644  0.03301980  1
  O  O232  1  0.75159157  0.90993428  0.01092630  1
  O  O233  1  0.25005167  0.83282715  0.06218356  1
  O  O234  1  0.25022075  0.34145225  0.06427730  1
  O  O235  1  0.75004679  0.39843665  0.00944189  1
  O  O236  1  0.24993074  0.66095612  0.07115659  1
  O  O237  1  0.75034146  0.08507455  0.01819980  1
  O  O238  1  0.75000798  0.39293688  0.05904846  1
  O  O239  1  0.24997042  0.36629402  0.01610765  1
  O  O240  1  0.45736024  0.49715266  0.10000515  1
  O  O241  1  0.54294493  0.76002038  0.11698373  1
  O  O242  1  0.54280577  0.28181229  0.10899090  1
  O  O243  1  0.45611691  0.97528766  0.10742896  1
  O  O244  1  0.04376568  0.97530395  0.10742953  1
  O  O245  1  0.95673798  0.28180036  0.10897776  1
  O  O246  1  0.95676647  0.76002236  0.11701146  1
  O  O247  1  0.04254737  0.49710886  0.10000848  1
  O  O248  1  0.74999710  0.64840999  0.08780433  1
  O  O249  1  0.24989742  0.60535244  0.13047310  1
  O  O250  1  0.24987675  0.08794218  0.13621833  1
  O  O251  1  0.74970555  0.17224611  0.07910661  1
  O  O252  1  0.25001155  0.43296326  0.13895081  1
  O  O253  1  0.75010522  0.82022959  0.07756822  1
  O  O254  1  0.74979926  0.14718142  0.12868717  1
  O  O255  1  0.24999262  0.10966479  0.08669892  1
  O  O256  1  0.45721099  0.26001663  0.17095692  1
  O  O257  1  0.54309662  0.52259665  0.18718998  1
  O  O258  1  0.54309285  0.04590827  0.18050797  1
  O  O259  1  0.45672013  0.73764813  0.17793872  1
  O  O260  1  0.04307769  0.73765844  0.17793776  1
  O  O261  1  0.95663659  0.04601216  0.18048703  1
  O  O262  1  0.95691217  0.52259837  0.18717780  1
  O  O263  1  0.04277778  0.26003597  0.17094660  1
  O  O264  1  0.74999491  0.41244286  0.15742832  1
  O  O265  1  0.25000153  0.37049394  0.20055252  1
  O  O266  1  0.24993552  0.84724750  0.20775821  1
  O  O267  1  0.74994789  0.93510410  0.15102258  1
  O  O268  1  0.24991053  0.19828162  0.21021987  1
  O  O269  1  0.74992616  0.58502594  0.14804667  1
  O  O270  1  0.75003697  0.91103209  0.20036110  1
  O  O271  1  0.24996898  0.87326034  0.15850074  1
  O  O272  1  0.45694139  0.02293349  0.24178108  1
  O  O273  1  0.54291470  0.28653140  0.25813427  1
  O  O274  1  0.54311233  0.80746398  0.25159703  1
  O  O275  1  0.45701215  0.49998183  0.24871180  1
  O  O276  1  0.04272770  0.50000149  0.24869970  1
  O  O277  1  0.95676223  0.80740394  0.25160641  1
  O  O278  1  0.95698563  0.28651413  0.25813099  1
  O  O279  1  0.04285828  0.02296633  0.24177101  1
  O  O280  1  0.74984807  0.17638703  0.22843373  1
  O  O281  1  0.24991844  0.13326043  0.27143454  1
  O  O282  1  0.24981818  0.60939000  0.27852573  1
  O  O283  1  0.74995423  0.69744478  0.22184690  1
  O  O284  1  0.24979568  0.96087361  0.28100395  1
  O  O285  1  0.74996942  0.34861806  0.21886844  1
  O  O286  1  0.74974788  0.67217547  0.27116623  1
  O  O287  1  0.24995920  0.63500675  0.22916106  1
  O  O288  1  0.45689642  0.78410772  0.31269466  1
  O  O289  1  0.54291991  0.04981964  0.32834681  1
  O  O290  1  0.54262201  0.57021758  0.32277631  1
  O  O291  1  0.45729790  0.26431185  0.31946441  1
  O  O292  1  0.04265751  0.26430738  0.31946353  1
  O  O293  1  0.95716045  0.57027073  0.32277729  1
  O  O294  1  0.95639703  0.04986861  0.32837805  1
  O  O295  1  0.04287096  0.78405046  0.31268731  1
  O  O296  1  0.74989877  0.93846692  0.29909481  1
  O  O297  1  0.24965993  0.89520013  0.34187893  1
  O  O298  1  0.24995634  0.37376951  0.34940521  1
  O  O299  1  0.74999168  0.46012709  0.29313021  1
  O  O300  1  0.24984444  0.72286360  0.35216604  1
  O  O301  1  0.74988432  0.11119382  0.28907450  1
  O  O302  1  0.74998201  0.43605916  0.34260638  1
  O  O303  1  0.24996146  0.39926198  0.30002371  1
  O  O304  1  0.45677497  0.54737182  0.38513013  1
  O  O305  1  0.54400265  0.80770656  0.39950667  1
  O  O306  1  0.54293630  0.33603598  0.39445172  1
  O  O307  1  0.45690837  0.02777417  0.38744997  1
  O  O308  1  0.04303802  0.02777946  0.38746636  1
  O  O309  1  0.95708532  0.33602208  0.39444293  1
  O  O310  1  0.95597173  0.80777111  0.39945840  1
  O  O311  1  0.04225218  0.54742599  0.38518133  1
  O  O312  1  0.74974622  0.69714402  0.37016530  1
  O  O313  1  0.24997204  0.65797396  0.41468040  1
  O  O314  1  0.25005977  0.13365730  0.41837666  1
  O  O315  1  0.74994422  0.22780296  0.36387010  1
  O  O316  1  0.24991890  0.48604482  0.42455592  1
  O  O317  1  0.74977760  0.87010937  0.36015928  1
  O  O318  1  0.75001559  0.19949781  0.41287014  1
  O  O319  1  0.24990414  0.16521300  0.36958870  1
  O  O320  1  0.46044597  0.30118394  0.45739614  1
  O  O321  1  0.54107600  0.57583754  0.47493790  1
  O  O322  1  0.54386895  0.09068795  0.46191276  1
  O  O323  1  0.45390913  0.79117347  0.46228161  1
  O  O324  1  0.04614102  0.79113812  0.46224499  1
  O  O325  1  0.95619756  0.09068275  0.46190565  1
  O  O326  1  0.95862346  0.57577111  0.47496077  1
  O  O327  1  0.03991508  0.30110484  0.45735966  1
  O  O328  1  0.74998678  0.46360226  0.44580180  1
  O  O329  1  0.24985631  0.42144289  0.48326075  1
  O  O330  1  0.24999428  0.92941984  0.48331239  1
  O  O331  1  0.74999174  0.99239801  0.42900268  1
  O  O332  1  0.24999330  0.24509078  0.49615552  1
  O  O333  1  0.75001126  0.63511707  0.43499068  1
  O  O334  1  0.75005758  0.94604435  0.47606396  1
  O  O335  1  0.25003940  0.91188258  0.43538312  1
  O  O336  1  0.03777291  0.40290908  0.53299232  1
  O  O337  1  0.96261782  0.14215485  0.54773822  1
  O  O338  1  0.95843142  0.60594895  0.53582433  1
  O  O339  1  0.04477183  0.89959386  0.53603944  1
  O  O340  1  0.45532148  0.89958183  0.53603423  1
  O  O341  1  0.54156124  0.60598156  0.53581272  1
  O  O342  1  0.53742837  0.14212819  0.54774103  1
  O  O343  1  0.46214983  0.40292400  0.53298040  1
  O  O344  1  0.75001246  0.21556637  0.51055078  1
  O  O345  1  0.25003170  0.29273128  0.56209649  1
  O  O346  1  0.25007195  0.78501508  0.56455710  1
  O  O347  1  0.75003911  0.72759342  0.50961805  1
  O  O348  1  0.25002451  0.46452877  0.57114777  1
  O  O349  1  0.75003802  0.04062487  0.51800995  1
  O  O350  1  0.75006245  0.73306446  0.55924782  1
  O  O351  1  0.24996274  0.75998775  0.51639565  1
  O  O352  1  0.04260075  0.62792239  0.60011394  1
  O  O353  1  0.95685587  0.36498506  0.61690724  1
  O  O354  1  0.95697697  0.84337374  0.60913681  1
  O  O355  1  0.04371762  0.14966602  0.60729011  1
  O  O356  1  0.45628555  0.14965877  0.60728937  1
  O  O357  1  0.54320117  0.84334236  0.60913500  1
  O  O358  1  0.54317220  0.36498860  0.61691002  1
  O  O359  1  0.45741118  0.62791197  0.60011443  1
  O  O360  1  0.74998535  0.47706106  0.58785183  1
  O  O361  1  0.24998802  0.51927349  0.63047730  1
  O  O362  1  0.25000002  0.03713551  0.63609297  1
  O  O363  1  0.75001941  0.95300223  0.57919930  1
  O  O364  1  0.25001346  0.69156534  0.63910465  1
  O  O365  1  0.74999235  0.30533181  0.57741707  1
  O  O366  1  0.75000740  0.97812896  0.62872171  1
  O  O367  1  0.24999193  0.01523240  0.58658117  1
  O  O368  1  0.04291727  0.86523474  0.67090729  1
  O  O369  1  0.95707370  0.60199582  0.68732864  1
  O  O370  1  0.95693283  0.07877597  0.68043679  1
  O  O371  1  0.04313800  0.38707313  0.67785816  1
  O  O372  1  0.45681506  0.38707571  0.67785737  1
  O  O373  1  0.54303580  0.07877863  0.68043451  1
  O  O374  1  0.54291461  0.60198872  0.68732599  1
  O  O375  1  0.45704029  0.86522379  0.67090642  1
  O  O376  1  0.74998823  0.71211290  0.65753978  1
  O  O377  1  0.24996628  0.75465050  0.70048051  1
  O  O378  1  0.24995671  0.27748921  0.70765457  1
  O  O379  1  0.74999015  0.18948728  0.65090927  1
  O  O380  1  0.24997991  0.92677950  0.71021726  1
  O  O381  1  0.74999816  0.53953706  0.64822151  1
  O  O382  1  0.74997909  0.21365878  0.70022387  1
  O  O383  1  0.24998600  0.25158604  0.65839910  1
  O  O384  1  0.04294018  0.10196903  0.74177908  1
  O  O385  1  0.95693503  0.83826177  0.75792659  1
  O  O386  1  0.95689167  0.31704539  0.75143484  1
  O  O387  1  0.04268427  0.62449760  0.74868089  1
  O  O388  1  0.45706158  0.62454090  0.74867626  1
  O  O389  1  0.54293768  0.31705886  0.75143329  1
  O  O390  1  0.54305079  0.83825851  0.75792987  1
  O  O391  1  0.45694051  0.10196334  0.74177414  1
  O  O392  1  0.74995647  0.94862072  0.72830624  1
  O  O393  1  0.24997682  0.99177125  0.77142114  1
  O  O394  1  0.24998529  0.51495836  0.77845093  1
  O  O395  1  0.74993039  0.42727132  0.72179384  1
  O  O396  1  0.25000131  0.16430152  0.78102089  1
  O  O397  1  0.74998057  0.77633243  0.71863146  1
  O  O398  1  0.74997313  0.45193808  0.77112758  1
  O  O399  1  0.24991886  0.48952175  0.72909563  1
  O  O400  1  0.04298384  0.34086525  0.81271118  1
  O  O401  1  0.95668354  0.07515829  0.82836997  1
  O  O402  1  0.95736474  0.55396861  0.82282529  1
  O  O403  1  0.04258204  0.86039583  0.81920149  1
  O  O404  1  0.45731785  0.86038017  0.81917602  1
  O  O405  1  0.54245629  0.55399903  0.82282247  1
  O  O406  1  0.54323135  0.07515215  0.82836234  1
  O  O407  1  0.45702772  0.34086690  0.81271327  1
  O  O408  1  0.74999726  0.18664618  0.79915303  1
  O  O409  1  0.24999166  0.22965255  0.84187854  1
  O  O410  1  0.25010241  0.75149898  0.84935747  1
  O  O411  1  0.74991311  0.66402882  0.79316600  1
  O  O412  1  0.24999082  0.40161033  0.85225972  1
  O  O413  1  0.74999152  0.01374551  0.78907786  1
  O  O414  1  0.74995207  0.68823552  0.84262324  1
  O  O415  1  0.24983095  0.72520656  0.79997932  1
  O  O416  1  0.04305330  0.57718894  0.88523537  1
  O  O417  1  0.95603233  0.31702557  0.89954516  1
  O  O418  1  0.95713690  0.78889633  0.89447216  1
  O  O419  1  0.04323860  0.09734961  0.88737190  1
  O  O420  1  0.45698911  0.09735478  0.88736631  1
  O  O421  1  0.54291184  0.78888988  0.89447345  1
  O  O422  1  0.54385900  0.31702032  0.89953329  1
  O  O423  1  0.45738450  0.57714565  0.88525991  1
  O  O424  1  0.75004885  0.42763545  0.87024892  1
  O  O425  1  0.25000568  0.46690940  0.91488008  1
  O  O426  1  0.25019131  0.99120578  0.91820753  1
  O  O427  1  0.74998499  0.89685568  0.86377232  1
  O  O428  1  0.25010792  0.63901050  0.92457079  1
  O  O429  1  0.75000989  0.25482323  0.86022277  1
  O  O430  1  0.75004868  0.92562201  0.91279551  1
  O  O431  1  0.25010254  0.96001301  0.86938471  1
  O  O432  1  0.04053452  0.82447249  0.95753924  1
  O  O433  1  0.95888364  0.54984188  0.97482491  1
  O  O434  1  0.95622161  0.03397056  0.96197952  1
  O  O435  1  0.04604416  0.33354885  0.96232352  1
  O  O436  1  0.45403427  0.33353544  0.96232047  1
  O  O437  1  0.54418629  0.03411291  0.96202335  1
  O  O438  1  0.54124018  0.54983783  0.97481074  1
  O  O439  1  0.46089787  0.82416557  0.95745875  1
  O  O440  1  0.75030342  0.66185562  0.94562032  1
  O  O441  1  0.25043321  0.70400748  0.98335350  1
  O  O442  1  0.25002431  0.19541581  0.98339871  1
  O  O443  1  0.75013642  0.13231318  0.92904168  1
  O  O444  1  0.25149722  0.88035933  0.99630755  1
  O  O445  1  0.75011555  0.49018264  0.93494036  1
  O  O446  1  0.75045064  0.17866930  0.97610868  1
  O  O447  1  0.25002938  0.21289970  0.93543552  1
