# generated using pymatgen
data_Li3PO4
_symmetry_space_group_name_H-M   'P 1'
_cell_length_a   6.15119200
_cell_length_b   14.50933100
_cell_length_c   44.11502799
_cell_angle_alpha   90.00000000
_cell_angle_beta   90.00000000
_cell_angle_gamma   90.00000000
_symmetry_Int_Tables_number   1
_chemical_formula_structural   Li3PO4
_chemical_formula_sum   'Li144 P48 O192'
_cell_volume   3937.25216501
_cell_formula_units_Z   48
loop_
 _symmetry_equiv_pos_site_id
 _symmetry_equiv_pos_as_xyz
  1  'x, y, z'
loop_
 _atom_site_type_symbol
 _atom_site_label
 _atom_site_symmetry_multiplicity
 _atom_site_fract_x
 _atom_site_fract_y
 _atom_site_fract_z
 _atom_site_occupancy
  Li  Li0  1  0.40964874  0.13727202  0.00314610  1
  Li  Li1  1  0.39043676  0.08308772  0.07191544  1
  Li  Li2  1  0.89840158  0.08379702  0.07128322  1
  Li  Li3  1  0.92209483  0.59551457  0.00786741  1
  Li  Li4  1  0.87272821  0.13769373  0.00298764  1
  Li  Li5  1  0.86481921  0.81086997  0.02595322  1
  Li  Li6  1  0.62520880  0.68765325  0.05770693  1
  Li  Li7  1  0.17354089  0.89669605  0.04161237  1
  Li  Li8  1  0.14341016  0.43038482  0.04824406  1
  Li  Li9  1  0.64631385  0.22558259  0.05464383  1
  Li  Li10  1  0.38566988  0.55086655  0.08355047  1
  Li  Li11  1  0.39323974  0.86218374  0.08883249  1
  Li  Li12  1  0.40692309  0.34618992  0.09609367  1
  Li  Li13  1  0.38720733  0.83989122  0.15703930  1
  Li  Li14  1  0.89350231  0.84047656  0.15692917  1
  Li  Li15  1  0.89063839  0.34351799  0.09756032  1
  Li  Li16  1  0.88934811  0.86299979  0.08904110  1
  Li  Li17  1  0.88791153  0.54798931  0.08382291  1
  Li  Li18  1  0.64033576  0.50394130  0.13141576  1
  Li  Li19  1  0.13823556  0.67535994  0.12435576  1
  Li  Li20  1  0.14605231  0.20310611  0.11270221  1
  Li  Li21  1  0.63934566  0.98140630  0.13760183  1
  Li  Li22  1  0.38964536  0.31394165  0.16491909  1
  Li  Li23  1  0.39240803  0.62957729  0.17059823  1
  Li  Li24  1  0.39303105  0.10603567  0.17751832  1
  Li  Li25  1  0.38888999  0.60294884  0.23960753  1
  Li  Li26  1  0.89314476  0.60230466  0.23976296  1
  Li  Li27  1  0.88833343  0.10634792  0.17755860  1
  Li  Li28  1  0.88748614  0.62953795  0.17071615  1
  Li  Li29  1  0.89316149  0.31390322  0.16517902  1
  Li  Li30  1  0.64041752  0.26692596  0.21226128  1
  Li  Li31  1  0.14025559  0.44083475  0.20424299  1
  Li  Li32  1  0.14054736  0.96491667  0.19582019  1
  Li  Li33  1  0.64090062  0.74420084  0.22112196  1
  Li  Li34  1  0.38790366  0.07731216  0.24743154  1
  Li  Li35  1  0.39102521  0.39309642  0.25180377  1
  Li  Li36  1  0.39513934  0.86878088  0.26040736  1
  Li  Li37  1  0.39181043  0.36754768  0.32093371  1
  Li  Li38  1  0.89211175  0.36743088  0.32087134  1
  Li  Li39  1  0.88828606  0.86898505  0.26021216  1
  Li  Li40  1  0.88893982  0.39306243  0.25185150  1
  Li  Li41  1  0.89271627  0.07773799  0.24738680  1
  Li  Li42  1  0.64089698  0.02799432  0.29491136  1
  Li  Li43  1  0.14148504  0.20428720  0.28596121  1
  Li  Li44  1  0.14116536  0.72912161  0.27887534  1
  Li  Li45  1  0.64159256  0.51040692  0.30272067  1
  Li  Li46  1  0.38575819  0.83986620  0.33062359  1
  Li  Li47  1  0.39530266  0.15511151  0.33251534  1
  Li  Li48  1  0.39250262  0.63364291  0.34352431  1
  Li  Li49  1  0.39138604  0.13013091  0.39976261  1
  Li  Li50  1  0.89614492  0.12801930  0.39920470  1
  Li  Li51  1  0.88986903  0.63351711  0.34334913  1
  Li  Li52  1  0.88783828  0.15499441  0.33216913  1
  Li  Li53  1  0.89407396  0.84002287  0.33073990  1
  Li  Li54  1  0.63673829  0.79585824  0.37931607  1
  Li  Li55  1  0.13921131  0.96605414  0.36971561  1
  Li  Li56  1  0.14252211  0.49248480  0.36111359  1
  Li  Li57  1  0.64383761  0.27231464  0.38186695  1
  Li  Li58  1  0.39486780  0.60981491  0.41456035  1
  Li  Li59  1  0.38411924  0.92215435  0.41830197  1
  Li  Li60  1  0.38966754  0.38851513  0.42162391  1
  Li  Li61  1  0.36980747  0.91109966  0.49200164  1
  Li  Li62  1  0.89617307  0.38967789  0.42299328  1
  Li  Li63  1  0.88471995  0.91786076  0.41884176  1
  Li  Li64  1  0.88975698  0.61374223  0.41292253  1
  Li  Li65  1  0.65813693  0.55842731  0.45963170  1
  Li  Li66  1  0.13694537  0.73311979  0.45510428  1
  Li  Li67  1  0.13885695  0.23664858  0.44473336  1
  Li  Li68  1  0.63996882  0.02588849  0.46565209  1
  Li  Li69  1  0.42190504  0.38646202  0.47986302  1
  Li  Li70  1  0.90285446  0.90496637  0.49139965  1
  Li  Li71  1  0.88580221  0.39416321  0.48229644  1
  Li  Li72  1  0.86513230  0.16246636  0.50302408  1
  Li  Li73  1  0.88495939  0.21827060  0.57193331  1
  Li  Li74  1  0.37723297  0.21660671  0.57100699  1
  Li  Li75  1  0.35558490  0.70529751  0.50832502  1
  Li  Li76  1  0.40279226  0.16155627  0.50291718  1
  Li  Li77  1  0.41305438  0.48946223  0.52588222  1
  Li  Li78  1  0.65094834  0.61272639  0.55803225  1
  Li  Li79  1  0.10585682  0.40412599  0.54174161  1
  Li  Li80  1  0.13233442  0.86899683  0.54813665  1
  Li  Li81  1  0.62811532  0.07501468  0.55479922  1
  Li  Li82  1  0.89006926  0.75007044  0.58401519  1
  Li  Li83  1  0.88052330  0.43709092  0.58885249  1
  Li  Li84  1  0.86686913  0.95363191  0.59606650  1
  Li  Li85  1  0.88899796  0.45911513  0.65709431  1
  Li  Li86  1  0.38130252  0.45963387  0.65730367  1
  Li  Li87  1  0.38201622  0.95675090  0.59727951  1
  Li  Li88  1  0.38596336  0.43787569  0.58930350  1
  Li  Li89  1  0.38849308  0.75045209  0.58389641  1
  Li  Li90  1  0.63400023  0.79694412  0.63145693  1
  Li  Li91  1  0.13660869  0.62409296  0.62450957  1
  Li  Li92  1  0.12812091  0.09669835  0.61255078  1
  Li  Li93  1  0.63509606  0.31921247  0.63798779  1
  Li  Li94  1  0.88578197  0.98543140  0.66498958  1
  Li  Li95  1  0.88299000  0.67090306  0.67105099  1
  Li  Li96  1  0.87995333  0.19307983  0.67721761  1
  Li  Li97  1  0.88559308  0.69666963  0.73990101  1
  Li  Li98  1  0.38298876  0.69660649  0.73996454  1
  Li  Li99  1  0.38548182  0.19326502  0.67722265  1
  Li  Li100  1  0.38678818  0.67064336  0.67115450  1
  Li  Li101  1  0.38288119  0.98635209  0.66537751  1
  Li  Li102  1  0.63584313  0.03231710  0.71255165  1
  Li  Li103  1  0.13349562  0.85812051  0.70447082  1
  Li  Li104  1  0.13297380  0.33361647  0.69582481  1
  Li  Li105  1  0.63462197  0.55486066  0.72108929  1
  Li  Li106  1  0.88706729  0.22208439  0.74730636  1
  Li  Li107  1  0.88292976  0.90608241  0.75195592  1
  Li  Li108  1  0.87974306  0.43156806  0.76071229  1
  Li  Li109  1  0.88274280  0.93306814  0.82098396  1
  Li  Li110  1  0.38231799  0.93302233  0.82091128  1
  Li  Li111  1  0.38759525  0.43161487  0.76058738  1
  Li  Li112  1  0.38616833  0.90572446  0.75183622  1
  Li  Li113  1  0.38110212  0.22231049  0.74714768  1
  Li  Li114  1  0.63474663  0.27194473  0.79458225  1
  Li  Li115  1  0.13527923  0.09445723  0.78592824  1
  Li  Li116  1  0.13347031  0.57114394  0.77915736  1
  Li  Li117  1  0.63435426  0.79069764  0.80334524  1
  Li  Li118  1  0.88891647  0.45924734  0.83070388  1
  Li  Li119  1  0.88021841  0.14424121  0.83248332  1
  Li  Li120  1  0.88245536  0.66672807  0.84363297  1
  Li  Li121  1  0.88320516  0.17092158  0.89995022  1
  Li  Li122  1  0.37785749  0.17188347  0.89949129  1
  Li  Li123  1  0.38524671  0.66700559  0.84354629  1
  Li  Li124  1  0.38820045  0.14538231  0.83239102  1
  Li  Li125  1  0.38069277  0.46006055  0.83083993  1
  Li  Li126  1  0.63886235  0.50360736  0.87925677  1
  Li  Li127  1  0.13574787  0.33293755  0.86967683  1
  Li  Li128  1  0.13386877  0.80837498  0.86162573  1
  Li  Li129  1  0.62795074  0.02900384  0.88203241  1
  Li  Li130  1  0.88016470  0.69079680  0.91488067  1
  Li  Li131  1  0.88905267  0.37828188  0.91829581  1
  Li  Li132  1  0.88434593  0.91405425  0.92195777  1
  Li  Li133  1  0.90429032  0.38987992  0.99199282  1
  Li  Li134  1  0.37764154  0.90994713  0.92297532  1
  Li  Li135  1  0.39012083  0.38115489  0.91859436  1
  Li  Li136  1  0.38681882  0.68448723  0.91258687  1
  Li  Li137  1  0.61548285  0.74206077  0.95966563  1
  Li  Li138  1  0.13881158  0.56614336  0.95493442  1
  Li  Li139  1  0.13660199  0.06390822  0.94483722  1
  Li  Li140  1  0.63642950  0.27420005  0.96597185  1
  Li  Li141  1  0.85139221  0.91432928  0.97987320  1
  Li  Li142  1  0.37247290  0.39404298  0.99146669  1
  Li  Li143  1  0.38900200  0.90529380  0.98231024  1
  P  P144  1  0.14183923  0.70089374  0.05830260  1
  P  P145  1  0.64210274  0.95934447  0.03504362  1
  P  P146  1  0.64319293  0.42091996  0.04304760  1
  P  P147  1  0.14457948  0.25482637  0.04399329  1
  P  P148  1  0.14136340  0.47188369  0.13809289  1
  P  P149  1  0.63971966  0.70978089  0.11717505  1
  P  P150  1  0.64412971  0.18307646  0.12399704  1
  P  P151  1  0.14064128  0.00018268  0.12685834  1
  P  P152  1  0.14037998  0.23467786  0.21892934  1
  P  P153  1  0.64042857  0.47318808  0.19825550  1
  P  P154  1  0.64071731  0.94705668  0.20687304  1
  P  P155  1  0.14091332  0.76208886  0.21039763  1
  P  P156  1  0.14080959  0.99723109  0.30134255  1
  P  P157  1  0.64094885  0.23676550  0.27949468  1
  P  P158  1  0.64098097  0.71050880  0.29015280  1
  P  P159  1  0.14139862  0.52604330  0.29253236  1
  P  P160  1  0.13990728  0.76192171  0.38573164  1
  P  P161  1  0.63973812  0.99674188  0.36206331  1
  P  P162  1  0.64308462  0.47587159  0.37252917  1
  P  P163  1  0.14157494  0.28934125  0.37206639  1
  P  P164  1  0.16342156  0.52240390  0.46970672  1
  P  P165  1  0.64238386  0.77000144  0.44932285  1
  P  P166  1  0.64203515  0.22997804  0.44947720  1
  P  P167  1  0.13799763  0.05834705  0.45481472  1
  P  P168  1  0.13326045  0.59880863  0.55855818  1
  P  P169  1  0.63386071  0.34096084  0.53493209  1
  P  P170  1  0.63192767  0.87867527  0.54303423  1
  P  P171  1  0.12940188  0.04526026  0.54395168  1
  P  P172  1  0.13397641  0.82842933  0.63816959  1
  P  P173  1  0.63618759  0.59026547  0.61753488  1
  P  P174  1  0.62998777  0.11697967  0.62389157  1
  P  P175  1  0.13424701  0.29965572  0.62684549  1
  P  P176  1  0.13504777  0.06492877  0.71898851  1
  P  P177  1  0.63419539  0.82638555  0.69839306  1
  P  P178  1  0.63381952  0.35270491  0.70693506  1
  P  P179  1  0.13435374  0.53750493  0.71067882  1
  P  P180  1  0.13468894  0.30237986  0.80124566  1
  P  P181  1  0.63433701  0.06312463  0.77953540  1
  P  P182  1  0.63396538  0.58975316  0.79034526  1
  P  P183  1  0.13399262  0.77426672  0.79278733  1
  P  P184  1  0.13496740  0.53782685  0.88568935  1
  P  P185  1  0.63498094  0.30304546  0.86200653  1
  P  P186  1  0.63244039  0.82470644  0.87270085  1
  P  P187  1  0.13202755  0.01131253  0.87221328  1
  P  P188  1  0.11083114  0.77809269  0.96953558  1
  P  P189  1  0.63227495  0.52979941  0.94937480  1
  P  P190  1  0.63295773  0.07048471  0.94966670  1
  P  P191  1  0.13723475  0.24195577  0.95497976  1
  O  O192  1  0.34789751  0.68734958  0.03980485  1
  O  O193  1  0.43700887  0.95092479  0.05542727  1
  O  O194  1  0.43358252  0.47797849  0.04785111  1
  O  O195  1  0.34994134  0.19256529  0.04198099  1
  O  O196  1  0.94163346  0.19125872  0.04232917  1
  O  O197  1  0.85006462  0.48492349  0.04392830  1
  O  O198  1  0.85807095  0.93702929  0.05226223  1
  O  O199  1  0.92246878  0.69083936  0.03977920  1
  O  O200  1  0.62936369  0.88559500  0.00872773  1
  O  O201  1  0.13766146  0.80033228  0.07226258  1
  O  O202  1  0.14688890  0.30471121  0.07574088  1
  O  O203  1  0.63753866  0.36740386  0.01249859  1
  O  O204  1  0.65268742  0.05740250  0.02289961  1
  O  O205  1  0.65856669  0.35060202  0.06995856  1
  O  O206  1  0.14031142  0.33224587  0.01953231  1
  O  O207  1  0.34910317  0.46091619  0.11822167  1
  O  O208  1  0.43268411  0.72050292  0.13711759  1
  O  O209  1  0.43814871  0.24545102  0.12698151  1
  O  O210  1  0.34606432  0.93745747  0.12469763  1
  O  O211  1  0.93311924  0.93869003  0.12445219  1
  O  O212  1  0.85266593  0.24374317  0.12750580  1
  O  O213  1  0.84575717  0.72041316  0.13729534  1
  O  O214  1  0.93407259  0.46065473  0.11802695  1
  O  O215  1  0.63844091  0.61375836  0.10097112  1
  O  O216  1  0.14003550  0.56818616  0.15349579  1
  O  O217  1  0.14063228  0.05022432  0.15807607  1
  O  O218  1  0.64510909  0.13485992  0.09255405  1
  O  O219  1  0.13190032  0.62792066  0.08439792  1
  O  O220  1  0.64056297  0.78383443  0.09178172  1
  O  O221  1  0.64061793  0.11009949  0.14999557  1
  O  O222  1  0.14234335  0.07230478  0.10043444  1
  O  O223  1  0.34707525  0.22254476  0.19883624  1
  O  O224  1  0.43339522  0.48569276  0.21826299  1
  O  O225  1  0.43368123  0.00853415  0.20983590  1
  O  O226  1  0.34814683  0.70073124  0.20753162  1
  O  O227  1  0.93408106  0.70050088  0.20765365  1
  O  O228  1  0.84778860  0.00851212  0.20983559  1
  O  O229  1  0.84738765  0.48570032  0.21828268  1
  O  O230  1  0.93299956  0.22225405  0.19900379  1
  O  O231  1  0.64074538  0.37572840  0.18358266  1
  O  O232  1  0.14020683  0.33230264  0.23347524  1
  O  O233  1  0.14135928  0.81133575  0.24169286  1
  O  O234  1  0.64055019  0.89803005  0.17555693  1
  O  O235  1  0.14074292  0.39531230  0.16292818  1
  O  O236  1  0.64033949  0.54814711  0.17288416  1
  O  O237  1  0.64092950  0.87380644  0.23284168  1
  O  O238  1  0.14024847  0.83510849  0.18439430  1
  O  O239  1  0.34789211  0.98457039  0.28134716  1
  O  O240  1  0.43455988  0.25004608  0.29958143  1
  O  O241  1  0.43357710  0.77163778  0.29302541  1
  O  O242  1  0.34866006  0.46493334  0.28914477  1
  O  O243  1  0.93399915  0.46500096  0.28908765  1
  O  O244  1  0.84819865  0.77175475  0.29306439  1
  O  O245  1  0.84835896  0.25008540  0.29936899  1
  O  O246  1  0.93396167  0.98489260  0.28128497  1
  O  O247  1  0.64048300  0.13826720  0.26563606  1
  O  O248  1  0.14142648  0.09576238  0.31516955  1
  O  O249  1  0.14127116  0.57372100  0.32418034  1
  O  O250  1  0.64108678  0.66081871  0.25891584  1
  O  O251  1  0.14092892  0.15995885  0.24439984  1
  O  O252  1  0.64026029  0.31079935  0.25386601  1
  O  O253  1  0.64089724  0.63776271  0.31627007  1
  O  O254  1  0.14135206  0.60039787  0.26699916  1
  O  O255  1  0.34497160  0.74892507  0.36531938  1
  O  O256  1  0.43280705  0.00952798  0.38191126  1
  O  O257  1  0.43577206  0.53676833  0.37678692  1
  O  O258  1  0.34998397  0.22934895  0.36852909  1
  O  O259  1  0.93620189  0.22798311  0.36801290  1
  O  O260  1  0.84996916  0.53711775  0.37670672  1
  O  O261  1  0.84564441  0.00828000  0.38213903  1
  O  O262  1  0.93130412  0.74747184  0.36605188  1
  O  O263  1  0.63919089  0.89882506  0.34776314  1
  O  O264  1  0.13730334  0.86015389  0.39950137  1
  O  O265  1  0.13901342  0.33563043  0.40376589  1
  O  O266  1  0.64259182  0.43022023  0.34066090  1
  O  O267  1  0.13998307  0.92355858  0.32713287  1
  O  O268  1  0.64138274  0.07161595  0.33652995  1
  O  O269  1  0.64493121  0.39915397  0.39729008  1
  O  O270  1  0.14194123  0.36582824  0.34718144  1
  O  O271  1  0.36797938  0.49561378  0.44976935  1
  O  O272  1  0.43816101  0.78241466  0.47004353  1
  O  O273  1  0.43226698  0.28978586  0.45308571  1
  O  O274  1  0.34261945  0.99431010  0.45625159  1
  O  O275  1  0.93340859  0.99471650  0.45562626  1
  O  O276  1  0.84485729  0.29356247  0.45493983  1
  O  O277  1  0.85743039  0.79035457  0.46602743  1
  O  O278  1  0.94638725  0.50047780  0.45203777  1
  O  O279  1  0.64507157  0.66786545  0.43636227  1
  O  O280  1  0.18144319  0.62243680  0.47891007  1
  O  O281  1  0.13618514  0.13310613  0.47994120  1
  O  O282  1  0.64866397  0.19023734  0.41694837  1
  O  O283  1  0.14399136  0.68854426  0.41169344  1
  O  O284  1  0.62508565  0.83731890  0.42144438  1
  O  O285  1  0.63941122  0.15024036  0.47248273  1
  O  O286  1  0.14224194  0.11365486  0.42435915  1
  O  O287  1  0.16934464  0.45071081  0.49697162  1
  O  O288  1  0.92757546  0.61192651  0.53995935  1
  O  O289  1  0.84026502  0.34929774  0.55507669  1
  O  O290  1  0.84176425  0.82178182  0.54800090  1
  O  O291  1  0.92434709  0.10759700  0.54185901  1
  O  O292  1  0.33265166  0.10869401  0.54231025  1
  O  O293  1  0.42563525  0.81422615  0.54391957  1
  O  O294  1  0.41930241  0.36406663  0.55239239  1
  O  O295  1  0.35302530  0.60883252  0.54008501  1
  O  O296  1  0.64554524  0.41439081  0.50852295  1
  O  O297  1  0.13736466  0.49961648  0.57269240  1
  O  O298  1  0.12653288  0.99553611  0.57571855  1
  O  O299  1  0.63770527  0.93183407  0.51243462  1
  O  O300  1  0.62122902  0.24273287  0.52295687  1
  O  O301  1  0.61552792  0.94923475  0.56986973  1
  O  O302  1  0.13447939  0.96758863  0.51955427  1
  O  O303  1  0.92562345  0.83984821  0.61842594  1
  O  O304  1  0.84291043  0.57933716  0.63750651  1
  O  O305  1  0.83577678  0.05453440  0.62704074  1
  O  O306  1  0.92841077  0.36215522  0.62467490  1
  O  O307  1  0.34134643  0.36145429  0.62467030  1
  O  O308  1  0.42130507  0.05644143  0.62740864  1
  O  O309  1  0.42969633  0.57983781  0.63758288  1
  O  O310  1  0.34054278  0.83962595  0.61795727  1
  O  O311  1  0.63790129  0.68620533  0.60124153  1
  O  O312  1  0.13497602  0.73204801  0.65352655  1
  O  O313  1  0.13304599  0.24922187  0.65799586  1
  O  O314  1  0.63015671  0.16507905  0.59242355  1
  O  O315  1  0.14259332  0.67210707  0.58457418  1
  O  O316  1  0.63518760  0.51626204  0.59211464  1
  O  O317  1  0.63287412  0.19013420  0.64984430  1
  O  O318  1  0.13362112  0.22781841  0.60034306  1
  O  O319  1  0.92850169  0.07717615  0.69886028  1
  O  O320  1  0.84104634  0.81363702  0.71843602  1
  O  O321  1  0.84025266  0.29087713  0.70977624  1
  O  O322  1  0.92763801  0.59914546  0.70779643  1
  O  O323  1  0.34155793  0.59889529  0.70783447  1
  O  O324  1  0.42623922  0.29150533  0.70969187  1
  O  O325  1  0.42723625  0.81345272  0.71839515  1
  O  O326  1  0.34265448  0.07737965  0.69910701  1
  O  O327  1  0.63445125  0.92397508  0.68384567  1
  O  O328  1  0.13461743  0.96737395  0.73362356  1
  O  O329  1  0.13383155  0.48877049  0.74204871  1
  O  O330  1  0.63486320  0.40234192  0.67570989  1
  O  O331  1  0.13546384  0.90468359  0.66310902  1
  O  O332  1  0.63456886  0.75180100  0.67292863  1
  O  O333  1  0.63405176  0.42561836  0.73301021  1
  O  O334  1  0.13452571  0.46420395  0.68476233  1
  O  O335  1  0.92755914  0.31523826  0.78127491  1
  O  O336  1  0.84108340  0.05001363  0.79955353  1
  O  O337  1  0.84100116  0.52843237  0.79331787  1
  O  O338  1  0.92674798  0.83540061  0.78939343  1
  O  O339  1  0.34135535  0.83531923  0.78933150  1
  O  O340  1  0.42649357  0.52865624  0.79332225  1
  O  O341  1  0.42762581  0.04999987  0.79955526  1
  O  O342  1  0.34146240  0.31500414  0.78119225  1
  O  O343  1  0.63423719  0.16135726  0.76549254  1
  O  O344  1  0.13427854  0.20384438  0.81506694  1
  O  O345  1  0.13399242  0.72665274  0.82443446  1
  O  O346  1  0.63428303  0.63869910  0.75899822  1
  O  O347  1  0.13430936  0.13977306  0.74442167  1
  O  O348  1  0.63438841  0.98863174  0.75404437  1
  O  O349  1  0.63411337  0.66286741  0.81635118  1
  O  O350  1  0.13394897  0.69991377  0.76724997  1
  O  O351  1  0.93021728  0.55079307  0.86522805  1
  O  O352  1  0.84146139  0.29062194  0.88196343  1
  O  O353  1  0.83949274  0.76369134  0.87694589  1
  O  O354  1  0.92357266  0.07117874  0.86867768  1
  O  O355  1  0.33739884  0.07270754  0.86817432  1
  O  O356  1  0.42568567  0.76327166  0.87686751  1
  O  O357  1  0.42888050  0.29104098  0.88201853  1
  O  O358  1  0.34413410  0.55267277  0.86614742  1
  O  O359  1  0.63504004  0.40110710  0.84783504  1
  O  O360  1  0.13762752  0.43949391  0.89940413  1
  O  O361  1  0.13542702  0.96512478  0.90392532  1
  O  O362  1  0.63249423  0.87029167  0.84082268  1
  O  O363  1  0.13537933  0.37592988  0.82709698  1
  O  O364  1  0.63484962  0.22842738  0.83641509  1
  O  O365  1  0.62987894  0.90156804  0.89740701  1
  O  O366  1  0.13236440  0.93482838  0.84733102  1
  O  O367  1  0.90632601  0.80523909  0.94965079  1
  O  O368  1  0.83714699  0.51723656  0.96997870  1
  O  O369  1  0.84341063  0.01107469  0.95326777  1
  O  O370  1  0.93297757  0.30614493  0.95639832  1
  O  O371  1  0.34232271  0.30525404  0.95572254  1
  O  O372  1  0.43080353  0.00651498  0.95507068  1
  O  O373  1  0.41753772  0.50939915  0.96614122  1
  O  O374  1  0.32826480  0.80000523  0.95198828  1
  O  O375  1  0.62970662  0.63203930  0.93648578  1
  O  O376  1  0.09273599  0.67788086  0.97857974  1
  O  O377  1  0.13912727  0.16692293  0.98002627  1
  O  O378  1  0.62604958  0.11035052  0.91716181  1
  O  O379  1  0.13024126  0.61116925  0.91166737  1
  O  O380  1  0.64894853  0.46262769  0.92144779  1
  O  O381  1  0.63556659  0.15005599  0.97269094  1
  O  O382  1  0.13227118  0.18674823  0.92449611  1
  O  O383  1  0.10512457  0.84958141  0.99688318  1
