# generated using pymatgen
data_Li3PO4
_symmetry_space_group_name_H-M   'P 1'
_cell_length_a   6.15119200
_cell_length_b   14.50933100
_cell_length_c   44.22365521
_cell_angle_alpha   90.00000000
_cell_angle_beta   90.00000000
_cell_angle_gamma   90.00000000
_symmetry_Int_Tables_number   1
_chemical_formula_structural   Li3PO4
_chemical_formula_sum   'Li144 P48 O192'
_cell_volume   3946.94711008
_cell_formula_units_Z   48
loop_
 _symmetry_equiv_pos_site_id
 _symmetry_equiv_pos_as_xyz
  1  'x, y, z'
loop_
 _atom_site_type_symbol
 _atom_site_label
 _atom_site_symmetry_multiplicity
 _atom_site_fract_x
 _atom_site_fract_y
 _atom_site_fract_z
 _atom_site_occupancy
  Li  Li0  1  0.47268354  0.13743671  0.00258483  1
  Li  Li1  1  0.45482815  0.07523729  0.07279487  1
  Li  Li2  1  0.95990342  0.07622896  0.07199142  1
  Li  Li3  1  0.92628399  0.56637349  0.01148271  1
  Li  Li4  1  0.94230544  0.13663492  0.00278064  1
  Li  Li5  1  0.93914839  0.80338438  0.02394935  1
  Li  Li6  1  0.69085630  0.68382066  0.05900490  1
  Li  Li7  1  0.23479756  0.89552856  0.04099948  1
  Li  Li8  1  0.18825849  0.42122200  0.04696609  1
  Li  Li9  1  0.70758267  0.21891426  0.05500608  1
  Li  Li10  1  0.44496914  0.54095282  0.08394413  1
  Li  Li11  1  0.45901673  0.85758550  0.08835945  1
  Li  Li12  1  0.46374912  0.33699907  0.09702431  1
  Li  Li13  1  0.44950192  0.83507482  0.15735882  1
  Li  Li14  1  0.95640738  0.83511739  0.15733899  1
  Li  Li15  1  0.94664368  0.33503807  0.09771196  1
  Li  Li16  1  0.95395422  0.85659338  0.08867037  1
  Li  Li17  1  0.94577153  0.54047188  0.08414020  1
  Li  Li18  1  0.70082905  0.49566266  0.13170790  1
  Li  Li19  1  0.20192079  0.66817838  0.12440057  1
  Li  Li20  1  0.20689794  0.19609806  0.11305303  1
  Li  Li21  1  0.70299349  0.97565846  0.13808813  1
  Li  Li22  1  0.45183087  0.30833229  0.16533232  1
  Li  Li23  1  0.45657300  0.62414451  0.17102715  1
  Li  Li24  1  0.45578055  0.10104550  0.17747492  1
  Li  Li25  1  0.45410904  0.59903645  0.23933752  1
  Li  Li26  1  0.95766694  0.59889935  0.23955650  1
  Li  Li27  1  0.95336557  0.10091414  0.17750025  1
  Li  Li28  1  0.95316147  0.62337939  0.17120960  1
  Li  Li29  1  0.95616988  0.30759288  0.16558810  1
  Li  Li30  1  0.70351331  0.26183356  0.21256765  1
  Li  Li31  1  0.20486459  0.43588612  0.20451320  1
  Li  Li32  1  0.20599084  0.96100667  0.19593387  1
  Li  Li33  1  0.70551258  0.74044642  0.22118034  1
  Li  Li34  1  0.45175057  0.07397697  0.24724632  1
  Li  Li35  1  0.45655709  0.38957269  0.25176723  1
  Li  Li36  1  0.45816351  0.86485892  0.26049696  1
  Li  Li37  1  0.45511704  0.36273123  0.32058818  1
  Li  Li38  1  0.95621959  0.36272302  0.32072814  1
  Li  Li39  1  0.95304234  0.86466356  0.26063891  1
  Li  Li40  1  0.95299937  0.38873492  0.25173411  1
  Li  Li41  1  0.95611767  0.07333187  0.24720151  1
  Li  Li42  1  0.70317291  0.02477344  0.29460353  1
  Li  Li43  1  0.20329508  0.20173894  0.28598089  1
  Li  Li44  1  0.20635664  0.72436816  0.27897269  1
  Li  Li45  1  0.70643647  0.50524467  0.30300365  1
  Li  Li46  1  0.45128614  0.83754760  0.33027386  1
  Li  Li47  1  0.45601246  0.15097776  0.33275708  1
  Li  Li48  1  0.45649261  0.63071213  0.34280250  1
  Li  Li49  1  0.44660711  0.12393183  0.40062856  1
  Li  Li50  1  0.94648327  0.12574383  0.39969539  1
  Li  Li51  1  0.95386783  0.62974205  0.34255226  1
  Li  Li52  1  0.94875807  0.15092462  0.33241563  1
  Li  Li53  1  0.95781608  0.83654567  0.33051219  1
  Li  Li54  1  0.70531215  0.79370073  0.37960051  1
  Li  Li55  1  0.19972535  0.96372274  0.36978496  1
  Li  Li56  1  0.20605862  0.48716419  0.36041791  1
  Li  Li57  1  0.70070738  0.26786034  0.38216619  1
  Li  Li58  1  0.46057663  0.60624074  0.41208366  1
  Li  Li59  1  0.45578066  0.91843463  0.41920977  1
  Li  Li60  1  0.44753494  0.38224681  0.42201543  1
  Li  Li61  1  0.99991210  0.92454455  0.49332764  1
  Li  Li62  1  0.95257865  0.38050925  0.42285775  1
  Li  Li63  1  0.94712821  0.91996004  0.41951201  1
  Li  Li64  1  0.95691007  0.61359219  0.40895509  1
  Li  Li65  1  0.71140907  0.54506773  0.45468862  1
  Li  Li66  1  0.21904799  0.72744879  0.45307250  1
  Li  Li67  1  0.19481327  0.23211980  0.44528036  1
  Li  Li68  1  0.66841726  0.01031393  0.47346229  1
  Li  Li69  1  0.47735515  0.38056125  0.48097394  1
  Li  Li70  1  0.99604080  0.68822710  0.50189868  1
  Li  Li71  1  0.93446602  0.38671441  0.48251801  1
  Li  Li72  1  0.92852205  0.16124148  0.50206749  1
  Li  Li73  1  0.94571864  0.22420875  0.57297603  1
  Li  Li74  1  0.43925761  0.22289214  0.57216084  1
  Li  Li75  1  0.47423205  0.73229963  0.51143545  1
  Li  Li76  1  0.45847279  0.16259552  0.50256426  1
  Li  Li77  1  0.45934846  0.49531549  0.52431011  1
  Li  Li78  1  0.70926740  0.61456833  0.55899346  1
  Li  Li79  1  0.16377051  0.40317000  0.54123394  1
  Li  Li80  1  0.21041885  0.87897299  0.54674508  1
  Li  Li81  1  0.69285215  0.08162255  0.55448783  1
  Li  Li82  1  0.95539232  0.75847113  0.58360915  1
  Li  Li83  1  0.93891166  0.44158752  0.58852155  1
  Li  Li84  1  0.93492734  0.96309314  0.59687231  1
  Li  Li85  1  0.94828120  0.46500053  0.65765203  1
  Li  Li86  1  0.44347691  0.46507281  0.65770426  1
  Li  Li87  1  0.45479840  0.96485371  0.59719049  1
  Li  Li88  1  0.44516632  0.44297274  0.58885139  1
  Li  Li89  1  0.45448379  0.75988237  0.58404428  1
  Li  Li90  1  0.69824169  0.80353598  0.63172561  1
  Li  Li91  1  0.19952484  0.63105166  0.62457212  1
  Li  Li92  1  0.19428448  0.10283570  0.61318023  1
  Li  Li93  1  0.69539158  0.32436046  0.63815922  1
  Li  Li94  1  0.94748638  0.99199453  0.66521385  1
  Li  Li95  1  0.94466057  0.67652129  0.67120080  1
  Li  Li96  1  0.94352316  0.19976718  0.67776001  1
  Li  Li97  1  0.94572952  0.70226923  0.73981334  1
  Li  Li98  1  0.44365908  0.70233745  0.73980814  1
  Li  Li99  1  0.44674694  0.20004992  0.67776767  1
  Li  Li100  1  0.44790219  0.67622275  0.67116911  1
  Li  Li101  1  0.44446768  0.99126161  0.66561800  1
  Li  Li102  1  0.69613397  0.03897330  0.71260553  1
  Li  Li103  1  0.19650100  0.86403668  0.70443101  1
  Li  Li104  1  0.19496718  0.33990304  0.69611746  1
  Li  Li105  1  0.69512441  0.56022571  0.72169547  1
  Li  Li106  1  0.94959269  0.22652549  0.74747385  1
  Li  Li107  1  0.94470626  0.91132225  0.75179047  1
  Li  Li108  1  0.94236650  0.43540277  0.76044752  1
  Li  Li109  1  0.94634349  0.93669016  0.82053021  1
  Li  Li110  1  0.44572268  0.93689611  0.82054092  1
  Li  Li111  1  0.44807624  0.43524215  0.76035512  1
  Li  Li112  1  0.44772014  0.91139705  0.75180331  1
  Li  Li113  1  0.44353576  0.22651500  0.74776103  1
  Li  Li114  1  0.69683791  0.27530670  0.79460892  1
  Li  Li115  1  0.19546178  0.09834651  0.78601327  1
  Li  Li116  1  0.19454000  0.57576537  0.77890136  1
  Li  Li117  1  0.69535011  0.79442607  0.80299263  1
  Li  Li118  1  0.94775255  0.46314195  0.83022841  1
  Li  Li119  1  0.94263224  0.14895850  0.83264809  1
  Li  Li120  1  0.94368268  0.67002553  0.84304898  1
  Li  Li121  1  0.95459340  0.17622914  0.90095222  1
  Li  Li122  1  0.45539003  0.17422144  0.89944770  1
  Li  Li123  1  0.44493829  0.67053276  0.84280747  1
  Li  Li124  1  0.44984630  0.14890804  0.83219813  1
  Li  Li125  1  0.44222024  0.46335416  0.83043137  1
  Li  Li126  1  0.69479973  0.50659649  0.87990617  1
  Li  Li127  1  0.19655547  0.33620993  0.86998286  1
  Li  Li128  1  0.19484074  0.81381077  0.86052537  1
  Li  Li129  1  0.70175456  0.03262135  0.88201777  1
  Li  Li130  1  0.94007883  0.69522212  0.91225113  1
  Li  Li131  1  0.94381095  0.38136274  0.91976071  1
  Li  Li132  1  0.94992915  0.91777101  0.92184852  1
  Li  Li133  1  0.40167008  0.37301748  0.99401017  1
  Li  Li134  1  0.44659220  0.91898123  0.92242308  1
  Li  Li135  1  0.45100566  0.38102177  0.91968989  1
  Li  Li136  1  0.44265177  0.68844005  0.90966389  1
  Li  Li137  1  0.68794413  0.75518461  0.95486574  1
  Li  Li138  1  0.18048098  0.57235435  0.95292719  1
  Li  Li139  1  0.20592935  0.06732961  0.94564729  1
  Li  Li140  1  0.73236727  0.28849090  0.97327320  1
  Li  Li141  1  0.92168733  0.91796797  0.98069635  1
  Li  Li142  1  0.40516375  0.61317983  0.00143047  1
  Li  Li143  1  0.46464252  0.91287028  0.98238244  1
  P  P144  1  0.20141210  0.69217082  0.05747497  1
  P  P145  1  0.70931864  0.95221837  0.03452594  1
  P  P146  1  0.69158013  0.41304312  0.04237694  1
  P  P147  1  0.20784729  0.24179771  0.04621020  1
  P  P148  1  0.20242194  0.46537208  0.13812257  1
  P  P149  1  0.70177697  0.70350725  0.11729865  1
  P  P150  1  0.70615917  0.17615927  0.12484478  1
  P  P151  1  0.20366754  0.99278301  0.12701449  1
  P  P152  1  0.20381617  0.23001848  0.21906050  1
  P  P153  1  0.70422898  0.46825984  0.19820327  1
  P  P154  1  0.70485489  0.94234119  0.20705888  1
  P  P155  1  0.20465454  0.75783012  0.21044060  1
  P  P156  1  0.20307139  0.99376691  0.30118087  1
  P  P157  1  0.70386921  0.23272481  0.27939454  1
  P  P158  1  0.70527721  0.70625563  0.28986250  1
  P  P159  1  0.20590914  0.52212611  0.29214599  1
  P  P160  1  0.20702018  0.75943808  0.38519710  1
  P  P161  1  0.70168544  0.99307505  0.36181230  1
  P  P162  1  0.70499730  0.47134688  0.37181669  1
  P  P163  1  0.20158571  0.28507980  0.37183780  1
  P  P164  1  0.20522772  0.51461301  0.46895189  1
  P  P165  1  0.71386164  0.75544665  0.44902629  1
  P  P166  1  0.69694733  0.22374224  0.45003724  1
  P  P167  1  0.19581449  0.05665435  0.45394624  1
  P  P168  1  0.19862374  0.60723317  0.55761935  1
  P  P169  1  0.69009087  0.34676886  0.53464692  1
  P  P170  1  0.70853373  0.88646852  0.54199913  1
  P  P171  1  0.19189689  0.05761094  0.54595196  1
  P  P172  1  0.19677957  0.83464128  0.63796200  1
  P  P173  1  0.69821054  0.59629627  0.61743999  1
  P  P174  1  0.69370935  0.12388142  0.62485964  1
  P  P175  1  0.19548539  0.30700739  0.62725167  1
  P  P176  1  0.19606047  0.07016726  0.71901143  1
  P  P177  1  0.69619652  0.83198616  0.69824223  1
  P  P178  1  0.69530368  0.35775563  0.70722788  1
  P  P179  1  0.19539909  0.54306200  0.71062120  1
  P  P180  1  0.19619081  0.30669532  0.80130101  1
  P  P181  1  0.69618496  0.06732512  0.77941590  1
  P  P182  1  0.69462756  0.59403309  0.79004516  1
  P  P183  1  0.19506283  0.77831173  0.79218544  1
  P  P184  1  0.19238763  0.54121661  0.88531179  1
  P  P185  1  0.69693388  0.30728303  0.86193596  1
  P  P186  1  0.69534808  0.82896235  0.87177141  1
  P  P187  1  0.19966992  0.01527801  0.87180567  1
  P  P188  1  0.19391544  0.78522664  0.96877206  1
  P  P189  1  0.68661433  0.54502960  0.94906010  1
  P  P190  1  0.70333345  0.07580383  0.95009256  1
  P  P191  1  0.20556920  0.24276940  0.95410619  1
  O  O192  1  0.41016096  0.67472734  0.03888411  1
  O  O193  1  0.50428908  0.94446678  0.05499132  1
  O  O194  1  0.48252283  0.47335254  0.04663735  1
  O  O195  1  0.41197160  0.17838498  0.04395309  1
  O  O196  1  0.00264277  0.17941184  0.04376987  1
  O  O197  1  0.89630261  0.47922962  0.04440276  1
  O  O198  1  0.92360037  0.93167128  0.05239646  1
  O  O199  1  0.98627406  0.68082371  0.03832787  1
  O  O200  1  0.69925061  0.87640194  0.00872854  1
  O  O201  1  0.20423415  0.79244964  0.07005317  1
  O  O202  1  0.68320932  0.35982911  0.01250298  1
  O  O203  1  0.71884071  0.04796124  0.02074435  1
  O  O204  1  0.70857882  0.34547906  0.07005033  1
  O  O205  1  0.20908911  0.31891135  0.02261253  1
  O  O206  1  0.40974780  0.45362976  0.11819766  1
  O  O207  1  0.49468887  0.71504373  0.13701491  1
  O  O208  1  0.49982741  0.23806104  0.12807120  1
  O  O209  1  0.40963328  0.93021793  0.12457636  1
  O  O210  1  0.99678869  0.93072246  0.12451080  1
  O  O211  1  0.91333740  0.23736758  0.12841060  1
  O  O212  1  0.90840386  0.71396224  0.13716485  1
  O  O213  1  0.99509084  0.45386487  0.11809023  1
  O  O214  1  0.69832604  0.60773733  0.10083897  1
  O  O215  1  0.20339449  0.56234806  0.15309124  1
  O  O216  1  0.20535799  0.28932549  0.07837380  1
  O  O217  1  0.70760457  0.12773750  0.09357116  1
  O  O218  1  0.19304581  0.62136962  0.08388248  1
  O  O219  1  0.70401244  0.77709228  0.09163616  1
  O  O220  1  0.70435877  0.10294608  0.15072342  1
  O  O221  1  0.20447544  0.06489736  0.10081952  1
  O  O222  1  0.41037239  0.21731231  0.19901644  1
  O  O223  1  0.49734048  0.48154604  0.21812406  1
  O  O224  1  0.49775126  0.00377747  0.20997503  1
  O  O225  1  0.41209968  0.69656368  0.20739227  1
  O  O226  1  0.99810880  0.69604041  0.20752214  1
  O  O227  1  0.91200750  0.00372589  0.20980721  1
  O  O228  1  0.91162303  0.48140730  0.21803828  1
  O  O229  1  0.99656604  0.21727339  0.19917299  1
  O  O230  1  0.70366036  0.37065554  0.18371422  1
  O  O231  1  0.20441757  0.32795086  0.23338566  1
  O  O232  1  0.20427344  0.04252839  0.15820137  1
  O  O233  1  0.70348202  0.89263520  0.17587740  1
  O  O234  1  0.20250187  0.38993331  0.16316891  1
  O  O235  1  0.70397392  0.54275930  0.17269695  1
  O  O236  1  0.70557088  0.86947450  0.23306535  1
  O  O237  1  0.20342257  0.83089801  0.18452687  1
  O  O238  1  0.41026451  0.98092432  0.28121884  1
  O  O239  1  0.49723941  0.24575001  0.29933701  1
  O  O240  1  0.49823289  0.76752642  0.29287985  1
  O  O241  1  0.41326074  0.46103833  0.28891765  1
  O  O242  1  0.99865938  0.46092767  0.28884474  1
  O  O243  1  0.91296693  0.76720659  0.29301166  1
  O  O244  1  0.91088255  0.24608289  0.29923172  1
  O  O245  1  0.99647098  0.98102350  0.28112320  1
  O  O246  1  0.70405255  0.13450900  0.26533733  1
  O  O247  1  0.20298530  0.09227910  0.31492522  1
  O  O248  1  0.20511979  0.80665583  0.24168360  1
  O  O249  1  0.70553385  0.65743964  0.25854870  1
  O  O250  1  0.20388764  0.15576524  0.24454449  1
  O  O251  1  0.70374624  0.30694988  0.25383030  1
  O  O252  1  0.70483003  0.63295722  0.31572177  1
  O  O253  1  0.20618737  0.59604849  0.26650684  1
  O  O254  1  0.41175507  0.74696737  0.36476778  1
  O  O255  1  0.49437367  0.00513914  0.38144201  1
  O  O256  1  0.49922457  0.53355716  0.37544733  1
  O  O257  1  0.40832201  0.22422481  0.36845111  1
  O  O258  1  0.99321454  0.22544652  0.36789090  1
  O  O259  1  0.91339202  0.53204214  0.37531259  1
  O  O260  1  0.90684422  0.00522660  0.38190784  1
  O  O261  1  0.99727033  0.74332114  0.36586345  1
  O  O262  1  0.70425375  0.89483094  0.34768525  1
  O  O263  1  0.20252587  0.85668206  0.39947060  1
  O  O264  1  0.20543694  0.57076854  0.32354324  1
  O  O265  1  0.70477349  0.42402731  0.34031581  1
  O  O266  1  0.20285888  0.92012329  0.32692535  1
  O  O267  1  0.70302792  0.06741931  0.33616190  1
  O  O268  1  0.70256348  0.39666597  0.39716652  1
  O  O269  1  0.20526057  0.36093132  0.34669463  1
  O  O270  1  0.41513527  0.49457792  0.44968831  1
  O  O271  1  0.51016597  0.75769989  0.46943362  1
  O  O272  1  0.48991824  0.28622504  0.45371832  1
  O  O273  1  0.39967557  0.99501794  0.45317821  1
  O  O274  1  0.99028746  0.99330111  0.45597177  1
  O  O275  1  0.90125015  0.28700583  0.45522139  1
  O  O276  1  0.92376331  0.76815894  0.46830511  1
  O  O277  1  0.99535738  0.48550548  0.45131850  1
  O  O278  1  0.72002060  0.65735013  0.43289895  1
  O  O279  1  0.19337919  0.61510440  0.47826614  1
  O  O280  1  0.19935431  0.33270294  0.40322627  1
  O  O281  1  0.70020744  0.18676569  0.41724420  1
  O  O282  1  0.21416796  0.68476023  0.41076813  1
  O  O283  1  0.70325353  0.82978082  0.42339310  1
  O  O284  1  0.69392381  0.14434546  0.47298233  1
  O  O285  1  0.18920288  0.11446838  0.42384570  1
  O  O286  1  0.19679904  0.13153093  0.47929331  1
  O  O287  1  0.22149167  0.44627116  0.49698289  1
  O  O288  1  0.98979713  0.62505467  0.53908661  1
  O  O289  1  0.89460558  0.35472252  0.55521491  1
  O  O290  1  0.91725450  0.82586013  0.54627194  1
  O  O291  1  0.98830528  0.12134051  0.54376747  1
  O  O292  1  0.39727785  0.11997158  0.54362637  1
  O  O293  1  0.50330679  0.82058541  0.54413132  1
  O  O294  1  0.47553462  0.36716636  0.55251114  1
  O  O295  1  0.41371862  0.61837203  0.53843248  1
  O  O296  1  0.69997098  0.42270337  0.50892160  1
  O  O297  1  0.19515278  0.50685817  0.57012591  1
  O  O298  1  0.71782396  0.93926567  0.51205726  1
  O  O299  1  0.68137642  0.25111850  0.52078361  1
  O  O300  1  0.69228591  0.95447511  0.56955904  1
  O  O301  1  0.19025302  0.98081254  0.52223146  1
  O  O302  1  0.98932169  0.84609264  0.61805919  1
  O  O303  1  0.90520536  0.58483896  0.63717855  1
  O  O304  1  0.90039140  0.06208605  0.62795565  1
  O  O305  1  0.98936153  0.36944432  0.62477688  1
  O  O306  1  0.40215622  0.36924158  0.62476619  1
  O  O307  1  0.48731411  0.06212612  0.62833904  1
  O  O308  1  0.49176532  0.58590685  0.63736797  1
  O  O309  1  0.40425752  0.84633220  0.61793589  1
  O  O310  1  0.70147717  0.69189731  0.60088791  1
  O  O311  1  0.19694952  0.73772797  0.65299477  1
  O  O312  1  0.19433175  0.00961091  0.57805016  1
  O  O313  1  0.69187265  0.17259593  0.59363291  1
  O  O314  1  0.20786341  0.67799661  0.58402312  1
  O  O315  1  0.69535062  0.52241710  0.59185885  1
  O  O316  1  0.69507665  0.19685271  0.65082170  1
  O  O317  1  0.19527588  0.23468111  0.60110875  1
  O  O318  1  0.98921085  0.08296847  0.69904188  1
  O  O319  1  0.90319634  0.81885569  0.71814777  1
  O  O320  1  0.90252956  0.29650693  0.71017060  1
  O  O321  1  0.98830333  0.60451068  0.70770025  1
  O  O322  1  0.40245884  0.60452126  0.70769084  1
  O  O323  1  0.48799567  0.29658304  0.71022241  1
  O  O324  1  0.48906534  0.81889173  0.71813535  1
  O  O325  1  0.40305577  0.08298178  0.69909644  1
  O  O326  1  0.69635364  0.92959050  0.68377976  1
  O  O327  1  0.19612511  0.97221724  0.73334549  1
  O  O328  1  0.19523157  0.25766011  0.65850206  1
  O  O329  1  0.69541921  0.40692317  0.67597133  1
  O  O330  1  0.19657365  0.91009287  0.66302287  1
  O  O331  1  0.69621965  0.75745066  0.67275396  1
  O  O332  1  0.69550063  0.43110476  0.73308501  1
  O  O333  1  0.19563562  0.46999030  0.68468986  1
  O  O334  1  0.98949524  0.31965521  0.78124183  1
  O  O335  1  0.90237641  0.05408756  0.79944079  1
  O  O336  1  0.90184250  0.53280623  0.79287505  1
  O  O337  1  0.98792300  0.83946093  0.78879890  1
  O  O338  1  0.40274244  0.83919509  0.78881425  1
  O  O339  1  0.48710876  0.53300243  0.79301954  1
  O  O340  1  0.48874669  0.05401419  0.79917303  1
  O  O341  1  0.40330968  0.31957130  0.78132050  1
  O  O342  1  0.69657066  0.16566830  0.76543933  1
  O  O343  1  0.19589204  0.20795458  0.81486885  1
  O  O344  1  0.19528015  0.49379637  0.74179194  1
  O  O345  1  0.69448527  0.64355652  0.75883793  1
  O  O346  1  0.19599827  0.14427282  0.74457218  1
  O  O347  1  0.69678949  0.99329140  0.75381816  1
  O  O348  1  0.69503529  0.66697645  0.81600968  1
  O  O349  1  0.19485599  0.70411105  0.76666211  1
  O  O350  1  0.98759604  0.55375368  0.86490035  1
  O  O351  1  0.90356876  0.29498934  0.88172298  1
  O  O352  1  0.90172894  0.76729011  0.87557803  1
  O  O353  1  0.99348733  0.07650210  0.86843993  1
  O  O354  1  0.40844467  0.07467195  0.86793595  1
  O  O355  1  0.48723079  0.76825319  0.87542804  1
  O  O356  1  0.49115561  0.29536170  0.88193045  1
  O  O357  1  0.40188555  0.55668755  0.86590501  1
  O  O358  1  0.69561283  0.40548580  0.84778772  1
  O  O359  1  0.19570363  0.44411043  0.89975895  1
  O  O360  1  0.19454432  0.73030960  0.82367797  1
  O  O361  1  0.69610954  0.87574071  0.84019394  1
  O  O362  1  0.19585188  0.38006678  0.82709916  1
  O  O363  1  0.69604136  0.23284886  0.83628198  1
  O  O364  1  0.69683833  0.90408419  0.89696520  1
  O  O365  1  0.19605874  0.93962056  0.84658725  1
  O  O366  1  0.98376175  0.80568286  0.94959492  1
  O  O367  1  0.89013267  0.54212153  0.96947683  1
  O  O368  1  0.91033113  0.01327813  0.95377014  1
  O  O369  1  0.00108745  0.30410336  0.95332003  1
  O  O370  1  0.41036072  0.30655953  0.95622754  1
  O  O371  1  0.49911392  0.01235818  0.95515692  1
  O  O372  1  0.47636150  0.53292613  0.96825504  1
  O  O373  1  0.40367774  0.81383548  0.95100005  1
  O  O374  1  0.68149611  0.64324543  0.93300386  1
  O  O375  1  0.20474390  0.68484392  0.97813593  1
  O  O376  1  0.20000231  0.96712201  0.90311181  1
  O  O377  1  0.70082978  0.11312674  0.91733614  1
  O  O378  1  0.18619522  0.61622088  0.91081508  1
  O  O379  1  0.69643912  0.47057472  0.92347673  1
  O  O380  1  0.70635396  0.15492108  0.97314827  1
  O  O381  1  0.21301159  0.18511846  0.92399746  1
  O  O382  1  0.20435442  0.16791860  0.97947855  1
  O  O383  1  0.17876602  0.85351192  0.99680119  1
