# generated using pymatgen
data_Li3PO4
_symmetry_space_group_name_H-M   'P 1'
_cell_length_a   6.15119200
_cell_length_b   14.50933100
_cell_length_c   44.02995512
_cell_angle_alpha   90.00000000
_cell_angle_beta   90.00000000
_cell_angle_gamma   90.00000000
_symmetry_Int_Tables_number   1
_chemical_formula_structural   Li3PO4
_chemical_formula_sum   'Li144 P48 O192'
_cell_volume   3929.65943876
_cell_formula_units_Z   48
loop_
 _symmetry_equiv_pos_site_id
 _symmetry_equiv_pos_as_xyz
  1  'x, y, z'
loop_
 _atom_site_type_symbol
 _atom_site_label
 _atom_site_symmetry_multiplicity
 _atom_site_fract_x
 _atom_site_fract_y
 _atom_site_fract_z
 _atom_site_occupancy
  Li  Li0  1  0.01482211  0.39321216  0.99084416  1
  Li  Li1  1  0.02128991  0.60702066  0.00840883  1
  Li  Li2  1  0.98088938  0.14273928  0.00209775  1
  Li  Li3  1  0.99040096  0.83393517  0.01890089  1
  Li  Li4  1  0.73726222  0.72485769  0.05660575  1
  Li  Li5  1  0.29582839  0.91261564  0.04046864  1
  Li  Li6  1  0.24886293  0.44516971  0.04796078  1
  Li  Li7  1  0.75335204  0.24576494  0.05314479  1
  Li  Li8  1  0.49534703  0.57042828  0.08240149  1
  Li  Li9  1  0.50465693  0.88151779  0.09000601  1
  Li  Li10  1  0.50892805  0.36235115  0.09644959  1
  Li  Li11  1  0.50237046  0.09854805  0.07152388  1
  Li  Li12  1  0.00354671  0.09670309  0.07009340  1
  Li  Li13  1  0.99260547  0.36155877  0.09694173  1
  Li  Li14  1  0.00252773  0.88112230  0.08816165  1
  Li  Li15  1  0.98865163  0.56638076  0.08357467  1
  Li  Li16  1  0.74564022  0.52117288  0.13089737  1
  Li  Li17  1  0.24640467  0.69211680  0.12407844  1
  Li  Li18  1  0.25001173  0.21938083  0.11225767  1
  Li  Li19  1  0.74888773  0.99876600  0.13777844  1
  Li  Li20  1  0.49744501  0.33044815  0.16489247  1
  Li  Li21  1  0.50005253  0.64674233  0.17102673  1
  Li  Li22  1  0.50011643  0.12330986  0.17698461  1
  Li  Li23  1  0.49591340  0.85798912  0.15774330  1
  Li  Li24  1  0.00203646  0.85726404  0.15742570  1
  Li  Li25  1  0.99289861  0.12362514  0.17733342  1
  Li  Li26  1  0.99712302  0.64566033  0.17109631  1
  Li  Li27  1  0.00178469  0.33072223  0.16495597  1
  Li  Li28  1  0.74817762  0.28473613  0.21226679  1
  Li  Li29  1  0.24776342  0.45809326  0.20411141  1
  Li  Li30  1  0.24738362  0.98322457  0.19594371  1
  Li  Li31  1  0.74918707  0.76172650  0.22159580  1
  Li  Li32  1  0.49494499  0.09510654  0.24732719  1
  Li  Li33  1  0.49976065  0.41041336  0.25192728  1
  Li  Li34  1  0.50078622  0.88546205  0.26061928  1
  Li  Li35  1  0.49767118  0.61922214  0.23987598  1
  Li  Li36  1  0.00043735  0.61907311  0.23993707  1
  Li  Li37  1  0.99489951  0.88578512  0.26077730  1
  Li  Li38  1  0.99670966  0.41049609  0.25186973  1
  Li  Li39  1  0.00132946  0.09517892  0.24769827  1
  Li  Li40  1  0.74770127  0.04641817  0.29456163  1
  Li  Li41  1  0.24854894  0.22345498  0.28598288  1
  Li  Li42  1  0.24813746  0.74484983  0.27926007  1
  Li  Li43  1  0.74899634  0.52491290  0.30381636  1
  Li  Li44  1  0.49607977  0.85735341  0.33042005  1
  Li  Li45  1  0.50196969  0.17341186  0.33288659  1
  Li  Li46  1  0.50038123  0.64952918  0.34377395  1
  Li  Li47  1  0.50007944  0.38371019  0.32151634  1
  Li  Li48  1  0.99992707  0.38364583  0.32154268  1
  Li  Li49  1  0.99646170  0.64912596  0.34380215  1
  Li  Li50  1  0.99564307  0.17362450  0.33272141  1
  Li  Li51  1  0.00145700  0.85722167  0.33051428  1
  Li  Li52  1  0.74787545  0.81165025  0.37980320  1
  Li  Li53  1  0.24988354  0.98494677  0.36941732  1
  Li  Li54  1  0.24990342  0.50876669  0.36196077  1
  Li  Li55  1  0.74932628  0.29134126  0.38304075  1
  Li  Li56  1  0.49187076  0.62365249  0.41436622  1
  Li  Li57  1  0.49840060  0.93837618  0.41776583  1
  Li  Li58  1  0.49496821  0.40611998  0.42639876  1
  Li  Li59  1  0.50020732  0.14860620  0.39997096  1
  Li  Li60  1  0.00476092  0.14798337  0.39948855  1
  Li  Li61  1  0.00363008  0.40514817  0.42345488  1
  Li  Li62  1  0.99932386  0.93784498  0.41774029  1
  Li  Li63  1  0.00020746  0.62418545  0.41470455  1
  Li  Li64  1  0.73894135  0.56465430  0.45647084  1
  Li  Li65  1  0.24875047  0.75001563  0.45356192  1
  Li  Li66  1  0.25147113  0.25556842  0.44700565  1
  Li  Li67  1  0.75007687  0.04786662  0.45981401  1
  Li  Li68  1  0.01485064  0.92847775  0.49086301  1
  Li  Li69  1  0.97609195  0.17670472  0.50296973  1
  Li  Li70  1  0.02118397  0.71523788  0.50708962  1
  Li  Li71  1  0.97806837  0.40939711  0.48199795  1
  Li  Li72  1  0.48459605  0.92984150  0.49088552  1
  Li  Li73  1  0.47729518  0.71830415  0.50842840  1
  Li  Li74  1  0.51979749  0.18257981  0.50235402  1
  Li  Li75  1  0.51097185  0.49091755  0.51848484  1
  Li  Li76  1  0.76321395  0.60125683  0.55664435  1
  Li  Li77  1  0.20598320  0.41137546  0.54052292  1
  Li  Li78  1  0.25167043  0.88037404  0.54802493  1
  Li  Li79  1  0.74742009  0.07892464  0.55306729  1
  Li  Li80  1  0.00801668  0.75441704  0.58261930  1
  Li  Li81  1  0.99344289  0.44415954  0.58966740  1
  Li  Li82  1  0.99151200  0.96302911  0.59642895  1
  Li  Li83  1  0.99640442  0.22671808  0.57138980  1
  Li  Li84  1  0.49648885  0.22754183  0.57007848  1
  Li  Li85  1  0.50852416  0.96357999  0.59690252  1
  Li  Li86  1  0.49648671  0.44444903  0.58799724  1
  Li  Li87  1  0.51256256  0.75798431  0.58354504  1
  Li  Li88  1  0.75636454  0.80398586  0.63082073  1
  Li  Li89  1  0.25599676  0.63142654  0.62414931  1
  Li  Li90  1  0.25068660  0.10663078  0.61229440  1
  Li  Li91  1  0.75031705  0.32647476  0.63735211  1
  Li  Li92  1  0.00325352  0.99473987  0.66465453  1
  Li  Li93  1  0.00110633  0.67864710  0.67055789  1
  Li  Li94  1  0.99843258  0.20239966  0.67734614  1
  Li  Li95  1  0.00460809  0.46675909  0.65732561  1
  Li  Li96  1  0.49747064  0.46737024  0.65698125  1
  Li  Li97  1  0.50423966  0.20224781  0.67748485  1
  Li  Li98  1  0.50498829  0.67949127  0.67103232  1
  Li  Li99  1  0.49928885  0.99443307  0.66499513  1
  Li  Li100  1  0.75309098  0.04170167  0.71217335  1
  Li  Li101  1  0.25056807  0.86852641  0.70399124  1
  Li  Li102  1  0.25092067  0.34218302  0.69562197  1
  Li  Li103  1  0.75049738  0.56415798  0.72112980  1
  Li  Li104  1  0.00403159  0.23111176  0.74750743  1
  Li  Li105  1  0.99993229  0.91565943  0.75193095  1
  Li  Li106  1  0.99883363  0.44008056  0.76028193  1
  Li  Li107  1  0.00374767  0.70651386  0.73971771  1
  Li  Li108  1  0.49969042  0.70658745  0.73987575  1
  Li  Li109  1  0.50446732  0.43994109  0.76062634  1
  Li  Li110  1  0.50236567  0.91544167  0.75181278  1
  Li  Li111  1  0.49865549  0.23064467  0.74750220  1
  Li  Li112  1  0.75161559  0.27964317  0.79490839  1
  Li  Li113  1  0.25011230  0.10320800  0.78596822  1
  Li  Li114  1  0.25103113  0.57994909  0.77902572  1
  Li  Li115  1  0.75091625  0.79817199  0.80373770  1
  Li  Li116  1  0.00641876  0.46814437  0.83067630  1
  Li  Li117  1  0.99709415  0.15127156  0.83274385  1
  Li  Li118  1  0.99908610  0.67442932  0.84357599  1
  Li  Li119  1  0.99881663  0.94051488  0.82138118  1
  Li  Li120  1  0.50081509  0.94058577  0.82141452  1
  Li  Li121  1  0.50205284  0.67455493  0.84363052  1
  Li  Li122  1  0.50353450  0.15091362  0.83256958  1
  Li  Li123  1  0.49864081  0.46767012  0.83070620  1
  Li  Li124  1  0.75187239  0.51264110  0.87983798  1
  Li  Li125  1  0.25021034  0.34032141  0.86955287  1
  Li  Li126  1  0.24987419  0.81611270  0.86150204  1
  Li  Li127  1  0.75067644  0.03341409  0.88292841  1
  Li  Li128  1  0.00536011  0.70112327  0.91425373  1
  Li  Li129  1  0.00237883  0.38800680  0.91791504  1
  Li  Li130  1  0.00507847  0.91771350  0.92627885  1
  Li  Li131  1  0.00024543  0.17551163  0.89959390  1
  Li  Li132  1  0.49432875  0.17676514  0.89889992  1
  Li  Li133  1  0.49658092  0.91888339  0.92318494  1
  Li  Li134  1  0.50096762  0.38868758  0.91777509  1
  Li  Li135  1  0.49817514  0.70119229  0.91438690  1
  Li  Li136  1  0.75942740  0.76049365  0.95648744  1
  Li  Li137  1  0.25044923  0.57537123  0.95351894  1
  Li  Li138  1  0.24839244  0.06906746  0.94641228  1
  Li  Li139  1  0.75003199  0.27372439  0.95762426  1
  Li  Li140  1  0.48649408  0.39420903  0.99077008  1
  Li  Li141  1  0.52524863  0.14784080  0.00310323  1
  Li  Li142  1  0.47866199  0.60787402  0.00745200  1
  Li  Li143  1  0.52402287  0.91527147  0.98197213  1
  P  P144  1  0.24737388  0.71775922  0.05769850  1
  P  P145  1  0.75258114  0.97208755  0.03594101  1
  P  P146  1  0.74993875  0.44183338  0.04158476  1
  P  P147  1  0.25106687  0.27075913  0.04309728  1
  P  P148  1  0.24805323  0.48921564  0.13737746  1
  P  P149  1  0.74812471  0.72703829  0.11757879  1
  P  P150  1  0.75101061  0.20096123  0.12341010  1
  P  P151  1  0.24777817  0.01759907  0.12705683  1
  P  P152  1  0.24836421  0.25201699  0.21874600  1
  P  P153  1  0.74827623  0.48993352  0.19801630  1
  P  P154  1  0.74884807  0.96452817  0.20713163  1
  P  P155  1  0.24835006  0.77912071  0.21083237  1
  P  P156  1  0.24853897  0.01487581  0.30146939  1
  P  P157  1  0.74848087  0.25417897  0.27953861  1
  P  P158  1  0.74866216  0.72657314  0.29028968  1
  P  P159  1  0.24898451  0.54237724  0.29279919  1
  P  P160  1  0.24799378  0.77877780  0.38557252  1
  P  P161  1  0.74940736  0.01402268  0.36217666  1
  P  P162  1  0.74854518  0.49287561  0.37322918  1
  P  P163  1  0.25075149  0.30820478  0.37262673  1
  P  P164  1  0.24495589  0.54246707  0.46967661  1
  P  P165  1  0.74834449  0.78254894  0.45039718  1
  P  P166  1  0.74862795  0.24741175  0.44977331  1
  P  P167  1  0.24965009  0.07437463  0.45441820  1
  P  P168  1  0.25331612  0.60678631  0.55770769  1
  P  P169  1  0.74760640  0.35257332  0.53583998  1
  P  P170  1  0.75100994  0.88302167  0.54152468  1
  P  P171  1  0.24954783  0.05415232  0.54314911  1
  P  P172  1  0.25363252  0.83575330  0.63726094  1
  P  P173  1  0.75313351  0.59792849  0.61742625  1
  P  P174  1  0.74880034  0.12446218  0.62348613  1
  P  P175  1  0.25114744  0.30774052  0.62680702  1
  P  P176  1  0.25162609  0.07369244  0.71872163  1
  P  P177  1  0.75209583  0.83551805  0.69793976  1
  P  P178  1  0.75046988  0.36135773  0.70696140  1
  P  P179  1  0.25137661  0.54635849  0.71048061  1
  P  P180  1  0.25112813  0.31064998  0.80153980  1
  P  P181  1  0.75070684  0.07139564  0.77944083  1
  P  P182  1  0.75124045  0.59790957  0.79019632  1
  P  P183  1  0.25084703  0.78227687  0.79264172  1
  P  P184  1  0.25157714  0.54623894  0.88564831  1
  P  P185  1  0.75087142  0.31092652  0.86223798  1
  P  P186  1  0.75101081  0.83152597  0.87306916  1
  P  P187  1  0.24910076  0.01627268  0.87231513  1
  P  P188  1  0.25412370  0.78250904  0.96966974  1
  P  P189  1  0.75051951  0.54281340  0.95039376  1
  P  P190  1  0.75122930  0.07687446  0.94947075  1
  P  P191  1  0.25091933  0.24982863  0.95412144  1
  O  O192  1  0.45654239  0.69708478  0.03947931  1
  O  O193  1  0.55373371  0.96783916  0.05810285  1
  O  O194  1  0.53993095  0.50315541  0.04296904  1
  O  O195  1  0.45765442  0.20980299  0.04168897  1
  O  O196  1  0.04737085  0.20827097  0.04131618  1
  O  O197  1  0.95694137  0.50589202  0.04278499  1
  O  O198  1  0.97678257  0.95566517  0.05220810  1
  O  O199  1  0.03260357  0.71142103  0.03816452  1
  O  O200  1  0.72682016  0.89330669  0.01223991  1
  O  O201  1  0.25834438  0.81582202  0.07163738  1
  O  O202  1  0.75120276  0.38269055  0.01248408  1
  O  O203  1  0.75411777  0.06991670  0.02314747  1
  O  O204  1  0.75314717  0.37692829  0.06986307  1
  O  O205  1  0.25036349  0.34841194  0.01842164  1
  O  O206  1  0.45328872  0.47873457  0.11683114  1
  O  O207  1  0.54023853  0.73837690  0.13730821  1
  O  O208  1  0.54366043  0.26281707  0.12653163  1
  O  O209  1  0.45398085  0.95519937  0.12563152  1
  O  O210  1  0.04181922  0.95513819  0.12453361  1
  O  O211  1  0.95828268  0.26250800  0.12703363  1
  O  O212  1  0.95426980  0.73639218  0.13772260  1
  O  O213  1  0.03925112  0.47819609  0.11752948  1
  O  O214  1  0.74382585  0.63157577  0.10103642  1
  O  O215  1  0.24903751  0.58524975  0.15293465  1
  O  O216  1  0.24954464  0.32376926  0.07451999  1
  O  O217  1  0.75387371  0.15395883  0.09183232  1
  O  O218  1  0.23320987  0.64438441  0.08353213  1
  O  O219  1  0.75237650  0.80223231  0.09242430  1
  O  O220  1  0.74816623  0.12796649  0.14945794  1
  O  O221  1  0.24996179  0.08921060  0.10048422  1
  O  O222  1  0.45527313  0.23957267  0.19865801  1
  O  O223  1  0.54147485  0.50253650  0.21808503  1
  O  O224  1  0.54141857  0.02587678  0.20978033  1
  O  O225  1  0.45571803  0.71784731  0.20789425  1
  O  O226  1  0.04178331  0.71742307  0.20786224  1
  O  O227  1  0.95543220  0.02619000  0.21011083  1
  O  O228  1  0.95555690  0.50269237  0.21800430  1
  O  O229  1  0.04117570  0.23976606  0.19874258  1
  O  O230  1  0.74869150  0.39247830  0.18332990  1
  O  O231  1  0.24859731  0.34973468  0.23328629  1
  O  O232  1  0.24521299  0.06831452  0.15823783  1
  O  O233  1  0.75028834  0.91511369  0.17583045  1
  O  O234  1  0.25000982  0.41260025  0.16220908  1
  O  O235  1  0.74776019  0.56478880  0.17256255  1
  O  O236  1  0.74826139  0.89147660  0.23320848  1
  O  O237  1  0.24823635  0.85258708  0.18492556  1
  O  O238  1  0.45521544  0.00216033  0.28136082  1
  O  O239  1  0.54186502  0.26728899  0.29958159  1
  O  O240  1  0.54142947  0.78789284  0.29317737  1
  O  O241  1  0.45658370  0.48137302  0.28941887  1
  O  O242  1  0.04155056  0.48129785  0.28935838  1
  O  O243  1  0.95558477  0.78805190  0.29326035  1
  O  O244  1  0.95559831  0.26728252  0.29949205  1
  O  O245  1  0.04125114  0.00228933  0.28147781  1
  O  O246  1  0.74823239  0.15583166  0.26552554  1
  O  O247  1  0.24898157  0.11327500  0.31540178  1
  O  O248  1  0.24776806  0.82788770  0.24223414  1
  O  O249  1  0.74914429  0.67749895  0.25891258  1
  O  O250  1  0.24852023  0.17755471  0.24433380  1
  O  O251  1  0.74826125  0.32828826  0.25387602  1
  O  O252  1  0.74861205  0.65363218  0.31635601  1
  O  O253  1  0.24905349  0.61644968  0.26708001  1
  O  O254  1  0.45525303  0.76552915  0.36566209  1
  O  O255  1  0.54359308  0.02635209  0.38234280  1
  O  O256  1  0.54249398  0.55495378  0.37650650  1
  O  O257  1  0.45746582  0.24711848  0.36883574  1
  O  O258  1  0.04381501  0.24741220  0.36860441  1
  O  O259  1  0.95615927  0.55412001  0.37694523  1
  O  O260  1  0.95609667  0.02606874  0.38217928  1
  O  O261  1  0.04085465  0.76573702  0.36562009  1
  O  O262  1  0.74854464  0.91566301  0.34818249  1
  O  O263  1  0.24885584  0.87679358  0.39974121  1
  O  O264  1  0.24855151  0.59062300  0.32438344  1
  O  O265  1  0.74995200  0.44508141  0.34157570  1
  O  O266  1  0.24883104  0.94085474  0.32723185  1
  O  O267  1  0.74907706  0.08864478  0.33659396  1
  O  O268  1  0.74683845  0.41872507  0.39879415  1
  O  O269  1  0.25079379  0.38341593  0.34723192  1
  O  O270  1  0.44603695  0.52840696  0.44835907  1
  O  O271  1  0.54000108  0.79496003  0.47039795  1
  O  O272  1  0.54087719  0.30514839  0.45385052  1
  O  O273  1  0.45427660  0.00975226  0.45513324  1
  O  O274  1  0.04583798  0.00930068  0.45500172  1
  O  O275  1  0.95580428  0.30900712  0.45468362  1
  O  O276  1  0.95672896  0.79591699  0.47025907  1
  O  O277  1  0.03149120  0.52025803  0.45100386  1
  O  O278  1  0.74900020  0.68286854  0.43642494  1
  O  O279  1  0.24205479  0.64393877  0.48060609  1
  O  O280  1  0.25043975  0.35598631  0.40400104  1
  O  O281  1  0.75672136  0.20569275  0.41712142  1
  O  O282  1  0.24710540  0.70543424  0.41162338  1
  O  O283  1  0.74776619  0.85418636  0.42376511  1
  O  O284  1  0.75254673  0.16566581  0.47238410  1
  O  O285  1  0.25095315  0.13098900  0.42437560  1
  O  O286  1  0.24836790  0.14593848  0.48037651  1
  O  O287  1  0.25159441  0.47155947  0.49617412  1
  O  O288  1  0.04419700  0.62776440  0.53953331  1
  O  O289  1  0.94640257  0.35725541  0.55799444  1
  O  O290  1  0.96112920  0.82188507  0.54297830  1
  O  O291  1  0.04310759  0.11518516  0.54170177  1
  O  O292  1  0.45344424  0.11657952  0.54141465  1
  O  O293  1  0.54392917  0.81894473  0.54267890  1
  O  O294  1  0.52339365  0.36903491  0.55210197  1
  O  O295  1  0.46772163  0.61311985  0.53809556  1
  O  O296  1  0.77318178  0.43093641  0.51200798  1
  O  O297  1  0.24168157  0.50879607  0.57165004  1
  O  O298  1  0.74944404  0.94202898  0.51234756  1
  O  O299  1  0.74682735  0.25459765  0.52317873  1
  O  O300  1  0.74747760  0.94816938  0.56974476  1
  O  O301  1  0.25036507  0.97644181  0.51850935  1
  O  O302  1  0.04838461  0.84634156  0.61669491  1
  O  O303  1  0.96136286  0.58626315  0.63704374  1
  O  O304  1  0.95632860  0.06266829  0.62651813  1
  O  O305  1  0.04498097  0.37007107  0.62525863  1
  O  O306  1  0.45715622  0.37018399  0.62432208  1
  O  O307  1  0.54177334  0.06272211  0.62704411  1
  O  O308  1  0.54767084  0.58857379  0.63767281  1
  O  O309  1  0.46241614  0.84679621  0.61742664  1
  O  O310  1  0.75791190  0.69347124  0.60095889  1
  O  O311  1  0.25258383  0.73960987  0.65274612  1
  O  O312  1  0.25094492  0.00121148  0.57458151  1
  O  O313  1  0.74591856  0.17151442  0.59191158  1
  O  O314  1  0.26849393  0.67988432  0.58361150  1
  O  O315  1  0.74706529  0.52303091  0.59219541  1
  O  O316  1  0.75087158  0.19744164  0.64953587  1
  O  O317  1  0.24968766  0.23598094  0.60030187  1
  O  O318  1  0.04515148  0.08604482  0.69854997  1
  O  O319  1  0.95846490  0.82316000  0.71810765  1
  O  O320  1  0.95778237  0.29993224  0.70982639  1
  O  O321  1  0.04428882  0.60776182  0.70754102  1
  O  O322  1  0.45807791  0.60803642  0.70767506  1
  O  O323  1  0.54375071  0.29976275  0.70995011  1
  O  O324  1  0.54427107  0.82279848  0.71781174  1
  O  O325  1  0.45910899  0.08590429  0.69878306  1
  O  O326  1  0.75203357  0.93298621  0.68323747  1
  O  O327  1  0.25096537  0.97597190  0.73322764  1
  O  O328  1  0.25310686  0.25727122  0.65805871  1
  O  O329  1  0.74989746  0.41024872  0.67557787  1
  O  O330  1  0.25106143  0.91248296  0.66207067  1
  O  O331  1  0.75367784  0.76065163  0.67246492  1
  O  O332  1  0.75069385  0.43458738  0.73297055  1
  O  O333  1  0.25183896  0.47297464  0.68453734  1
  O  O334  1  0.04434293  0.32367000  0.78147033  1
  O  O335  1  0.95732558  0.05789058  0.79947080  1
  O  O336  1  0.95857158  0.53669741  0.79313373  1
  O  O337  1  0.04313830  0.84323172  0.78930501  1
  O  O338  1  0.45844249  0.84326174  0.78922911  1
  O  O339  1  0.54398677  0.53659010  0.79311634  1
  O  O340  1  0.54354166  0.05784631  0.79935056  1
  O  O341  1  0.45815398  0.32324306  0.78150030  1
  O  O342  1  0.75115553  0.16999383  0.76560864  1
  O  O343  1  0.25032443  0.21215701  0.81543225  1
  O  O344  1  0.25128367  0.49740821  0.74186803  1
  O  O345  1  0.75130486  0.64749691  0.75888861  1
  O  O346  1  0.25093983  0.14821798  0.74428987  1
  O  O347  1  0.75110066  0.99762171  0.75367855  1
  O  O348  1  0.75080941  0.67045819  0.81638743  1
  O  O349  1  0.25080577  0.70834727  0.76688889  1
  O  O350  1  0.04445808  0.55904773  0.86568579  1
  O  O351  1  0.95666525  0.29859143  0.88241149  1
  O  O352  1  0.95682959  0.76929517  0.87630665  1
  O  O353  1  0.04223836  0.07731640  0.86856953  1
  O  O354  1  0.45597280  0.07716497  0.86832104  1
  O  O355  1  0.54292228  0.77055660  0.87677647  1
  O  O356  1  0.54414965  0.29944085  0.88226960  1
  O  O357  1  0.45877074  0.55885652  0.86567701  1
  O  O358  1  0.75231528  0.40916789  0.84813857  1
  O  O359  1  0.25113243  0.44842005  0.89989746  1
  O  O360  1  0.25106750  0.73380532  0.82419427  1
  O  O361  1  0.74974937  0.87923194  0.84139838  1
  O  O362  1  0.25160655  0.38432681  0.82740450  1
  O  O363  1  0.75032170  0.23612205  0.83670989  1
  O  O364  1  0.75326974  0.90574890  0.89860162  1
  O  O365  1  0.24905506  0.94119347  0.84688585  1
  O  O366  1  0.05291759  0.79648234  0.94834019  1
  O  O367  1  0.95864366  0.53052309  0.97040550  1
  O  O368  1  0.95925629  0.01925686  0.95330675  1
  O  O369  1  0.04601830  0.31439410  0.95484100  1
  O  O370  1  0.45473972  0.31489856  0.95463780  1
  O  O371  1  0.54460027  0.01504284  0.95427901  1
  O  O372  1  0.54195594  0.52869126  0.97012988  1
  O  O373  1  0.46737080  0.80464249  0.95090898  1
  O  O374  1  0.74920399  0.64243577  0.93638259  1
  O  O375  1  0.25708545  0.68110813  0.98066332  1
  O  O376  1  0.24965109  0.96837311  0.90366390  1
  O  O377  1  0.74261809  0.11976816  0.91693861  1
  O  O378  1  0.25199221  0.61980964  0.91158128  1
  O  O379  1  0.75245124  0.47135261  0.92366639  1
  O  O380  1  0.74776457  0.15812810  0.97227124  1
  O  O381  1  0.24927443  0.19300701  0.92411217  1
  O  O382  1  0.25266253  0.17850040  0.98014516  1
  O  O383  1  0.24817093  0.85357152  0.99613927  1
