# generated using pymatgen
data_Li3PO4
_symmetry_space_group_name_H-M   'P 1'
_cell_length_a   10.55485100
_cell_length_b   7.91303400
_cell_length_c   48.51932991
_cell_angle_alpha   90.00000000
_cell_angle_beta   90.00000000
_cell_angle_gamma   90.00000000
_symmetry_Int_Tables_number   1
_chemical_formula_structural   Li3PO4
_chemical_formula_sum   'Li144 P48 O192'
_cell_volume   4052.37785021
_cell_formula_units_Z   48
loop_
 _symmetry_equiv_pos_site_id
 _symmetry_equiv_pos_as_xyz
  1  'x, y, z'
loop_
 _atom_site_type_symbol
 _atom_site_label
 _atom_site_symmetry_multiplicity
 _atom_site_fract_x
 _atom_site_fract_y
 _atom_site_fract_z
 _atom_site_occupancy
  Li  Li0  1  0.75289390  0.38512032  0.00135905  1
  Li  Li1  1  0.33409386  0.06288203  0.07294658  1
  Li  Li2  1  0.69516407  0.20395254  0.03799638  1
  Li  Li3  1  0.74651120  0.88514812  0.00133901  1
  Li  Li4  1  0.80453874  0.70296464  0.03790787  1
  Li  Li5  1  0.16583398  0.56276628  0.07292022  1
  Li  Li6  1  0.08300102  0.91787765  0.05382086  1
  Li  Li7  1  0.94537392  0.42554470  0.04238951  1
  Li  Li8  1  0.41702569  0.41812293  0.05381226  1
  Li  Li9  1  0.55449778  0.92631353  0.04258638  1
  Li  Li10  1  0.16338376  0.88107876  0.10713476  1
  Li  Li11  1  0.83474499  0.02656332  0.07314906  1
  Li  Li12  1  0.33611638  0.68167538  0.14651657  1
  Li  Li13  1  0.66157990  0.84512013  0.11303656  1
  Li  Li14  1  0.66506391  0.52666610  0.07321283  1
  Li  Li15  1  0.33643258  0.38091991  0.10713401  1
  Li  Li16  1  0.83837580  0.34515990  0.11302513  1
  Li  Li17  1  0.16383269  0.18165549  0.14651067  1
  Li  Li18  1  0.07513020  0.48988037  0.13580373  1
  Li  Li19  1  0.92527940  0.03254419  0.12611120  1
  Li  Li20  1  0.42485081  0.98984883  0.13581114  1
  Li  Li21  1  0.57439960  0.53226337  0.12622071  1
  Li  Li22  1  0.16402321  0.48684366  0.18698914  1
  Li  Li23  1  0.83756223  0.64277545  0.15395492  1
  Li  Li24  1  0.33710660  0.28946306  0.22608834  1
  Li  Li25  1  0.66432820  0.44649539  0.19467499  1
  Li  Li26  1  0.66259430  0.14324537  0.15397998  1
  Li  Li27  1  0.33596216  0.98680237  0.18699637  1
  Li  Li28  1  0.83568195  0.94644977  0.19467338  1
  Li  Li29  1  0.16291172  0.78948751  0.22608616  1
  Li  Li30  1  0.07418979  0.10104905  0.21407787  1
  Li  Li31  1  0.92437018  0.63684901  0.20636224  1
  Li  Li32  1  0.42583003  0.60108702  0.21405682  1
  Li  Li33  1  0.57583214  0.13670773  0.20635544  1
  Li  Li34  1  0.16270155  0.09522005  0.26628344  1
  Li  Li35  1  0.83590275  0.24724231  0.23449720  1
  Li  Li36  1  0.33589929  0.89620537  0.30586103  1
  Li  Li37  1  0.66301596  0.05202953  0.27459677  1
  Li  Li38  1  0.66413280  0.74724125  0.23449515  1
  Li  Li39  1  0.33736462  0.59539818  0.26626670  1
  Li  Li40  1  0.83703882  0.55204841  0.27459345  1
  Li  Li41  1  0.16533468  0.39590248  0.30570471  1
  Li  Li42  1  0.07593749  0.70632757  0.29355868  1
  Li  Li43  1  0.92526209  0.24141631  0.28675610  1
  Li  Li44  1  0.42448483  0.20645314  0.29359368  1
  Li  Li45  1  0.57490743  0.74138790  0.28673491  1
  Li  Li46  1  0.16375487  0.69873837  0.34573543  1
  Li  Li47  1  0.83632636  0.85321006  0.31400121  1
  Li  Li48  1  0.33705502  0.49799093  0.38693179  1
  Li  Li49  1  0.66222002  0.65869336  0.35460945  1
  Li  Li50  1  0.66387849  0.35363075  0.31393104  1
  Li  Li51  1  0.33630424  0.19873609  0.34574820  1
  Li  Li52  1  0.83831383  0.15892462  0.35464679  1
  Li  Li53  1  0.16308366  0.99763473  0.38706114  1
  Li  Li54  1  0.07699845  0.31183044  0.37530660  1
  Li  Li55  1  0.92492738  0.84933211  0.36472085  1
  Li  Li56  1  0.42340124  0.81213375  0.37523777  1
  Li  Li57  1  0.57524065  0.34924106  0.36469893  1
  Li  Li58  1  0.16659040  0.31784300  0.42960228  1
  Li  Li59  1  0.84092246  0.46459710  0.39347276  1
  Li  Li60  1  0.34705043  0.17648531  0.46357829  1
  Li  Li61  1  0.66169162  0.29419449  0.42412875  1
  Li  Li62  1  0.66035850  0.96420252  0.39346295  1
  Li  Li63  1  0.33436300  0.81829251  0.42965795  1
  Li  Li64  1  0.83915974  0.79266624  0.42467285  1
  Li  Li65  1  0.15357823  0.67635830  0.46354811  1
  Li  Li66  1  0.09137702  0.97128365  0.45042647  1
  Li  Li67  1  0.92035822  0.42339965  0.44793199  1
  Li  Li68  1  0.40879220  0.47128723  0.45007857  1
  Li  Li69  1  0.58132998  0.92305619  0.44804900  1
  Li  Li70  1  0.90398806  0.00751873  0.48401136  1
  Li  Li71  1  0.59624646  0.50717457  0.48386878  1
  Li  Li72  1  0.24787714  0.51518650  0.50145275  1
  Li  Li73  1  0.66491500  0.83818918  0.57281220  1
  Li  Li74  1  0.30599935  0.69637710  0.53799793  1
  Li  Li75  1  0.25324667  0.01487672  0.50147910  1
  Li  Li76  1  0.19493295  0.19638036  0.53796626  1
  Li  Li77  1  0.83464570  0.33804384  0.57272485  1
  Li  Li78  1  0.91716473  0.98349301  0.55367967  1
  Li  Li79  1  0.05593710  0.47451496  0.54268432  1
  Li  Li80  1  0.58268308  0.48357410  0.55364399  1
  Li  Li81  1  0.44411499  0.97460099  0.54267922  1
  Li  Li82  1  0.83826586  0.01966149  0.60698547  1
  Li  Li83  1  0.16589337  0.87487365  0.57321094  1
  Li  Li84  1  0.66288453  0.21984985  0.64649544  1
  Li  Li85  1  0.33900305  0.05583379  0.61317299  1
  Li  Li86  1  0.33416031  0.37494400  0.57321289  1
  Li  Li87  1  0.66166685  0.51972180  0.60700925  1
  Li  Li88  1  0.16085692  0.55586304  0.61317613  1
  Li  Li89  1  0.83705235  0.71984195  0.64649170  1
  Li  Li90  1  0.92337424  0.41153609  0.63567852  1
  Li  Li91  1  0.07508015  0.86830779  0.62602948  1
  Li  Li92  1  0.57644571  0.91159793  0.63578830  1
  Li  Li93  1  0.42484958  0.36829926  0.62603178  1
  Li  Li94  1  0.83560351  0.41319808  0.68686208  1
  Li  Li95  1  0.16220047  0.25758041  0.65397546  1
  Li  Li96  1  0.66257980  0.61037682  0.72625496  1
  Li  Li97  1  0.33528746  0.45318523  0.69465573  1
  Li  Li98  1  0.33772958  0.75755433  0.65397986  1
  Li  Li99  1  0.66429486  0.91315409  0.68687897  1
  Li  Li100  1  0.16463726  0.95319110  0.69464411  1
  Li  Li101  1  0.83702656  0.11014417  0.72630216  1
  Li  Li102  1  0.92561975  0.79900145  0.71376641  1
  Li  Li103  1  0.07520368  0.26346853  0.70644840  1
  Li  Li104  1  0.57394693  0.29877876  0.71389778  1
  Li  Li105  1  0.42448899  0.76360180  0.70646590  1
  Li  Li106  1  0.83735373  0.80454074  0.76630895  1
  Li  Li107  1  0.16313924  0.65200230  0.73434865  1
  Li  Li108  1  0.66392520  0.00268889  0.80572773  1
  Li  Li109  1  0.33653459  0.84737089  0.77477777  1
  Li  Li110  1  0.33648493  0.15175973  0.73440068  1
  Li  Li111  1  0.66241001  0.30459659  0.76632546  1
  Li  Li112  1  0.16296295  0.34692450  0.77465722  1
  Li  Li113  1  0.83573214  0.50284835  0.80574703  1
  Li  Li114  1  0.92482938  0.19269362  0.79364483  1
  Li  Li115  1  0.07418021  0.65759473  0.78650735  1
  Li  Li116  1  0.57491294  0.69261587  0.79363706  1
  Li  Li117  1  0.42516336  0.15774214  0.78657648  1
  Li  Li118  1  0.83541971  0.19959212  0.84553407  1
  Li  Li119  1  0.16395252  0.04581701  0.81397820  1
  Li  Li120  1  0.66280904  0.40231285  0.88712479  1
  Li  Li121  1  0.33778551  0.24004584  0.85440694  1
  Li  Li122  1  0.33514489  0.54610502  0.81403998  1
  Li  Li123  1  0.66377668  0.69921664  0.84552133  1
  Li  Li124  1  0.16192557  0.74015879  0.85441179  1
  Li  Li125  1  0.83604048  0.90160230  0.88701882  1
  Li  Li126  1  0.92293373  0.58755844  0.87530556  1
  Li  Li127  1  0.07450061  0.04938030  0.86485050  1
  Li  Li128  1  0.57678911  0.08757917  0.87535206  1
  Li  Li129  1  0.42505153  0.54943893  0.86483750  1
  Li  Li130  1  0.83377363  0.58135621  0.92965534  1
  Li  Li131  1  0.15950574  0.43572983  0.89324652  1
  Li  Li132  1  0.65170098  0.72371989  0.96344470  1
  Li  Li133  1  0.33799293  0.60541117  0.92408609  1
  Li  Li134  1  0.34018444  0.93556291  0.89334479  1
  Li  Li135  1  0.66626764  0.08190680  0.92975421  1
  Li  Li136  1  0.16175029  0.10551457  0.92412369  1
  Li  Li137  1  0.84877510  0.22434187  0.96357735  1
  Li  Li138  1  0.90855493  0.92997285  0.94999687  1
  Li  Li139  1  0.08262083  0.47910016  0.94828473  1
  Li  Li140  1  0.59129798  0.42984836  0.95000209  1
  Li  Li141  1  0.41730446  0.97897812  0.94847620  1
  Li  Li142  1  0.09551626  0.89420324  0.98387845  1
  Li  Li143  1  0.40418654  0.39387365  0.98382328  1
  P  P144  1  0.93716365  0.06326218  0.01659364  1
  P  P145  1  0.56248158  0.56375425  0.01657920  1
  P  P146  1  0.08905143  0.23607167  0.08675459  1
  P  P147  1  0.91398715  0.68662868  0.09439528  1
  P  P148  1  0.41072386  0.73608329  0.08679742  1
  P  P149  1  0.58589664  0.18666688  0.09442717  1
  P  P150  1  0.08799258  0.83656514  0.16625844  1
  P  P151  1  0.91043354  0.29181776  0.17505724  1
  P  P152  1  0.41189528  0.33652047  0.16627483  1
  P  P153  1  0.58964176  0.79183635  0.17505198  1
  P  P154  1  0.08873713  0.44330582  0.24593926  1
  P  P155  1  0.91116769  0.89799166  0.25500345  1
  P  P156  1  0.41139601  0.94333730  0.24595270  1
  P  P157  1  0.58887760  0.39798977  0.25498548  1
  P  P158  1  0.08888256  0.05001677  0.32596386  1
  P  P159  1  0.91223682  0.50347026  0.33470711  1
  P  P160  1  0.41148240  0.55008811  0.32595376  1
  P  P161  1  0.58824638  0.00354240  0.33473132  1
  P  P162  1  0.08552636  0.66366513  0.40500964  1
  P  P163  1  0.90976568  0.10878862  0.41551967  1
  P  P164  1  0.41510104  0.16360309  0.40496528  1
  P  P165  1  0.59068893  0.60882539  0.41549247  1
  P  P166  1  0.07604390  0.29703394  0.48192426  1
  P  P167  1  0.42485903  0.79717423  0.48186943  1
  P  P168  1  0.06352771  0.83604682  0.51666095  1
  P  P169  1  0.43741030  0.33614671  0.51661160  1
  P  P170  1  0.91055297  0.66539669  0.58671340  1
  P  P171  1  0.08589718  0.21449752  0.59440185  1
  P  P172  1  0.58925588  0.16539583  0.58672418  1
  P  P173  1  0.41404745  0.71451244  0.59443416  1
  P  P174  1  0.91207949  0.06411780  0.66622695  1
  P  P175  1  0.08954022  0.60819069  0.67499292  1
  P  P176  1  0.58777112  0.56395521  0.66626000  1
  P  P177  1  0.41032897  0.10816819  0.67500995  1
  P  P178  1  0.91082553  0.45598487  0.74587531  1
  P  P179  1  0.08900310  0.00074734  0.75495119  1
  P  P180  1  0.58875945  0.95598596  0.74591064  1
  P  P181  1  0.41057104  0.50093795  0.75497209  1
  P  P182  1  0.91099808  0.84906045  0.82593806  1
  P  P183  1  0.08766107  0.39530840  0.83465579  1
  P  P184  1  0.58842222  0.34901457  0.82594132  1
  P  P185  1  0.41183273  0.89539909  0.83470692  1
  P  P186  1  0.91469328  0.23608777  0.90484902  1
  P  P187  1  0.09004513  0.79108199  0.91543412  1
  P  P188  1  0.58477336  0.73620132  0.90490668  1
  P  P189  1  0.40950752  0.29115347  0.91553470  1
  P  P190  1  0.92432861  0.60359780  0.98180411  1
  P  P191  1  0.57571333  0.10364154  0.98185685  1
  O  O192  1  0.87658726  0.23160338  0.02621962  1
  O  O193  1  0.59642281  0.53867153  0.98566310  1
  O  O194  1  0.62281786  0.73234124  0.02616275  1
  O  O195  1  0.90358640  0.03870351  0.98564956  1
  O  O196  1  0.08137642  0.03677036  0.01919962  1
  O  O197  1  0.41829741  0.53686755  0.01914761  1
  O  O198  1  0.09405875  0.36105185  0.06252530  1
  O  O199  1  0.87182884  0.92401098  0.03506106  1
  O  O200  1  0.40574323  0.86114925  0.06258081  1
  O  O201  1  0.62784852  0.42487517  0.03513622  1
  O  O202  1  0.16157074  0.06892107  0.08010578  1
  O  O203  1  0.84212845  0.85140393  0.10256880  1
  O  O204  1  0.34292165  0.81985342  0.11220095  1
  O  O205  1  0.65720212  0.09186223  0.07111707  1
  O  O206  1  0.65777423  0.35143341  0.10258658  1
  O  O207  1  0.33829877  0.56892048  0.08011496  1
  O  O208  1  0.84260495  0.59188241  0.07109370  1
  O  O209  1  0.15678253  0.31987274  0.11216914  1
  O  O210  1  0.05058350  0.73396474  0.08436686  1
  O  O211  1  0.94986857  0.18730454  0.09407753  1
  O  O212  1  0.44929376  0.23396861  0.08439723  1
  O  O213  1  0.54987361  0.68733548  0.09414520  1
  O  O214  1  0.08826359  0.95926613  0.14112632  1
  O  O215  1  0.91940388  0.56761391  0.12004535  1
  O  O216  1  0.41144002  0.45916574  0.14113342  1
  O  O217  1  0.58057300  0.06769438  0.12008155  1
  O  O218  1  0.15882629  0.67058190  0.15828738  1
  O  O219  1  0.84112713  0.45861716  0.18320925  1
  O  O220  1  0.34213599  0.42247996  0.19094705  1
  O  O221  1  0.65851073  0.70917861  0.15002736  1
  O  O222  1  0.65893287  0.95867612  0.18319074  1
  O  O223  1  0.34113627  0.17050392  0.15831034  1
  O  O224  1  0.84152711  0.20929234  0.15002709  1
  O  O225  1  0.15777271  0.92250309  0.19093176  1
  O  O226  1  0.05058344  0.33120132  0.16752753  1
  O  O227  1  0.94920358  0.79524516  0.17459061  1
  O  O228  1  0.44947020  0.83116581  0.16752797  1
  O  O229  1  0.55074814  0.29545815  0.17458974  1
  O  O230  1  0.08834194  0.56738457  0.22099121  1
  O  O231  1  0.90791479  0.16802767  0.20014896  1
  O  O232  1  0.41177459  0.06739107  0.22099795  1
  O  O233  1  0.59215968  0.66811643  0.20015076  1
  O  O234  1  0.15909186  0.27770598  0.23756437  1
  O  O235  1  0.84087006  0.06352910  0.26345528  1
  O  O236  1  0.34069303  0.02827394  0.27058662  1
  O  O237  1  0.65891653  0.31348812  0.23030828  1
  O  O238  1  0.65917798  0.56350277  0.26344655  1
  O  O239  1  0.34095300  0.77781136  0.23756763  1
  O  O240  1  0.84111244  0.81349865  0.23032546  1
  O  O241  1  0.15961880  0.52820978  0.27055173  1
  O  O242  1  0.05009191  0.93979906  0.24682151  1
  O  O243  1  0.95031494  0.40088771  0.25447005  1
  O  O244  1  0.44995252  0.43980791  0.24681504  1
  O  O245  1  0.54982985  0.90083572  0.25446981  1
  O  O246  1  0.09075890  0.17430497  0.30100817  1
  O  O247  1  0.91074232  0.77371534  0.28001946  1
  O  O248  1  0.40953947  0.67432586  0.30099756  1
  O  O249  1  0.58940456  0.27374554  0.28000537  1
  O  O250  1  0.15895825  0.88429027  0.31758155  1
  O  O251  1  0.84021706  0.66801382  0.34320513  1
  O  O252  1  0.34287087  0.63309624  0.35104616  1
  O  O253  1  0.65877138  0.91761770  0.31025019  1
  O  O254  1  0.66029795  0.16812020  0.34318492  1
  O  O255  1  0.34154436  0.38423921  0.31758874  1
  O  O256  1  0.84141772  0.41767348  0.31025437  1
  O  O257  1  0.15740632  0.13294769  0.35107474  1
  O  O258  1  0.05012166  0.54636887  0.32606545  1
  O  O259  1  0.94896948  0.00918028  0.33374973  1
  O  O260  1  0.45027880  0.04653452  0.32613267  1
  O  O261  1  0.55139719  0.50935714  0.33375153  1
  O  O262  1  0.08342514  0.77683913  0.37866736  1
  O  O263  1  0.91373813  0.38019279  0.35990221  1
  O  O264  1  0.41667061  0.27705086  0.37864688  1
  O  O265  1  0.58685165  0.88017165  0.35990879  1
  O  O266  1  0.15845452  0.49705732  0.39863755  1
  O  O267  1  0.83791234  0.27697434  0.42114200  1
  O  O268  1  0.34846822  0.26939396  0.42767977  1
  O  O269  1  0.65667950  0.51542033  0.39083179  1
  O  O270  1  0.66282421  0.77678470  0.42113846  1
  O  O271  1  0.34223232  0.99694456  0.39861952  1
  O  O272  1  0.84393242  0.01579277  0.39081511  1
  O  O273  1  0.15210938  0.76981463  0.42768042  1
  O  O274  1  0.05023161  0.15127094  0.40842617  1
  O  O275  1  0.94746214  0.61872640  0.41410917  1
  O  O276  1  0.45027764  0.65137462  0.40836778  1
  O  O277  1  0.55336438  0.11915107  0.41395700  1
  O  O278  1  0.93617071  0.24425355  0.48098290  1
  O  O279  1  0.90497859  0.98847623  0.44087723  1
  O  O280  1  0.56471730  0.74428447  0.48093988  1
  O  O281  1  0.59525276  0.48841794  0.44082592  1
  O  O282  1  0.16710335  0.16297911  0.46890663  1
  O  O283  1  0.41170990  0.95592457  0.46249933  1
  O  O284  1  0.33377647  0.66346867  0.46876248  1
  O  O285  1  0.08947414  0.45548741  0.46248911  1
  O  O286  1  0.12203777  0.33838486  0.51123519  1
  O  O287  1  0.37879092  0.83803067  0.51119691  1
  O  O288  1  0.12412701  0.66777782  0.52628213  1
  O  O289  1  0.40274911  0.36177840  0.48574460  1
  O  O290  1  0.37638902  0.16804302  0.52620298  1
  O  O291  1  0.09793902  0.86097972  0.48577148  1
  O  O292  1  0.91930742  0.86297044  0.51914187  1
  O  O293  1  0.58168057  0.36237298  0.51907427  1
  O  O294  1  0.90648269  0.54000342  0.56253700  1
  O  O295  1  0.12848302  0.97532141  0.53521248  1
  O  O296  1  0.59341866  0.04009785  0.56253513  1
  O  O297  1  0.37297832  0.47553801  0.53524915  1
  O  O298  1  0.83810458  0.83239914  0.57992637  1
  O  O299  1  0.15789785  0.05008697  0.60269252  1
  O  O300  1  0.65754172  0.08194985  0.61210070  1
  O  O301  1  0.34257110  0.80929387  0.57114296  1
  O  O302  1  0.34192808  0.55015062  0.60270532  1
  O  O303  1  0.66161508  0.33246936  0.57994955  1
  O  O304  1  0.15750701  0.30916595  0.57111935  1
  O  O305  1  0.84229232  0.58203385  0.61209943  1
  O  O306  1  0.94967003  0.16675851  0.58417644  1
  O  O307  1  0.04968623  0.71419820  0.59414279  1
  O  O308  1  0.55027610  0.66671968  0.58423288  1
  O  O309  1  0.45009915  0.21410989  0.59414681  1
  O  O310  1  0.91214332  0.94159618  0.64106742  1
  O  O311  1  0.07962053  0.33363185  0.62001201  1
  O  O312  1  0.58769003  0.44156685  0.64108269  1
  O  O313  1  0.42028321  0.83365550  0.62004062  1
  O  O314  1  0.84098412  0.22987136  0.65826961  1
  O  O315  1  0.15864474  0.44129435  0.68315308  1
  O  O316  1  0.65746722  0.47756109  0.69089669  1
  O  O317  1  0.34132361  0.19088293  0.65000817  1
  O  O318  1  0.34118107  0.94128484  0.68315719  1
  O  O319  1  0.65896507  0.72969867  0.65832070  1
  O  O320  1  0.15860329  0.69086695  0.64999485  1
  O  O321  1  0.84222582  0.97788987  0.69086426  1
  O  O322  1  0.94929137  0.56932055  0.66747837  1
  O  O323  1  0.05081934  0.10529035  0.67460197  1
  O  O324  1  0.55057266  0.06928469  0.66749733  1
  O  O325  1  0.44902531  0.60527603  0.67462228  1
  O  O326  1  0.91083348  0.33212934  0.72089676  1
  O  O327  1  0.09210341  0.73194282  0.70008200  1
  O  O328  1  0.58872838  0.83234147  0.72090384  1
  O  O329  1  0.40774998  0.23181241  0.70011273  1
  O  O330  1  0.84067455  0.62182771  0.73757577  1
  O  O331  1  0.15895251  0.83498577  0.76342497  1
  O  O332  1  0.65932648  0.87077706  0.77053222  1
  O  O333  1  0.34043906  0.58519176  0.73029702  1
  O  O334  1  0.34072154  0.33497624  0.76339455  1
  O  O335  1  0.65885552  0.12192585  0.73763705  1
  O  O336  1  0.15920342  0.08489979  0.73027901  1
  O  O337  1  0.84041226  0.37086480  0.77052608  1
  O  O338  1  0.94997357  0.95945969  0.74678514  1
  O  O339  1  0.04951340  0.49768001  0.75433263  1
  O  O340  1  0.54965696  0.45975906  0.74681877  1
  O  O341  1  0.45008981  0.99758167  0.75439627  1
  O  O342  1  0.90917853  0.72464100  0.80100600  1
  O  O343  1  0.08966140  0.12496223  0.77998553  1
  O  O344  1  0.59028060  0.22447537  0.80103011  1
  O  O345  1  0.40978427  0.62502653  0.78002081  1
  O  O346  1  0.84082991  0.01461827  0.81749903  1
  O  O347  1  0.15986064  0.23103569  0.84319570  1
  O  O348  1  0.65691301  0.26640994  0.85109227  1
  O  O349  1  0.34109279  0.98159610  0.81027535  1
  O  O350  1  0.33954029  0.73116282  0.84322361  1
  O  O351  1  0.65869448  0.51446199  0.81749241  1
  O  O352  1  0.15832063  0.48118861  0.81018648  1
  O  O353  1  0.84228459  0.76630769  0.85104550  1
  O  O354  1  0.94990160  0.35186964  0.82600512  1
  O  O355  1  0.05082629  0.89001958  0.83374748  1
  O  O356  1  0.54947780  0.85178844  0.82599647  1
  O  O357  1  0.44857665  0.39016451  0.83372627  1
  O  O358  1  0.91558829  0.12250394  0.87854523  1
  O  O359  1  0.08594272  0.51906865  0.85977870  1
  O  O360  1  0.58351649  0.62297807  0.87856178  1
  O  O361  1  0.41376029  0.01891348  0.85986198  1
  O  O362  1  0.84185398  0.40294730  0.89859115  1
  O  O363  1  0.16207421  0.62293746  0.92101261  1
  O  O364  1  0.65147855  0.63004998  0.92759026  1
  O  O365  1  0.34372994  0.38438086  0.89082995  1
  O  O366  1  0.33759592  0.12293646  0.92112137  1
  O  O367  1  0.65762485  0.90303546  0.89866116  1
  O  O368  1  0.15595422  0.88437007  0.89075817  1
  O  O369  1  0.84831103  0.13050384  0.92764312  1
  O  O370  1  0.94959712  0.74856116  0.90837827  1
  O  O371  1  0.05318031  0.27998070  0.91371865  1
  O  O372  1  0.55001868  0.24885503  0.90851125  1
  O  O373  1  0.44648431  0.78016155  0.91388377  1
  O  O374  1  0.06409400  0.65706643  0.98092639  1
  O  O375  1  0.09507206  0.91147465  0.94077070  1
  O  O376  1  0.43588036  0.15684196  0.98088407  1
  O  O377  1  0.40436874  0.41167601  0.94085334  1
  O  O378  1  0.83270587  0.73703004  0.96879522  1
  O  O379  1  0.58823661  0.94486159  0.96247443  1
  O  O380  1  0.66730574  0.23701615  0.96881201  1
  O  O381  1  0.91202268  0.44516374  0.96234146  1
  O  O382  1  0.87833125  0.56148783  0.01109641  1
  O  O383  1  0.62145494  0.06241333  0.01119516  1
