# generated using pymatgen
data_Li3PO4
_symmetry_space_group_name_H-M   'P 1'
_cell_length_a   10.55485100
_cell_length_b   7.91303400
_cell_length_c   47.13597100
_cell_angle_alpha   90.00000000
_cell_angle_beta   90.00000000
_cell_angle_gamma   90.00000000
_symmetry_Int_Tables_number   1
_chemical_formula_structural   Li3PO4
_chemical_formula_sum   'Li144 P48 O192'
_cell_volume   3936.83847652
_cell_formula_units_Z   48
loop_
 _symmetry_equiv_pos_site_id
 _symmetry_equiv_pos_as_xyz
  1  'x, y, z'
loop_
 _atom_site_type_symbol
 _atom_site_label
 _atom_site_symmetry_multiplicity
 _atom_site_fract_x
 _atom_site_fract_y
 _atom_site_fract_z
 _atom_site_occupancy
  Li  Li0  1  0.83727375  0.29501922  0.98434402  1
  Li  Li1  1  0.66675870  0.10355051  0.02840904  1
  Li  Li2  1  0.66298891  0.79479153  0.98433979  1
  Li  Li3  1  0.83332782  0.60373025  0.02835573  1
  Li  Li4  1  0.06614355  0.76898088  0.04987803  1
  Li  Li5  1  0.92841869  0.29796329  0.04019457  1
  Li  Li6  1  0.43394135  0.26769575  0.05000093  1
  Li  Li7  1  0.57163791  0.79787868  0.04019258  1
  Li  Li8  1  0.16633431  0.76267012  0.10159006  1
  Li  Li9  1  0.83296555  0.91103948  0.06975469  1
  Li  Li10  1  0.33382214  0.95568372  0.05922947  1
  Li  Li11  1  0.66155869  0.71587558  0.11011421  1
  Li  Li12  1  0.66718363  0.41107433  0.06982295  1
  Li  Li13  1  0.33435915  0.26240673  0.10170785  1
  Li  Li14  1  0.83860542  0.21593166  0.11010770  1
  Li  Li15  1  0.16642299  0.45592534  0.05922578  1
  Li  Li16  1  0.07637760  0.36724094  0.13037294  1
  Li  Li17  1  0.92662367  0.90609432  0.12266871  1
  Li  Li18  1  0.42371552  0.86724530  0.13036747  1
  Li  Li19  1  0.57358114  0.40611576  0.12268123  1
  Li  Li20  1  0.16323487  0.36343651  0.18408552  1
  Li  Li21  1  0.83673229  0.51825068  0.15088176  1
  Li  Li22  1  0.33598152  0.55784955  0.14260489  1
  Li  Li23  1  0.66307238  0.32353084  0.19204059  1
  Li  Li24  1  0.66337372  0.01783644  0.15095249  1
  Li  Li25  1  0.33685549  0.86355660  0.18407958  1
  Li  Li26  1  0.83702960  0.82352347  0.19203675  1
  Li  Li27  1  0.16410686  0.05781662  0.14260509  1
  Li  Li28  1  0.07529107  0.97521780  0.21235946  1
  Li  Li29  1  0.92525632  0.51304980  0.20440765  1
  Li  Li30  1  0.42473249  0.47523575  0.21236899  1
  Li  Li31  1  0.57475594  0.01301650  0.20444456  1
  Li  Li32  1  0.16568319  0.97301213  0.26645498  1
  Li  Li33  1  0.83477563  0.12210530  0.23340924  1
  Li  Li34  1  0.33698347  0.16511537  0.22483762  1
  Li  Li35  1  0.66211707  0.92695428  0.27461495  1
  Li  Li36  1  0.66524198  0.62211603  0.23340981  1
  Li  Li37  1  0.33442942  0.47307775  0.26648201  1
  Li  Li38  1  0.83789159  0.42694999  0.27461398  1
  Li  Li39  1  0.16302724  0.66508109  0.22482884  1
  Li  Li40  1  0.07781015  0.58696713  0.29445254  1
  Li  Li41  1  0.92863811  0.11562769  0.28672692  1
  Li  Li42  1  0.42215276  0.08692870  0.29445834  1
  Li  Li43  1  0.57136504  0.61567634  0.28673119  1
  Li  Li44  1  0.17062332  0.57517018  0.34959534  1
  Li  Li45  1  0.83396838  0.72531387  0.31505409  1
  Li  Li46  1  0.33712244  0.77484601  0.30680901  1
  Li  Li47  1  0.65902153  0.52790702  0.35510321  1
  Li  Li48  1  0.66601741  0.22520549  0.31505356  1
  Li  Li49  1  0.32921575  0.07519530  0.34960261  1
  Li  Li50  1  0.84081632  0.02832038  0.35517446  1
  Li  Li51  1  0.16282308  0.27500312  0.30678187  1
  Li  Li52  1  0.08062390  0.18357793  0.38435010  1
  Li  Li53  1  0.94152671  0.71268658  0.36614551  1
  Li  Li54  1  0.41940306  0.68365372  0.38432235  1
  Li  Li55  1  0.55842901  0.21267329  0.36614775  1
  Li  Li56  1  0.84712137  0.34453930  0.44561573  1
  Li  Li57  1  0.84118055  0.34102736  0.39167694  1
  Li  Li58  1  0.33736214  0.37378007  0.39078082  1
  Li  Li59  1  0.65763248  0.17161072  0.41818419  1
  Li  Li60  1  0.65880990  0.84100755  0.39166832  1
  Li  Li61  1  0.65288358  0.84453387  0.44561418  1
  Li  Li62  1  0.84239036  0.67161746  0.41818705  1
  Li  Li63  1  0.16263511  0.87375959  0.39077728  1
  Li  Li64  1  0.01853137  0.02786405  0.46187718  1
  Li  Li65  1  0.82262876  0.04569382  0.49840049  1
  Li  Li66  1  0.48148131  0.52787164  0.46187264  1
  Li  Li67  1  0.67739845  0.54568527  0.49840013  1
  Li  Li68  1  0.27767753  0.33407934  0.44454490  1
  Li  Li69  1  0.60857505  0.21752650  0.47596440  1
  Li  Li70  1  0.22233327  0.83410733  0.44454506  1
  Li  Li71  1  0.89145200  0.71753466  0.47596847  1
  Li  Li72  1  0.16206400  0.55618197  0.48458648  1
  Li  Li73  1  0.33290790  0.74761106  0.52853000  1
  Li  Li74  1  0.33805398  0.05617533  0.48461016  1
  Li  Li75  1  0.16709571  0.24759561  0.52852507  1
  Li  Li76  1  0.93398707  0.08292826  0.54977849  1
  Li  Li77  1  0.07083465  0.55248387  0.54009910  1
  Li  Li78  1  0.56602550  0.58293198  0.54978176  1
  Li  Li79  1  0.42917677  0.05248653  0.54010326  1
  Li  Li80  1  0.83347261  0.08805420  0.60151026  1
  Li  Li81  1  0.16736027  0.94108277  0.56976812  1
  Li  Li82  1  0.66665745  0.89253996  0.55919930  1
  Li  Li83  1  0.33793670  0.13482219  0.61016445  1
  Li  Li84  1  0.33257815  0.44075068  0.56972569  1
  Li  Li85  1  0.66647337  0.58814108  0.60151016  1
  Li  Li86  1  0.16205193  0.63484162  0.61016065  1
  Li  Li87  1  0.83334887  0.39241791  0.55921059  1
  Li  Li88  1  0.92350693  0.48283966  0.63009719  1
  Li  Li89  1  0.07327547  0.94335008  0.62241626  1
  Li  Li90  1  0.57639506  0.98289346  0.63011041  1
  Li  Li91  1  0.42663555  0.44332682  0.62240985  1
  Li  Li92  1  0.83590020  0.48643466  0.68393524  1
  Li  Li93  1  0.16331199  0.33170981  0.65081895  1
  Li  Li94  1  0.66455407  0.29195018  0.64256488  1
  Li  Li95  1  0.33575498  0.52602202  0.69236424  1
  Li  Li96  1  0.33662018  0.83171994  0.65082257  1
  Li  Li97  1  0.66348703  0.98614061  0.68393026  1
  Li  Li98  1  0.16342179  0.02549807  0.69221259  1
  Li  Li99  1  0.83532109  0.79194119  0.64256177  1
  Li  Li100  1  0.92416094  0.87280752  0.71226368  1
  Li  Li101  1  0.07468181  0.33602693  0.70410503  1
  Li  Li102  1  0.57554064  0.37287305  0.71218690  1
  Li  Li103  1  0.42503332  0.83598001  0.70412085  1
  Li  Li104  1  0.83474933  0.87833668  0.76643863  1
  Li  Li105  1  0.16467697  0.72520221  0.73333408  1
  Li  Li106  1  0.66270475  0.68438953  0.72466405  1
  Li  Li107  1  0.33820512  0.92140464  0.77428822  1
  Li  Li108  1  0.33513237  0.22506987  0.73333154  1
  Li  Li109  1  0.66443913  0.37743258  0.76623572  1
  Li  Li110  1  0.16133556  0.42158179  0.77432628  1
  Li  Li111  1  0.83698307  0.18453429  0.72468604  1
  Li  Li112  1  0.92181109  0.26228084  0.79430275  1
  Li  Li113  1  0.07118809  0.73419228  0.78656911  1
  Li  Li114  1  0.57805181  0.76236139  0.79429908  1
  Li  Li115  1  0.42861760  0.23405796  0.78662324  1
  Li  Li116  1  0.83031943  0.27366611  0.84954048  1
  Li  Li117  1  0.16625266  0.12125591  0.81485231  1
  Li  Li118  1  0.66268833  0.07355500  0.80663761  1
  Li  Li119  1  0.34098324  0.31965575  0.85509056  1
  Li  Li120  1  0.33372705  0.62122635  0.81485739  1
  Li  Li121  1  0.66995148  0.77363957  0.84952369  1
  Li  Li122  1  0.15908075  0.81968407  0.85507703  1
  Li  Li123  1  0.83727687  0.57347313  0.80662316  1
  Li  Li124  1  0.91866697  0.66694050  0.88419575  1
  Li  Li125  1  0.05866236  0.13741975  0.86579130  1
  Li  Li126  1  0.58150128  0.16724040  0.88408135  1
  Li  Li127  1  0.44149967  0.63739597  0.86577679  1
  Li  Li128  1  0.15202587  0.50697757  0.94559436  1
  Li  Li129  1  0.15924173  0.51108656  0.89164283  1
  Li  Li130  1  0.66275286  0.47719858  0.89044861  1
  Li  Li131  1  0.34259193  0.68063267  0.91805868  1
  Li  Li132  1  0.34089479  0.01026542  0.89162899  1
  Li  Li133  1  0.34808727  0.00709401  0.94560252  1
  Li  Li134  1  0.15785215  0.18022943  0.91794656  1
  Li  Li135  1  0.83728914  0.97715958  0.89043981  1
  Li  Li136  1  0.98133381  0.82289577  0.96174439  1
  Li  Li137  1  0.17691474  0.80514405  0.99830169  1
  Li  Li138  1  0.51867236  0.32293891  0.96176467  1
  Li  Li139  1  0.32326449  0.30529689  0.99844082  1
  Li  Li140  1  0.71893977  0.51517761  0.94428974  1
  Li  Li141  1  0.39093394  0.63406732  0.97605855  1
  Li  Li142  1  0.78107549  0.01526666  0.94429521  1
  Li  Li143  1  0.10917267  0.13424334  0.97599324  1
  P  P144  1  0.90165538  0.95587486  0.00774426  1
  P  P145  1  0.59850493  0.45569347  0.00778745  1
  P  P146  1  0.08791709  0.11056896  0.08090813  1
  P  P147  1  0.91225628  0.56274251  0.09039199  1
  P  P148  1  0.41229866  0.61023050  0.08089045  1
  P  P149  1  0.58796951  0.06254849  0.09044004  1
  P  P150  1  0.08933096  0.71216046  0.16325714  1
  P  P151  1  0.91155606  0.16761918  0.17269062  1
  P  P152  1  0.41099247  0.21225639  0.16329814  1
  P  P153  1  0.58854948  0.66768900  0.17271228  1
  P  P154  1  0.08870902  0.31890542  0.24528997  1
  P  P155  1  0.91158796  0.77358216  0.25490783  1
  P  P156  1  0.41127815  0.81883103  0.24531433  1
  P  P157  1  0.58844638  0.27363166  0.25492073  1
  P  P158  1  0.09120086  0.92408749  0.32819854  1
  P  P159  1  0.91815845  0.37482693  0.33641374  1
  P  P160  1  0.40867757  0.42398018  0.32819630  1
  P  P161  1  0.58170188  0.87487450  0.33643730  1
  P  P162  1  0.08830831  0.52907039  0.41384822  1
  P  P163  1  0.89779441  0.97511542  0.41604203  1
  P  P164  1  0.41170284  0.02906755  0.41385106  1
  P  P165  1  0.60224056  0.47512454  0.41603277  1
  P  P166  1  0.92310779  0.34339111  0.49784921  1
  P  P167  1  0.57695103  0.84337717  0.49785647  1
  P  P168  1  0.09883560  0.89557950  0.50776936  1
  P  P169  1  0.40120731  0.39557406  0.50776647  1
  P  P170  1  0.91240858  0.73983943  0.58073054  1
  P  P171  1  0.08751168  0.28816702  0.59039630  1
  P  P172  1  0.58757505  0.23983317  0.58073643  1
  P  P173  1  0.41242531  0.78814109  0.59038467  1
  P  P174  1  0.91105520  0.13725746  0.66315882  1
  P  P175  1  0.08814409  0.68210084  0.67259837  1
  P  P176  1  0.58853054  0.63730174  0.66315884  1
  P  P177  1  0.41150253  0.18222759  0.67262481  1
  P  P178  1  0.91062161  0.53021473  0.74517286  1
  P  P179  1  0.08822094  0.07554930  0.75475188  1
  P  P180  1  0.58888036  0.03020329  0.74514828  1
  P  P181  1  0.41150397  0.57545869  0.75477933  1
  P  P182  1  0.90855955  0.92465626  0.82806715  1
  P  P183  1  0.08190887  0.47353420  0.83624680  1
  P  P184  1  0.59149373  0.42476662  0.82801942  1
  P  P185  1  0.41810080  0.97349948  0.83624197  1
  P  P186  1  0.91163327  0.32194670  0.91367374  1
  P  P187  1  0.10235748  0.87639256  0.91597006  1
  P  P188  1  0.58856849  0.82212045  0.91366750  1
  P  P189  1  0.39789578  0.37650989  0.91596801  1
  P  P190  1  0.07705884  0.50773312  0.99786798  1
  P  P191  1  0.42319255  0.00762398  0.99788664  1
  O  O192  1  0.84221545  0.12724349  0.01615096  1
  O  O193  1  0.67112178  0.39093532  0.98055400  1
  O  O194  1  0.65792955  0.62713978  0.01616866  1
  O  O195  1  0.82901658  0.89108131  0.98052080  1
  O  O196  1  0.04222280  0.97176495  0.99893812  1
  O  O197  1  0.45794735  0.47161815  0.99897617  1
  O  O198  1  0.08572117  0.24054178  0.05670863  1
  O  O199  1  0.89324345  0.82952418  0.03286757  1
  O  O200  1  0.41439398  0.74017860  0.05668628  1
  O  O201  1  0.60691412  0.32938725  0.03291450  1
  O  O202  1  0.15750392  0.94424579  0.07196016  1
  O  O203  1  0.84007913  0.72691269  0.09922937  1
  O  O204  1  0.34154794  0.68777692  0.10714931  1
  O  O205  1  0.65737395  0.97845143  0.06486848  1
  O  O206  1  0.66000937  0.22683761  0.09925053  1
  O  O207  1  0.34276810  0.44383555  0.07197561  1
  O  O208  1  0.84271473  0.47851122  0.06484849  1
  O  O209  1  0.15869330  0.18796358  0.10717534  1
  O  O210  1  0.05030346  0.60770451  0.08193934  1
  O  O211  1  0.94936195  0.06264005  0.08975015  1
  O  O212  1  0.44978540  0.10718497  0.08204034  1
  O  O213  1  0.55085704  0.56249978  0.08974873  1
  O  O214  1  0.09091762  0.83541996  0.13756330  1
  O  O215  1  0.91218654  0.43791279  0.11607973  1
  O  O216  1  0.40964730  0.33570150  0.13762684  1
  O  O217  1  0.58822502  0.93776541  0.11612602  1
  O  O218  1  0.15919302  0.54561879  0.15519170  1
  O  O219  1  0.84152507  0.33387594  0.18117774  1
  O  O220  1  0.34171806  0.29708449  0.18895919  1
  O  O221  1  0.65839341  0.58262347  0.14738025  1
  O  O222  1  0.65860922  0.83384106  0.18124444  1
  O  O223  1  0.34106809  0.04584892  0.15517893  1
  O  O224  1  0.84174597  0.08243902  0.14736436  1
  O  O225  1  0.15845489  0.79709030  0.18893259  1
  O  O226  1  0.05089823  0.20752499  0.16450976  1
  O  O227  1  0.94997937  0.67176184  0.17173706  1
  O  O228  1  0.44926279  0.70778893  0.16451545  1
  O  O229  1  0.55025487  0.17167845  0.17180400  1
  O  O230  1  0.08849404  0.44255212  0.21963259  1
  O  O231  1  0.91002964  0.04418542  0.19864685  1
  O  O232  1  0.41143738  0.94258302  0.21967117  1
  O  O233  1  0.58998559  0.54414232  0.19865066  1
  O  O234  1  0.15973799  0.15329074  0.23704940  1
  O  O235  1  0.84097697  0.93872237  0.26381924  1
  O  O236  1  0.34148134  0.90448220  0.27078564  1
  O  O237  1  0.65775564  0.19011864  0.22939165  1
  O  O238  1  0.65905164  0.43876215  0.26384291  1
  O  O239  1  0.34027370  0.65323835  0.23706015  1
  O  O240  1  0.84231816  0.69001744  0.22937682  1
  O  O241  1  0.15851058  0.40472990  0.27074515  1
  O  O242  1  0.05103466  0.81554331  0.24697752  1
  O  O243  1  0.95040788  0.27558289  0.25411533  1
  O  O244  1  0.44899834  0.31558473  0.24699467  1
  O  O245  1  0.54961237  0.77555753  0.25412230  1
  O  O246  1  0.09462755  0.05047859  0.30289727  1
  O  O247  1  0.91025635  0.64832251  0.28059868  1
  O  O248  1  0.40537956  0.55053102  0.30291721  1
  O  O249  1  0.58973851  0.14830801  0.28060258  1
  O  O250  1  0.16405535  0.75985399  0.32005849  1
  O  O251  1  0.84252634  0.53416156  0.34677030  1
  O  O252  1  0.34520551  0.50362927  0.35506091  1
  O  O253  1  0.65457034  0.79112985  0.31139418  1
  O  O254  1  0.65737317  0.03407206  0.34684138  1
  O  O255  1  0.33575562  0.25990107  0.32000856  1
  O  O256  1  0.84527305  0.29085628  0.31139207  1
  O  O257  1  0.15468014  0.00377522  0.35506227  1
  O  O258  1  0.05317071  0.43023178  0.32754493  1
  O  O259  1  0.95125767  0.87681268  0.33483756  1
  O  O260  1  0.44667616  0.93039709  0.32759117  1
  O  O261  1  0.54857084  0.37648381  0.33483500  1
  O  O262  1  0.09898828  0.64601122  0.38695899  1
  O  O263  1  0.92735902  0.24550510  0.36126036  1
  O  O264  1  0.40097713  0.14605845  0.38696935  1
  O  O265  1  0.57251760  0.74528436  0.36124529  1
  O  O266  1  0.16943277  0.36674031  0.40868655  1
  O  O267  1  0.82862446  0.14624926  0.41676742  1
  O  O268  1  0.36553386  0.11923561  0.44113343  1
  O  O269  1  0.65119819  0.37155723  0.38987178  1
  O  O270  1  0.67140296  0.64625493  0.41675691  1
  O  O271  1  0.33058087  0.86673545  0.40868810  1
  O  O272  1  0.84881302  0.87154134  0.38988648  1
  O  O273  1  0.13451280  0.61927677  0.44112255  1
  O  O274  1  0.04287396  0.00373361  0.41517202  1
  O  O275  1  0.94466618  0.48112192  0.41689530  1
  O  O276  1  0.45716320  0.50372242  0.41517072  1
  O  O277  1  0.55534231  0.98109713  0.41689024  1
  O  O278  1  0.85626708  0.25642037  0.52324907  1
  O  O279  1  0.86244210  0.86626174  0.44248423  1
  O  O280  1  0.64382140  0.75635536  0.52324704  1
  O  O281  1  0.63763440  0.36626492  0.44247311  1
  O  O282  1  0.92418238  0.21078911  0.47338599  1
  O  O283  1  0.65469008  0.99549424  0.48567299  1
  O  O284  1  0.57582448  0.71079767  0.47339069  1
  O  O285  1  0.84536752  0.49550385  0.48566866  1
  O  O286  1  0.05878756  0.39965397  0.50568385  1
  O  O287  1  0.44130226  0.89967569  0.50570937  1
  O  O288  1  0.15766883  0.72387395  0.51619893  1
  O  O289  1  0.32822022  0.46016656  0.48058850  1
  O  O290  1  0.34237125  0.22389013  0.51620768  1
  O  O291  1  0.17183153  0.96018754  0.48059293  1
  O  O292  1  0.95827705  0.88002685  0.49891443  1
  O  O293  1  0.54177010  0.38003782  0.49891443  1
  O  O294  1  0.91389949  0.60935293  0.55660484  1
  O  O295  1  0.10725631  0.02187955  0.53289444  1
  O  O296  1  0.58616309  0.10941020  0.55660057  1
  O  O297  1  0.39278395  0.52189184  0.53288653  1
  O  O298  1  0.84316763  0.90633298  0.57174410  1
  O  O299  1  0.15962024  0.12393051  0.59920642  1
  O  O300  1  0.65841669  0.16291279  0.60704544  1
  O  O301  1  0.34308566  0.87267993  0.56485832  1
  O  O302  1  0.34032225  0.62385905  0.59917012  1
  O  O303  1  0.65683722  0.40634642  0.57177083  1
  O  O304  1  0.15686028  0.37254887  0.56485711  1
  O  O305  1  0.84150295  0.66296943  0.60703600  1
  O  O306  1  0.94945850  0.24306431  0.58195530  1
  O  O307  1  0.05108475  0.78740741  0.58954961  1
  O  O308  1  0.55049483  0.74311199  0.58194410  1
  O  O309  1  0.44886982  0.28733482  0.58954132  1
  O  O310  1  0.90921077  0.01411579  0.63743969  1
  O  O311  1  0.08776388  0.41283733  0.61607845  1
  O  O312  1  0.59049415  0.51418358  0.63744034  1
  O  O313  1  0.41213703  0.91270511  0.61608292  1
  O  O314  1  0.84131424  0.30395804  0.65508370  1
  O  O315  1  0.15812433  0.51576556  0.68109653  1
  O  O316  1  0.65800686  0.55250834  0.68879675  1
  O  O317  1  0.34171683  0.26738964  0.64728740  1
  O  O318  1  0.34150876  0.01584770  0.68110502  1
  O  O319  1  0.65818970  0.80405297  0.65507431  1
  O  O320  1  0.15812656  0.76740297  0.64729930  1
  O  O321  1  0.84170109  0.05238407  0.68880525  1
  O  O322  1  0.94883898  0.64230606  0.66438456  1
  O  O323  1  0.05044798  0.17725014  0.67164778  1
  O  O324  1  0.55088439  0.14251046  0.66445111  1
  O  O325  1  0.44917198  0.67715359  0.67168778  1
  O  O326  1  0.91111061  0.40687316  0.71946713  1
  O  O327  1  0.08967745  0.80500780  0.69861794  1
  O  O328  1  0.58849371  0.90660065  0.71948721  1
  O  O329  1  0.40980205  0.30522669  0.69863368  1
  O  O330  1  0.83960890  0.69587595  0.73698501  1
  O  O331  1  0.15894797  0.91032443  0.76360245  1
  O  O332  1  0.65864324  0.94454608  0.77061128  1
  O  O333  1  0.34200712  0.65953565  0.72932315  1
  O  O334  1  0.34081032  0.41026844  0.76364210  1
  O  O335  1  0.65980639  0.19578977  0.73688589  1
  O  O336  1  0.15759937  0.15952517  0.72927590  1
  O  O337  1  0.84093125  0.44407458  0.77059852  1
  O  O338  1  0.94883226  0.03378815  0.74676211  1
  O  O339  1  0.04891782  0.57353764  0.75400812  1
  O  O340  1  0.55081257  0.53370980  0.74673581  1
  O  O341  1  0.45061081  0.07349448  0.75399583  1
  O  O342  1  0.90509519  0.79823518  0.80277763  1
  O  O343  1  0.08935845  0.20023781  0.78050931  1
  O  O344  1  0.59484291  0.29823599  0.80274518  1
  O  O345  1  0.41054418  0.70023640  0.78052227  1
  O  O346  1  0.83572900  0.08885001  0.81990126  1
  O  O347  1  0.15777992  0.31435895  0.84656882  1
  O  O348  1  0.65524617  0.34547993  0.85488917  1
  O  O349  1  0.34545749  0.05737427  0.81117503  1
  O  O350  1  0.34229417  0.81432031  0.84658437  1
  O  O351  1  0.66419996  0.58902807  0.81984187  1
  O  O352  1  0.15444352  0.55755297  0.81117888  1
  O  O353  1  0.84494566  0.84528513  0.85494001  1
  O  O354  1  0.94684980  0.41793806  0.82742170  1
  O  O355  1  0.04853973  0.97169282  0.83471948  1
  O  O356  1  0.55315982  0.91794179  0.82741758  1
  O  O357  1  0.45150889  0.47165815  0.83470835  1
  O  O358  1  0.90167075  0.20432348  0.88683827  1
  O  O359  1  0.07252337  0.60315135  0.86106635  1
  O  O360  1  0.59852321  0.70450923  0.88683068  1
  O  O361  1  0.42748828  0.10313065  0.86105853  1
  O  O362  1  0.83023461  0.48379074  0.90833674  1
  O  O363  1  0.17142119  0.70513457  0.91668063  1
  O  O364  1  0.63502281  0.73228039  0.94095852  1
  O  O365  1  0.34897525  0.47945484  0.88973737  1
  O  O366  1  0.32896691  0.20514188  0.91666410  1
  O  O367  1  0.66994487  0.98397873  0.90834111  1
  O  O368  1  0.15126605  0.97925576  0.88972817  1
  O  O369  1  0.86515982  0.23221625  0.94097178  1
  O  O370  1  0.95716851  0.84782247  0.91515142  1
  O  O371  1  0.05510837  0.37042609  0.91682016  1
  O  O372  1  0.54311837  0.34810663  0.91514911  1
  O  O373  1  0.44510240  0.87064341  0.91682582  1
  O  O374  1  0.14383815  0.59445338  0.02328436  1
  O  O375  1  0.13790939  0.98533719  0.94237322  1
  O  O376  1  0.35648719  0.09415180  0.02333281  1
  O  O377  1  0.36233803  0.48535905  0.94238412  1
  O  O378  1  0.07589531  0.64067621  0.97343898  1
  O  O379  1  0.34515601  0.85597756  0.98563688  1
  O  O380  1  0.42421243  0.14065074  0.97348070  1
  O  O381  1  0.15513928  0.35609498  0.98562874  1
  O  O382  1  0.94137196  0.45106880  0.00561635  1
  O  O383  1  0.55889294  0.95098988  0.00563179  1
