# generated using pymatgen
data_Li3PO4
_symmetry_space_group_name_H-M   'P 1'
_cell_length_a   10.55485100
_cell_length_b   7.91303400
_cell_length_c   39.77539251
_cell_angle_alpha   90.00000000
_cell_angle_beta   90.00000000
_cell_angle_gamma   90.00000000
_symmetry_Int_Tables_number   1
_chemical_formula_structural   Li3PO4
_chemical_formula_sum   'Li120 P40 O160'
_cell_volume   3322.07637477
_cell_formula_units_Z   40
loop_
 _symmetry_equiv_pos_site_id
 _symmetry_equiv_pos_as_xyz
  1  'x, y, z'
loop_
 _atom_site_type_symbol
 _atom_site_label
 _atom_site_symmetry_multiplicity
 _atom_site_fract_x
 _atom_site_fract_y
 _atom_site_fract_z
 _atom_site_occupancy
  Li  Li0  1  0.84057695  0.17962076  0.03579050  1
  Li  Li1  1  0.33822991  0.24018608  0.02270965  1
  Li  Li2  1  0.65940812  0.67961865  0.03578308  1
  Li  Li3  1  0.16175107  0.74020137  0.02270849  1
  Li  Li4  1  0.91413529  0.52813182  0.02324589  1
  Li  Li5  1  0.58547980  0.02769651  0.02318352  1
  Li  Li6  1  0.16141995  0.02689941  0.07173374  1
  Li  Li7  1  0.83627828  0.78398366  0.13333164  1
  Li  Li8  1  0.33506995  0.82129299  0.12394717  1
  Li  Li9  1  0.66631835  0.98480243  0.08712888  1
  Li  Li10  1  0.66375730  0.28399189  0.13334034  1
  Li  Li11  1  0.33856240  0.52683557  0.07174207  1
  Li  Li12  1  0.83368536  0.48477219  0.08714032  1
  Li  Li13  1  0.16494079  0.32131773  0.12394134  1
  Li  Li14  1  0.07465680  0.63789186  0.10842855  1
  Li  Li15  1  0.92609839  0.17456110  0.09907312  1
  Li  Li16  1  0.42536282  0.13788000  0.10844713  1
  Li  Li17  1  0.57391095  0.67453534  0.09906992  1
  Li  Li18  1  0.16407567  0.62960121  0.17207987  1
  Li  Li19  1  0.83592406  0.38855019  0.23104533  1
  Li  Li20  1  0.33758050  0.43221040  0.22002272  1
  Li  Li21  1  0.66470078  0.58824834  0.18253301  1
  Li  Li22  1  0.66410866  0.88855027  0.23103884  1
  Li  Li23  1  0.33593755  0.12960278  0.17208342  1
  Li  Li24  1  0.83533039  0.08826192  0.18253524  1
  Li  Li25  1  0.16248585  0.93217762  0.22003962  1
  Li  Li26  1  0.07419746  0.24299452  0.20558673  1
  Li  Li27  1  0.92489536  0.77773185  0.19659068  1
  Li  Li28  1  0.42583144  0.74299153  0.20558357  1
  Li  Li29  1  0.57512542  0.27772902  0.19658925  1
  Li  Li30  1  0.16362837  0.23745267  0.26896502  1
  Li  Li31  1  0.83592196  0.99590862  0.32785906  1
  Li  Li32  1  0.33472000  0.03704617  0.31743888  1
  Li  Li33  1  0.66235675  0.19333086  0.27993734  1
  Li  Li34  1  0.66410866  0.49583969  0.32786195  1
  Li  Li35  1  0.33639125  0.73745322  0.26895971  1
  Li  Li36  1  0.83767166  0.69333320  0.27993534  1
  Li  Li37  1  0.16527192  0.53704163  0.31743667  1
  Li  Li38  1  0.07510327  0.84731563  0.30341483  1
  Li  Li39  1  0.92587941  0.38227574  0.29443874  1
  Li  Li40  1  0.42490558  0.34730497  0.30340711  1
  Li  Li41  1  0.57419861  0.88220194  0.29441809  1
  Li  Li42  1  0.16371559  0.84098952  0.36669739  1
  Li  Li43  1  0.83837846  0.59761551  0.42832000  1
  Li  Li44  1  0.33374747  0.64018034  0.41286341  1
  Li  Li45  1  0.66504823  0.80405735  0.37607724  1
  Li  Li46  1  0.66152581  0.09751118  0.42831920  1
  Li  Li47  1  0.33627723  0.34099046  0.36669708  1
  Li  Li48  1  0.83500448  0.30383466  0.37606741  1
  Li  Li49  1  0.16625171  0.14018410  0.41285719  1
  Li  Li50  1  0.07388572  0.45056761  0.40089830  1
  Li  Li51  1  0.92532319  0.98717952  0.39154209  1
  Li  Li52  1  0.42589850  0.95053356  0.40084331  1
  Li  Li53  1  0.57472142  0.48728272  0.39153419  1
  Li  Li54  1  0.15926116  0.44498436  0.46414968  1
  Li  Li55  1  0.66139053  0.38312251  0.47763451  1
  Li  Li56  1  0.34063319  0.94518794  0.46416597  1
  Li  Li57  1  0.83848680  0.88307540  0.47760371  1
  Li  Li58  1  0.08620734  0.09633734  0.47673474  1
  Li  Li59  1  0.41364332  0.59589079  0.47669555  1
  Li  Li60  1  0.65932038  0.94533324  0.53578248  1
  Li  Li61  1  0.16174909  0.88456214  0.52264740  1
  Li  Li62  1  0.84058835  0.44532285  0.53578464  1
  Li  Li63  1  0.33792836  0.38481321  0.52275424  1
  Li  Li64  1  0.58572262  0.59684389  0.52324336  1
  Li  Li65  1  0.91380514  0.09630933  0.52325451  1
  Li  Li66  1  0.33852134  0.09810880  0.57173735  1
  Li  Li67  1  0.66372883  0.34101500  0.63333223  1
  Li  Li68  1  0.16495321  0.30379773  0.62394082  1
  Li  Li69  1  0.83369538  0.14021676  0.58714169  1
  Li  Li70  1  0.83628079  0.84101971  0.63332770  1
  Li  Li71  1  0.16155010  0.59796713  0.57171620  1
  Li  Li72  1  0.66631530  0.64020688  0.58713718  1
  Li  Li73  1  0.33506243  0.80370475  0.62394265  1
  Li  Li74  1  0.42537426  0.48708918  0.60842191  1
  Li  Li75  1  0.57389921  0.95044490  0.59906873  1
  Li  Li76  1  0.07464662  0.98712619  0.60841834  1
  Li  Li77  1  0.92605282  0.45053457  0.59910550  1
  Li  Li78  1  0.33593980  0.49539963  0.67208084  1
  Li  Li79  1  0.66411225  0.73646048  0.73103650  1
  Li  Li80  1  0.16242340  0.69278628  0.72002273  1
  Li  Li81  1  0.83523841  0.53667382  0.68252438  1
  Li  Li82  1  0.83591374  0.23645359  0.73104619  1
  Li  Li83  1  0.16406817  0.99541157  0.67207998  1
  Li  Li84  1  0.66476882  0.03668681  0.68252359  1
  Li  Li85  1  0.33753217  0.19283249  0.72003613  1
  Li  Li86  1  0.42582618  0.88201676  0.70558316  1
  Li  Li87  1  0.57512392  0.34726703  0.69658718  1
  Li  Li88  1  0.07419034  0.38199793  0.70558586  1
  Li  Li89  1  0.92489393  0.84727054  0.69659065  1
  Li  Li90  1  0.33639437  0.88755484  0.76896214  1
  Li  Li91  1  0.66443748  0.12927979  0.82785154  1
  Li  Li92  1  0.16528462  0.08795258  0.81743601  1
  Li  Li93  1  0.83768631  0.93166871  0.77993348  1
  Li  Li94  1  0.83593497  0.62912239  0.82786234  1
  Li  Li95  1  0.16363814  0.38755827  0.76896408  1
  Li  Li96  1  0.66236382  0.43167520  0.77993368  1
  Li  Li97  1  0.33521717  0.58784575  0.81740006  1
  Li  Li98  1  0.42494605  0.27764073  0.80340792  1
  Li  Li99  1  0.57423306  0.74282151  0.79441630  1
  Li  Li100  1  0.07513801  0.77767747  0.80341075  1
  Li  Li101  1  0.92590363  0.24273367  0.79443571  1
  Li  Li102  1  0.33636351  0.28404248  0.86668987  1
  Li  Li103  1  0.66154614  0.52750514  0.92832025  1
  Li  Li104  1  0.16626052  0.48485528  0.91284705  1
  Li  Li105  1  0.83507048  0.32129427  0.87606779  1
  Li  Li106  1  0.83846329  0.02752874  0.92831935  1
  Li  Li107  1  0.16373482  0.78400454  0.86668607  1
  Li  Li108  1  0.66499277  0.82116472  0.87605973  1
  Li  Li109  1  0.33374498  0.98485475  0.91284315  1
  Li  Li110  1  0.42590825  0.67448485  0.90083769  1
  Li  Li111  1  0.57473915  0.13773531  0.89152780  1
  Li  Li112  1  0.07409542  0.17450388  0.90084473  1
  Li  Li113  1  0.92531323  0.63784827  0.89155501  1
  Li  Li114  1  0.34073270  0.68015555  0.96413090  1
  Li  Li115  1  0.83858712  0.74193229  0.97762899  1
  Li  Li116  1  0.15926812  0.18017477  0.96413628  1
  Li  Li117  1  0.66140530  0.24184644  0.97762982  1
  Li  Li118  1  0.41347555  0.02902622  0.97668072  1
  Li  Li119  1  0.08648511  0.52905099  0.97669161  1
  P  P120  1  0.09759782  0.37871164  0.05085038  1
  P  P121  1  0.40228587  0.87861813  0.05085668  1
  P  P122  1  0.08718328  0.97946759  0.14672077  1
  P  P123  1  0.90952908  0.83189141  0.06003771  1
  P  P124  1  0.41284010  0.47946206  0.14672169  1
  P  P125  1  0.59047817  0.33175267  0.06005106  1
  P  P126  1  0.08901000  0.58539628  0.24436390  1
  P  P127  1  0.91141155  0.43424119  0.15846994  1
  P  P128  1  0.41103120  0.08540272  0.24436118  1
  P  P129  1  0.58867055  0.93421573  0.15846281  1
  P  P130  1  0.08860475  0.19116049  0.34154137  1
  P  P131  1  0.91111790  0.04013724  0.25561780  1
  P  P132  1  0.41140002  0.69111819  0.34152728  1
  P  P133  1  0.58895530  0.54012207  0.25560563  1
  P  P134  1  0.09050880  0.79277797  0.44002167  1
  P  P135  1  0.91286893  0.64575072  0.35324212  1
  P  P136  1  0.40948152  0.29268986  0.44001269  1
  P  P137  1  0.58714081  0.14575821  0.35323716  1
  P  P138  1  0.90231322  0.24559168  0.44919999  1
  P  P139  1  0.59750993  0.74562683  0.44918602  1
  P  P140  1  0.40230634  0.74628841  0.55084169  1
  P  P141  1  0.09739702  0.24618991  0.55084668  1
  P  P142  1  0.41282809  0.14552842  0.64671809  1
  P  P143  1  0.59044699  0.29311164  0.56003134  1
  P  P144  1  0.08717038  0.64555809  0.64671996  1
  P  P145  1  0.90947244  0.79291141  0.56002096  1
  P  P146  1  0.41107012  0.53957322  0.74435136  1
  P  P147  1  0.58865206  0.69081251  0.65845742  1
  P  P148  1  0.08901781  0.03960162  0.74436470  1
  P  P149  1  0.91138654  0.19076344  0.65847737  1
  P  P150  1  0.41143308  0.93393962  0.84152680  1
  P  P151  1  0.58895457  0.08488662  0.75560600  1
  P  P152  1  0.08868617  0.43391120  0.84152308  1
  P  P153  1  0.91110795  0.58488487  0.75561540  1
  P  P154  1  0.40948240  0.33237344  0.94000839  1
  P  P155  1  0.58722836  0.47925044  0.85323781  1
  P  P156  1  0.09054756  0.83241126  0.94001365  1
  P  P157  1  0.91290564  0.97924340  0.85324508  1
  P  P158  1  0.59752794  0.87940534  0.94916175  1
  P  P159  1  0.90242628  0.37945228  0.94919011  1
  O  O160  1  0.16552642  0.21653366  0.03986071  1
  O  O161  1  0.66493738  0.24525996  0.03053975  1
  O  O162  1  0.33435982  0.71639909  0.03989517  1
  O  O163  1  0.83491767  0.74567643  0.03051836  1
  O  O164  1  0.04737920  0.86750575  0.05019244  1
  O  O165  1  0.45262172  0.36738754  0.05020754  1
  O  O166  1  0.10097870  0.51190603  0.02241338  1
  O  O167  1  0.39881097  0.01171312  0.02239891  1
  O  O168  1  0.15687676  0.81224723  0.13747179  1
  O  O169  1  0.83956901  0.99991734  0.06961456  1
  O  O170  1  0.34085236  0.95573255  0.08279180  1
  O  O171  1  0.65780183  0.84976379  0.12799205  1
  O  O172  1  0.66050564  0.49983357  0.06958418  1
  O  O173  1  0.34316395  0.31224082  0.13746835  1
  O  O174  1  0.84223393  0.34978180  0.12800742  1
  O  O175  1  0.15912841  0.45568642  0.08278921  1
  O  O176  1  0.05054617  0.47387814  0.14878713  1
  O  O177  1  0.95123184  0.34366373  0.05756720  1
  O  O178  1  0.44952966  0.97389463  0.14878685  1
  O  O179  1  0.54866934  0.84360155  0.05754800  1
  O  O180  1  0.08781438  0.10084730  0.11583025  1
  O  O181  1  0.90566384  0.70860129  0.09096370  1
  O  O182  1  0.41220272  0.60085967  0.11583274  1
  O  O183  1  0.59435142  0.20866502  0.09100466  1
  O  O184  1  0.15946659  0.42008786  0.23397571  1
  O  O185  1  0.84108143  0.60064465  0.16808043  1
  O  O186  1  0.34281421  0.56640944  0.17670403  1
  O  O187  1  0.65937790  0.45566893  0.22549655  1
  O  O188  1  0.65898852  0.10062232  0.16808142  1
  O  O189  1  0.34059678  0.92008344  0.23396748  1
  O  O190  1  0.84069386  0.95568351  0.22551198  1
  O  O191  1  0.15720094  0.06643687  0.17670157  1
  O  O192  1  0.04964570  0.08250038  0.24529200  1
  O  O193  1  0.94808495  0.93955096  0.15706767  1
  O  O194  1  0.45042081  0.58247383  0.24528534  1
  O  O195  1  0.55193517  0.43955363  0.15707053  1
  O  O196  1  0.08881039  0.70968984  0.21390810  1
  O  O197  1  0.90822365  0.31060739  0.18897036  1
  O  O198  1  0.41124719  0.20971007  0.21390726  1
  O  O199  1  0.59183594  0.81056752  0.18896482  1
  O  O200  1  0.15882481  0.02465776  0.33194009  1
  O  O201  1  0.84049576  0.20536317  0.26599281  1
  O  O202  1  0.34047020  0.16974015  0.27446219  1
  O  O203  1  0.65720657  0.05888514  0.32324887  1
  O  O204  1  0.65958224  0.70536412  0.26597397  1
  O  O205  1  0.34118878  0.52462424  0.33191937  1
  O  O206  1  0.84278783  0.55892713  0.32325292  1
  O  O207  1  0.15956648  0.66976342  0.27446182  1
  O  O208  1  0.05199892  0.68557132  0.34289881  1
  O  O209  1  0.95046654  0.54312630  0.25469581  1
  O  O210  1  0.44800966  0.18558258  0.34289421  1
  O  O211  1  0.54957387  0.04314896  0.25469268  1
  O  O212  1  0.09186555  0.31480703  0.31104379  1
  O  O213  1  0.91133772  0.91585197  0.28607499  1
  O  O214  1  0.40816423  0.81481248  0.31103725  1
  O  O215  1  0.58874130  0.41584809  0.28606613  1
  O  O216  1  0.16065897  0.62494278  0.43037539  1
  O  O217  1  0.84322610  0.81303987  0.36247023  1
  O  O218  1  0.34215857  0.77543758  0.37199172  1
  O  O219  1  0.65918822  0.66924868  0.41720465  1
  O  O220  1  0.65679007  0.31305607  0.36246027  1
  O  O221  1  0.33938076  0.12488015  0.43033607  1
  O  O222  1  0.84072859  0.16920714  0.41720946  1
  O  O223  1  0.15783405  0.27551747  0.37200427  1
  O  O224  1  0.04864251  0.28099973  0.44245576  1
  O  O225  1  0.94944453  0.15158380  0.35120780  1
  O  O226  1  0.45122226  0.78101227  0.44243085  1
  O  O227  1  0.55054381  0.65154448  0.35119899  1
  O  O228  1  0.09402623  0.91622207  0.40910819  1
  O  O229  1  0.91219248  0.52432038  0.38413010  1
  O  O230  1  0.40601552  0.41624474  0.40911704  1
  O  O231  1  0.58777574  0.02432816  0.38412634  1
  O  O232  1  0.83432296  0.40753213  0.46032103  1
  O  O233  1  0.33469293  0.37882063  0.46951147  1
  O  O234  1  0.66555277  0.90753858  0.46031597  1
  O  O235  1  0.16519343  0.87905451  0.46952142  1
  O  O236  1  0.95280539  0.75657016  0.44993100  1
  O  O237  1  0.54717911  0.25655283  0.44993852  1
  O  O238  1  0.89912867  0.11185562  0.47753060  1
  O  O239  1  0.60073861  0.61189963  0.47752255  1
  O  O240  1  0.33438217  0.90848791  0.53986897  1
  O  O241  1  0.83470271  0.87901492  0.53051655  1
  O  O242  1  0.16524950  0.40837328  0.53980676  1
  O  O243  1  0.66504001  0.37940282  0.53052075  1
  O  O244  1  0.45258881  0.25751595  0.55018756  1
  O  O245  1  0.04727761  0.75727444  0.55013412  1
  O  O246  1  0.39883663  0.61309295  0.52240554  1
  O  O247  1  0.10075794  0.11283975  0.52244121  1
  O  O248  1  0.34316834  0.31276014  0.63746191  1
  O  O249  1  0.66044262  0.12506654  0.56959256  1
  O  O250  1  0.15911235  0.16946055  0.58278357  1
  O  O251  1  0.84217976  0.27524459  0.62802067  1
  O  O252  1  0.83953606  0.62491299  0.56962690  1
  O  O253  1  0.15684105  0.81278488  0.63746921  1
  O  O254  1  0.65780365  0.77526871  0.62799176  1
  O  O255  1  0.34081253  0.66924371  0.58277823  1
  O  O256  1  0.44952153  0.65113408  0.64878028  1
  O  O257  1  0.54866891  0.78126803  0.55755277  1
  O  O258  1  0.05052662  0.15117327  0.64878878  1
  O  O259  1  0.95107551  0.28121995  0.55759973  1
  O  O260  1  0.41217527  0.02412496  0.61582853  1
  O  O261  1  0.59429300  0.41633289  0.59096836  1
  O  O262  1  0.08781985  0.52418443  0.61582887  1
  O  O263  1  0.90570827  0.91627559  0.59093902  1
  O  O264  1  0.34062531  0.70489973  0.73396856  1
  O  O265  1  0.65897009  0.52439353  0.66807574  1
  O  O266  1  0.15720610  0.55860722  0.67670078  1
  O  O267  1  0.84067543  0.66933646  0.72550942  1
  O  O268  1  0.84107097  0.02433096  0.66808708  1
  O  O269  1  0.15945792  0.20492861  0.73397211  1
  O  O270  1  0.65935608  0.16936157  0.72549806  1
  O  O271  1  0.34279869  0.05859863  0.67670224  1
  O  O272  1  0.45042054  0.04251823  0.74529019  1
  O  O273  1  0.55192982  0.18542645  0.65706388  1
  O  O274  1  0.04963964  0.54253321  0.74528891  1
  O  O275  1  0.94806762  0.68545116  0.65706505  1
  O  O276  1  0.41126585  0.41529916  0.71389112  1
  O  O277  1  0.59182187  0.81444152  0.68896093  1
  O  O278  1  0.08880815  0.91530096  0.71390817  1
  O  O279  1  0.90819312  0.31439940  0.68898004  1
  O  O280  1  0.34118333  0.10039882  0.83191108  1
  O  O281  1  0.65959647  0.91966243  0.76596958  1
  O  O282  1  0.15958221  0.95525138  0.77446414  1
  O  O283  1  0.84286963  0.06609228  0.82325163  1
  O  O284  1  0.84048804  0.41965516  0.76598811  1
  O  O285  1  0.15898536  0.60032404  0.83190430  1
  O  O286  1  0.65726784  0.56615475  0.82324989  1
  O  O287  1  0.34054819  0.45517163  0.77445005  1
  O  O288  1  0.44813049  0.43931777  0.84288044  1
  O  O289  1  0.54961540  0.58184976  0.75468586  1
  O  O290  1  0.05201532  0.93936382  0.84289147  1
  O  O291  1  0.95047896  0.08187974  0.75469769  1
  O  O292  1  0.40823476  0.81024437  0.81103615  1
  O  O293  1  0.58876713  0.20913133  0.78607038  1
  O  O294  1  0.09185399  0.31017396  0.81103765  1
  O  O295  1  0.91132300  0.70915867  0.78607520  1
  O  O296  1  0.33938338  0.50019173  0.93033625  1
  O  O297  1  0.65694084  0.31200582  0.86246107  1
  O  O298  1  0.15790358  0.34955499  0.87198792  1
  O  O299  1  0.84076136  0.45584604  0.91720865  1
  O  O300  1  0.84322869  0.81197775  0.86247261  1
  O  O301  1  0.16065587  0.00021359  0.93034142  1
  O  O302  1  0.65927795  0.95577872  0.91719222  1
  O  O303  1  0.34215257  0.84958610  0.87198106  1
  O  O304  1  0.45123650  0.84400847  0.94239190  1
  O  O305  1  0.55057885  0.97357266  0.85119730  1
  O  O306  1  0.04872415  0.34410164  0.94242668  1
  O  O307  1  0.94955119  0.47357849  0.85120391  1
  O  O308  1  0.40600684  0.20880611  0.90911080  1
  O  O309  1  0.58779002  0.60069548  0.88412216  1
  O  O310  1  0.09404051  0.70885949  0.90911419  1
  O  O311  1  0.91226123  0.10071505  0.88412574  1
  O  O312  1  0.66558491  0.71753590  0.96030561  1
  O  O313  1  0.16531680  0.74623032  0.96951148  1
  O  O314  1  0.83439778  0.21752567  0.96031615  1
  O  O315  1  0.33471071  0.24621223  0.96950979  1
  O  O316  1  0.54717438  0.36850690  0.94993645  1
  O  O317  1  0.95284948  0.86853632  0.94993706  1
  O  O318  1  0.60065312  0.01317862  0.97748585  1
  O  O319  1  0.89926218  0.51319683  0.97752055  1
