# generated using pymatgen
data_Li3PO4
_symmetry_space_group_name_H-M   'P 1'
_cell_length_a   10.55485100
_cell_length_b   7.91303400
_cell_length_c   39.77830813
_cell_angle_alpha   90.00000000
_cell_angle_beta   90.00000000
_cell_angle_gamma   90.00000000
_symmetry_Int_Tables_number   1
_chemical_formula_structural   Li3PO4
_chemical_formula_sum   'Li120 P40 O160'
_cell_volume   3322.31988958
_cell_formula_units_Z   40
loop_
 _symmetry_equiv_pos_site_id
 _symmetry_equiv_pos_as_xyz
  1  'x, y, z'
loop_
 _atom_site_type_symbol
 _atom_site_label
 _atom_site_symmetry_multiplicity
 _atom_site_fract_x
 _atom_site_fract_y
 _atom_site_fract_z
 _atom_site_occupancy
  Li  Li0  1  0.84116819  0.13971571  0.03586727  1
  Li  Li1  1  0.33856836  0.20229316  0.02260231  1
  Li  Li2  1  0.65886253  0.63983049  0.03589188  1
  Li  Li3  1  0.16166925  0.70203571  0.02257943  1
  Li  Li4  1  0.91273913  0.48907436  0.02329338  1
  Li  Li5  1  0.58722461  0.98906714  0.02328239  1
  Li  Li6  1  0.16145477  0.98772239  0.07169968  1
  Li  Li7  1  0.83531720  0.74519139  0.13344165  1
  Li  Li8  1  0.33492842  0.78411171  0.12393630  1
  Li  Li9  1  0.66567336  0.94503113  0.08718817  1
  Li  Li10  1  0.66452699  0.24534361  0.13353006  1
  Li  Li11  1  0.33858903  0.48755529  0.07169479  1
  Li  Li12  1  0.83431878  0.44499195  0.08718658  1
  Li  Li13  1  0.16523058  0.28425635  0.12391207  1
  Li  Li14  1  0.07440431  0.60007779  0.10830112  1
  Li  Li15  1  0.92605617  0.13531166  0.09909755  1
  Li  Li16  1  0.42553181  0.10001551  0.10830392  1
  Li  Li17  1  0.57393805  0.63529294  0.09910068  1
  Li  Li18  1  0.16272889  0.59174606  0.17204532  1
  Li  Li19  1  0.83619441  0.35015459  0.23093470  1
  Li  Li20  1  0.33685870  0.39349967  0.21982676  1
  Li  Li21  1  0.66373190  0.54960877  0.18240529  1
  Li  Li22  1  0.66413181  0.84999993  0.23089923  1
  Li  Li23  1  0.33724961  0.09170638  0.17204105  1
  Li  Li24  1  0.83666163  0.05097684  0.18217555  1
  Li  Li25  1  0.16315719  0.89354491  0.21983433  1
  Li  Li26  1  0.07463605  0.20379504  0.20559085  1
  Li  Li27  1  0.92521392  0.74241658  0.19661275  1
  Li  Li28  1  0.42539763  0.70336493  0.20556689  1
  Li  Li29  1  0.57504720  0.23982493  0.19691692  1
  Li  Li30  1  0.16379919  0.19734758  0.26901257  1
  Li  Li31  1  0.83592578  0.95724125  0.32775216  1
  Li  Li32  1  0.33528017  0.99689101  0.31753705  1
  Li  Li33  1  0.66273513  0.15481558  0.28004828  1
  Li  Li34  1  0.66418241  0.45657349  0.32785072  1
  Li  Li35  1  0.33619684  0.69727038  0.26900660  1
  Li  Li36  1  0.83721841  0.65487556  0.28005450  1
  Li  Li37  1  0.16471915  0.49703157  0.31748954  1
  Li  Li38  1  0.07506077  0.80694262  0.30340760  1
  Li  Li39  1  0.92651146  0.34464279  0.29396217  1
  Li  Li40  1  0.42492538  0.30685612  0.30351924  1
  Li  Li41  1  0.57323628  0.84390340  0.29403835  1
  Li  Li42  1  0.16307983  0.80164361  0.36666514  1
  Li  Li43  1  0.83935283  0.56078408  0.42833272  1
  Li  Li44  1  0.33373477  0.60110138  0.41290562  1
  Li  Li45  1  0.66576027  0.76538524  0.37562042  1
  Li  Li46  1  0.66084915  0.06056579  0.42834542  1
  Li  Li47  1  0.33691182  0.30158476  0.36668000  1
  Li  Li48  1  0.83436868  0.26547804  0.37564776  1
  Li  Li49  1  0.16627611  0.10111752  0.41290346  1
  Li  Li50  1  0.07418427  0.41151776  0.40118245  1
  Li  Li51  1  0.92524321  0.94908516  0.39138998  1
  Li  Li52  1  0.42609462  0.91126873  0.40103455  1
  Li  Li53  1  0.57483186  0.44909965  0.39141080  1
  Li  Li54  1  0.15967147  0.40925031  0.46429120  1
  Li  Li55  1  0.66188786  0.34701276  0.47745671  1
  Li  Li56  1  0.34044902  0.90874751  0.46409628  1
  Li  Li57  1  0.83842059  0.84678639  0.47751558  1
  Li  Li58  1  0.08636960  0.05990545  0.47685697  1
  Li  Li59  1  0.41426393  0.55898649  0.47678358  1
  Li  Li60  1  0.65954226  0.90996081  0.53581478  1
  Li  Li61  1  0.16181398  0.84732318  0.52252557  1
  Li  Li62  1  0.84026564  0.40991807  0.53580477  1
  Li  Li63  1  0.33811013  0.34747256  0.52255578  1
  Li  Li64  1  0.58638291  0.56019318  0.52306213  1
  Li  Li65  1  0.91364556  0.06012099  0.52306068  1
  Li  Li66  1  0.33927505  0.06153135  0.57157895  1
  Li  Li67  1  0.66388842  0.30456096  0.63334614  1
  Li  Li68  1  0.16513081  0.26569746  0.62418104  1
  Li  Li69  1  0.83374201  0.10341417  0.58712806  1
  Li  Li70  1  0.83608881  0.80454675  0.63334286  1
  Li  Li71  1  0.16066477  0.56152282  0.57157546  1
  Li  Li72  1  0.66621711  0.60343709  0.58712554  1
  Li  Li73  1  0.33482355  0.76568999  0.62416297  1
  Li  Li74  1  0.42529988  0.44969605  0.60848630  1
  Li  Li75  1  0.57392508  0.91409493  0.59876498  1
  Li  Li76  1  0.07457137  0.94967611  0.60849576  1
  Li  Li77  1  0.92602133  0.41408127  0.59876297  1
  Li  Li78  1  0.33595752  0.45885161  0.67223060  1
  Li  Li79  1  0.66343335  0.69965015  0.73097406  1
  Li  Li80  1  0.16273457  0.65692743  0.71996449  1
  Li  Li81  1  0.83646286  0.50035116  0.68241898  1
  Li  Li82  1  0.83628204  0.19939532  0.73101883  1
  Li  Li83  1  0.16401205  0.95883804  0.67223203  1
  Li  Li84  1  0.66349793  0.00036939  0.68241591  1
  Li  Li85  1  0.33724211  0.15696671  0.71996569  1
  Li  Li86  1  0.42548506  0.84756696  0.70569219  1
  Li  Li87  1  0.57522150  0.31092263  0.69648868  1
  Li  Li88  1  0.07441077  0.34755230  0.70571512  1
  Li  Li89  1  0.92473443  0.81089021  0.69648858  1
  Li  Li90  1  0.33637730  0.85185256  0.76927565  1
  Li  Li91  1  0.66261478  0.09443383  0.82802693  1
  Li  Li92  1  0.16319090  0.05181313  0.81782967  1
  Li  Li93  1  0.83736648  0.89568829  0.78011479  1
  Li  Li94  1  0.83752062  0.59339354  0.82800217  1
  Li  Li95  1  0.16359894  0.35182575  0.76927863  1
  Li  Li96  1  0.66259585  0.39572146  0.78010060  1
  Li  Li97  1  0.33678738  0.55184470  0.81783390  1
  Li  Li98  1  0.42479222  0.24343888  0.80339099  1
  Li  Li99  1  0.57499258  0.70684615  0.79453150  1
  Li  Li100  1  0.07517495  0.74341169  0.80339529  1
  Li  Li101  1  0.92502918  0.20681328  0.79453386  1
  Li  Li102  1  0.33536255  0.24714919  0.86653543  1
  Li  Li103  1  0.66160727  0.48949715  0.92801714  1
  Li  Li104  1  0.16780945  0.45068092  0.91296942  1
  Li  Li105  1  0.83425683  0.28569501  0.87588950  1
  Li  Li106  1  0.83842722  0.98948311  0.92802960  1
  Li  Li107  1  0.16460948  0.74714613  0.86653400  1
  Li  Li108  1  0.66584224  0.78577371  0.87582456  1
  Li  Li109  1  0.33207513  0.95058550  0.91289583  1
  Li  Li110  1  0.42634712  0.63983882  0.90121940  1
  Li  Li111  1  0.57414887  0.10195672  0.89184292  1
  Li  Li112  1  0.07349819  0.13999032  0.90130540  1
  Li  Li113  1  0.92583485  0.60196548  0.89184741  1
  Li  Li114  1  0.34078992  0.64304062  0.96419721  1
  Li  Li115  1  0.83668820  0.70277397  0.97746604  1
  Li  Li116  1  0.15928324  0.14323497  0.96422971  1
  Li  Li117  1  0.66296242  0.20268148  0.97745157  1
  Li  Li118  1  0.41559944  0.99301470  0.97678008  1
  Li  Li119  1  0.08412968  0.49340125  0.97683475  1
  P  P120  1  0.09739319  0.34035443  0.05072114  1
  P  P121  1  0.90901187  0.79276076  0.06011149  1
  P  P122  1  0.40261389  0.84038362  0.05072232  1
  P  P123  1  0.59104047  0.29273431  0.06013547  1
  P  P124  1  0.08743604  0.94137501  0.14662501  1
  P  P125  1  0.91165944  0.39604011  0.15852637  1
  P  P126  1  0.41259988  0.44117240  0.14667360  1
  P  P127  1  0.58838773  0.89558233  0.15853402  1
  P  P128  1  0.08869290  0.54665954  0.24433593  1
  P  P129  1  0.91145345  0.00130731  0.25552581  1
  P  P130  1  0.41119769  0.04633909  0.24437368  1
  P  P131  1  0.58851845  0.50103460  0.25555894  1
  P  P132  1  0.08858575  0.15187041  0.34150805  1
  P  P133  1  0.91310200  0.60661469  0.35323244  1
  P  P134  1  0.41140090  0.65169102  0.34151380  1
  P  P135  1  0.58704428  0.10630302  0.35323518  1
  P  P136  1  0.09063116  0.75511002  0.44001724  1
  P  P137  1  0.90250390  0.20822698  0.44899122  1
  P  P138  1  0.40945928  0.25485395  0.43999531  1
  P  P139  1  0.59774443  0.70820668  0.44897477  1
  P  P140  1  0.40254739  0.70887556  0.55087528  1
  P  P141  1  0.59075882  0.25653623  0.56004491  1
  P  P142  1  0.09734991  0.20892326  0.55089748  1
  P  P143  1  0.90915392  0.75649321  0.56002023  1
  P  P144  1  0.41272145  0.10870424  0.64666079  1
  P  P145  1  0.58860524  0.65448347  0.65848009  1
  P  P146  1  0.08719914  0.60870194  0.64665557  1
  P  P147  1  0.91131358  0.15440318  0.65849419  1
  P  P148  1  0.41103657  0.50322499  0.74450708  1
  P  P149  1  0.58859474  0.04865440  0.75564450  1
  P  P150  1  0.08890154  0.00317719  0.74450711  1
  P  P151  1  0.91134560  0.54863720  0.75564516  1
  P  P152  1  0.41153355  0.89795028  0.84159222  1
  P  P153  1  0.58717445  0.44355085  0.85334573  1
  P  P154  1  0.08846353  0.39777298  0.84162683  1
  P  P155  1  0.91284306  0.94348286  0.85333933  1
  P  P156  1  0.40967946  0.29541583  0.93997075  1
  P  P157  1  0.59754174  0.84186088  0.94913070  1
  P  P158  1  0.09030964  0.79544843  0.93999572  1
  P  P159  1  0.90236443  0.34182580  0.94917176  1
  O  O160  1  0.16553369  0.17835250  0.03968283  1
  O  O161  1  0.66574686  0.20667967  0.03062525  1
  O  O162  1  0.33453602  0.67831390  0.03969556  1
  O  O163  1  0.83424761  0.70682039  0.03059686  1
  O  O164  1  0.10028152  0.47390069  0.02236243  1
  O  O165  1  0.39968281  0.97391805  0.02236036  1
  O  O166  1  0.15678322  0.77399995  0.13735112  1
  O  O167  1  0.83922466  0.96087597  0.06973203  1
  O  O168  1  0.34109421  0.91726492  0.08266874  1
  O  O169  1  0.65747572  0.81075083  0.12809759  1
  O  O170  1  0.66080710  0.46089562  0.06972786  1
  O  O171  1  0.34319249  0.27384941  0.13736979  1
  O  O172  1  0.84246690  0.31087717  0.12813387  1
  O  O173  1  0.15892854  0.41727478  0.08266151  1
  O  O174  1  0.04692223  0.82836320  0.05027858  1
  O  O175  1  0.95113885  0.30465457  0.05752193  1
  O  O176  1  0.45313638  0.32838284  0.05029821  1
  O  O177  1  0.54887557  0.80473929  0.05752073  1
  O  O178  1  0.08816881  0.06297391  0.11577906  1
  O  O179  1  0.90511422  0.66953208  0.09103830  1
  O  O180  1  0.41200121  0.56274806  0.11581458  1
  O  O181  1  0.59490319  0.16962888  0.09108283  1
  O  O182  1  0.15909128  0.38134142  0.23392447  1
  O  O183  1  0.84099456  0.56207717  0.16821534  1
  O  O184  1  0.34218332  0.52772750  0.17663413  1
  O  O185  1  0.65883852  0.41641077  0.22545891  1
  O  O186  1  0.65910052  0.06162838  0.16823427  1
  O  O187  1  0.34084386  0.88098471  0.23398032  1
  O  O188  1  0.84112357  0.91711422  0.22538584  1
  O  O189  1  0.15762129  0.02779655  0.17663152  1
  O  O190  1  0.05055482  0.43608698  0.14870473  1
  O  O191  1  0.94824721  0.90141358  0.15695364  1
  O  O192  1  0.44947392  0.93581805  0.14874689  1
  O  O193  1  0.55162336  0.40099249  0.15708234  1
  O  O194  1  0.08865206  0.67134951  0.21394156  1
  O  O195  1  0.90905294  0.27231221  0.18900583  1
  O  O196  1  0.41101446  0.17095537  0.21396953  1
  O  O197  1  0.59105426  0.77171336  0.18898747  1
  O  O198  1  0.15886370  0.98536092  0.33191516  1
  O  O199  1  0.84090593  0.16664718  0.26585906  1
  O  O200  1  0.34088524  0.13027485  0.27454542  1
  O  O201  1  0.65706319  0.01938362  0.32324826  1
  O  O202  1  0.65911401  0.66641813  0.26584824  1
  O  O203  1  0.34112515  0.48519993  0.33192713  1
  O  O204  1  0.84285144  0.51961042  0.32328831  1
  O  O205  1  0.15914391  0.63050227  0.27449926  1
  O  O206  1  0.05001554  0.04351294  0.24520883  1
  O  O207  1  0.95009651  0.50462516  0.25465866  1
  O  O208  1  0.44999804  0.54330093  0.24521480  1
  O  O209  1  0.54988993  0.00445233  0.25463445  1
  O  O210  1  0.09168449  0.27529905  0.31096585  1
  O  O211  1  0.91143730  0.87712623  0.28599022  1
  O  O212  1  0.40819234  0.77513181  0.31097611  1
  O  O213  1  0.58846866  0.37704540  0.28605605  1
  O  O214  1  0.16085019  0.58722369  0.43045453  1
  O  O215  1  0.84371981  0.77419365  0.36236418  1
  O  O216  1  0.34222409  0.73639957  0.37194617  1
  O  O217  1  0.65929767  0.63146562  0.41702849  1
  O  O218  1  0.65645035  0.27386436  0.36237503  1
  O  O219  1  0.33934358  0.08697847  0.43038009  1
  O  O220  1  0.84108479  0.13150034  0.41702985  1
  O  O221  1  0.15780054  0.23647922  0.37194896  1
  O  O222  1  0.05214388  0.64628327  0.34281800  1
  O  O223  1  0.94942155  0.11224840  0.35117389  1
  O  O224  1  0.44792595  0.14599379  0.34288998  1
  O  O225  1  0.55059078  0.61211624  0.35116779  1
  O  O226  1  0.09401693  0.87774740  0.40900403  1
  O  O227  1  0.91236281  0.48554616  0.38416443  1
  O  O228  1  0.40599175  0.37773624  0.40901682  1
  O  O229  1  0.58794621  0.98523722  0.38416179  1
  O  O230  1  0.83440838  0.37023154  0.46005501  1
  O  O231  1  0.33490169  0.34158475  0.46946785  1
  O  O232  1  0.66573369  0.87022857  0.46006308  1
  O  O233  1  0.16519369  0.84209450  0.46945546  1
  O  O234  1  0.04896026  0.24372802  0.44238971  1
  O  O235  1  0.95302377  0.71895323  0.45000359  1
  O  O236  1  0.45130678  0.74345139  0.44233032  1
  O  O237  1  0.54713270  0.21893657  0.44996557  1
  O  O238  1  0.89915327  0.07486403  0.47740157  1
  O  O239  1  0.60107178  0.57485860  0.47739305  1
  O  O240  1  0.33442641  0.87092938  0.53983103  1
  O  O241  1  0.83464601  0.84274213  0.53049728  1
  O  O242  1  0.16544299  0.37093597  0.53980096  1
  O  O243  1  0.66525427  0.34274176  0.53051336  1
  O  O244  1  0.39933194  0.57558851  0.52244616  1
  O  O245  1  0.10062429  0.07547397  0.52250519  1
  O  O246  1  0.34300201  0.27590292  0.63746886  1
  O  O247  1  0.66077159  0.08849372  0.56962340  1
  O  O248  1  0.15883909  0.13214613  0.58284316  1
  O  O249  1  0.84241726  0.23921400  0.62802881  1
  O  O250  1  0.83910049  0.58849535  0.56960154  1
  O  O251  1  0.15691231  0.77589485  0.63745663  1
  O  O252  1  0.65754685  0.73928920  0.62802244  1
  O  O253  1  0.34101786  0.63195561  0.58280511  1
  O  O254  1  0.45294613  0.22074149  0.55017923  1
  O  O255  1  0.54889731  0.74460171  0.55753058  1
  O  O256  1  0.04693045  0.72060306  0.55013903  1
  O  O257  1  0.95098447  0.24467554  0.55753565  1
  O  O258  1  0.41212174  0.98716002  0.61580144  1
  O  O259  1  0.59460122  0.37964039  0.59097124  1
  O  O260  1  0.08778650  0.48715004  0.61579694  1
  O  O261  1  0.90536153  0.87957846  0.59094901  1
  O  O262  1  0.34043440  0.66840391  0.73411989  1
  O  O263  1  0.65956837  0.48855600  0.66814723  1
  O  O264  1  0.15728657  0.52186224  0.67664731  1
  O  O265  1  0.84106666  0.63288676  0.72549462  1
  O  O266  1  0.84034299  0.98844986  0.66814324  1
  O  O267  1  0.15953930  0.16833931  0.73412989  1
  O  O268  1  0.65882190  0.13294295  0.72548852  1
  O  O269  1  0.34264284  0.02183336  0.67665089  1
  O  O270  1  0.44968871  0.61355902  0.64875365  1
  O  O271  1  0.55167277  0.14930317  0.65703859  1
  O  O272  1  0.05024806  0.11349825  0.64878057  1
  O  O273  1  0.94824944  0.64927065  0.65704077  1
  O  O274  1  0.41136102  0.37910381  0.71401781  1
  O  O275  1  0.59107296  0.77817150  0.68897129  1
  O  O276  1  0.08852869  0.87908202  0.71401311  1
  O  O277  1  0.90875977  0.27807366  0.68899003  1
  O  O278  1  0.34076885  0.06385958  0.83184876  1
  O  O279  1  0.65934564  0.88352080  0.76604331  1
  O  O280  1  0.15927700  0.91851116  0.77460277  1
  O  O281  1  0.84226157  0.03012815  0.82341971  1
  O  O282  1  0.84062092  0.38349510  0.76606498  1
  O  O283  1  0.15918319  0.56373981  0.83189920  1
  O  O284  1  0.65773177  0.53002593  0.82340074  1
  O  O285  1  0.34063721  0.41865073  0.77461120  1
  O  O286  1  0.45003450  0.00619117  0.74536033  1
  O  O287  1  0.54953037  0.54569518  0.75487963  1
  O  O288  1  0.04990936  0.50618165  0.74535392  1
  O  O289  1  0.95041715  0.04566734  0.75488561  1
  O  O290  1  0.40894383  0.77375351  0.81118782  1
  O  O291  1  0.58847318  0.17315311  0.78608124  1
  O  O292  1  0.09108307  0.27369544  0.81120290  1
  O  O293  1  0.91149595  0.67310381  0.78608546  1
  O  O294  1  0.34048283  0.46412142  0.93048441  1
  O  O295  1  0.65642254  0.27619097  0.86270068  1
  O  O296  1  0.15761038  0.31355817  0.87212263  1
  O  O297  1  0.84075623  0.41835066  0.91721280  1
  O  O298  1  0.84363125  0.77605722  0.86266518  1
  O  O299  1  0.15947975  0.96417804  0.93052252  1
  O  O300  1  0.65921950  0.91843713  0.91718525  1
  O  O301  1  0.34234213  0.81371127  0.87208109  1
  O  O302  1  0.44821619  0.40307070  0.84294504  1
  O  O303  1  0.55049789  0.93835396  0.85131362  1
  O  O304  1  0.05179418  0.90302915  0.84292587  1
  O  O305  1  0.94947979  0.43804891  0.85134629  1
  O  O306  1  0.40477350  0.17269598  0.90898146  1
  O  O307  1  0.58765280  0.56537362  0.88415120  1
  O  O308  1  0.09519721  0.67279932  0.90899517  1
  O  O309  1  0.91240533  0.06522655  0.88416276  1
  O  O310  1  0.66458741  0.67895835  0.96008038  1
  O  O311  1  0.16498811  0.70933313  0.96951130  1
  O  O312  1  0.83531056  0.17892401  0.96011706  1
  O  O313  1  0.33506937  0.20937286  0.96950099  1
  O  O314  1  0.45094292  0.80834645  0.94248509  1
  O  O315  1  0.54790108  0.32928407  0.94972378  1
  O  O316  1  0.04896693  0.30833706  0.94253837  1
  O  O317  1  0.95207998  0.82919637  0.94975981  1
  O  O318  1  0.60209912  0.97487778  0.97759109  1
  O  O319  1  0.89774631  0.47492489  0.97761491  1
