# generated using pymatgen
data_Li3PO4
_symmetry_space_group_name_H-M   'P 1'
_cell_length_a   10.55485100
_cell_length_b   7.91303400
_cell_length_c   54.72933280
_cell_angle_alpha   90.00000000
_cell_angle_beta   90.00000000
_cell_angle_gamma   90.00000000
_symmetry_Int_Tables_number   1
_chemical_formula_structural   Li3PO4
_chemical_formula_sum   'Li168 P56 O224'
_cell_volume   4571.04284864
_cell_formula_units_Z   56
loop_
 _symmetry_equiv_pos_site_id
 _symmetry_equiv_pos_as_xyz
  1  'x, y, z'
loop_
 _atom_site_type_symbol
 _atom_site_label
 _atom_site_symmetry_multiplicity
 _atom_site_fract_x
 _atom_site_fract_y
 _atom_site_fract_z
 _atom_site_occupancy
  Li  Li0  1  0.16882633  0.25431581  0.05189287  1
  Li  Li1  1  0.82375633  0.40994443  0.02316000  1
  Li  Li2  1  0.34947850  0.46497775  0.01607545  1
  Li  Li3  1  0.65871239  0.20268138  0.05881724  1
  Li  Li4  1  0.67615509  0.91061062  0.02321083  1
  Li  Li5  1  0.33109958  0.75504617  0.05176058  1
  Li  Li6  1  0.84154945  0.70297053  0.05879072  1
  Li  Li7  1  0.15065093  0.96524190  0.01608730  1
  Li  Li8  1  0.03388854  0.27504223  0.01072665  1
  Li  Li9  1  0.92711345  0.39220682  0.07006695  1
  Li  Li10  1  0.46619921  0.77500858  0.01072343  1
  Li  Li11  1  0.57290099  0.89213508  0.07008609  1
  Li  Li12  1  0.16430194  0.84987780  0.12290471  1
  Li  Li13  1  0.83413008  0.00451571  0.09415764  1
  Li  Li14  1  0.33490780  0.04528461  0.08755358  1
  Li  Li15  1  0.66406619  0.80941945  0.12998979  1
  Li  Li16  1  0.66594125  0.50437004  0.09412964  1
  Li  Li17  1  0.33571149  0.34988793  0.12289813  1
  Li  Li18  1  0.83594425  0.30941588  0.13000615  1
  Li  Li19  1  0.16513373  0.54523809  0.08753473  1
  Li  Li20  1  0.07394872  0.85488427  0.07668461  1
  Li  Li21  1  0.92496620  0.99897274  0.14036783  1
  Li  Li22  1  0.42623088  0.35529668  0.07660832  1
  Li  Li23  1  0.57502797  0.49898553  0.14035861  1
  Li  Li24  1  0.16361981  0.45488044  0.19332324  1
  Li  Li25  1  0.83653676  0.60872758  0.16516093  1
  Li  Li26  1  0.33627284  0.64957970  0.15784007  1
  Li  Li27  1  0.66352493  0.41446665  0.20084959  1
  Li  Li28  1  0.66347256  0.10873068  0.16515925  1
  Li  Li29  1  0.33640078  0.95487779  0.19331849  1
  Li  Li30  1  0.83648064  0.91446732  0.20085556  1
  Li  Li31  1  0.16372399  0.14959057  0.15784622  1
  Li  Li32  1  0.07493278  0.45975423  0.14719650  1
  Li  Li33  1  0.92509220  0.60396554  0.21121586  1
  Li  Li34  1  0.42506264  0.95973952  0.14719230  1
  Li  Li35  1  0.57494154  0.10405754  0.21118900  1
  Li  Li36  1  0.16410540  0.06127363  0.26418814  1
  Li  Li37  1  0.83704727  0.21609749  0.23579522  1
  Li  Li38  1  0.33588395  0.25606762  0.22836974  1
  Li  Li39  1  0.66339841  0.02170179  0.27131693  1
  Li  Li40  1  0.66300806  0.71612492  0.23577729  1
  Li  Li41  1  0.33593404  0.56125924  0.26418870  1
  Li  Li42  1  0.83666063  0.52177565  0.27131465  1
  Li  Li43  1  0.16414336  0.75609466  0.22837254  1
  Li  Li44  1  0.07511187  0.06708287  0.21802422  1
  Li  Li45  1  0.92438241  0.21155687  0.28180884  1
  Li  Li46  1  0.42489976  0.56708589  0.21802070  1
  Li  Li47  1  0.57588955  0.71084097  0.28167798  1
  Li  Li48  1  0.16552256  0.67162797  0.33473623  1
  Li  Li49  1  0.83628884  0.82355898  0.30650863  1
  Li  Li50  1  0.33781948  0.86464262  0.29903968  1
  Li  Li51  1  0.66243274  0.62955498  0.34204967  1
  Li  Li52  1  0.66384221  0.32359503  0.30649008  1
  Li  Li53  1  0.33554952  0.17154416  0.33480494  1
  Li  Li54  1  0.83795824  0.12924430  0.34202126  1
  Li  Li55  1  0.16256358  0.36463304  0.29910799  1
  Li  Li56  1  0.07519144  0.67587350  0.28876810  1
  Li  Li57  1  0.92739198  0.81782077  0.35259415  1
  Li  Li58  1  0.42494487  0.17591681  0.28877006  1
  Li  Li59  1  0.57350856  0.31802627  0.35254078  1
  Li  Li60  1  0.16657405  0.28423510  0.40621860  1
  Li  Li61  1  0.83550057  0.43192678  0.37695982  1
  Li  Li62  1  0.33727173  0.47696954  0.36976544  1
  Li  Li63  1  0.65937777  0.23887260  0.41133216  1
  Li  Li64  1  0.66470485  0.93188958  0.37700575  1
  Li  Li65  1  0.33364993  0.78441164  0.40620952  1
  Li  Li66  1  0.84110657  0.73869088  0.41127489  1
  Li  Li67  1  0.16296563  0.97699903  0.36976503  1
  Li  Li68  1  0.07712622  0.28727778  0.35933814  1
  Li  Li69  1  0.93311924  0.42149971  0.42248082  1
  Li  Li70  1  0.42308905  0.78732677  0.35933538  1
  Li  Li71  1  0.56701353  0.92153709  0.42251129  1
  Li  Li72  1  0.18549306  0.73592515  0.48591677  1
  Li  Li73  1  0.82964365  0.04867801  0.44505546  1
  Li  Li74  1  0.32942897  0.08176926  0.44155879  1
  Li  Li75  1  0.67781572  0.85058560  0.48073717  1
  Li  Li76  1  0.67024359  0.55040936  0.44498567  1
  Li  Li77  1  0.31469200  0.23741345  0.48590895  1
  Li  Li78  1  0.82232637  0.35101879  0.47976977  1
  Li  Li79  1  0.17064437  0.58176540  0.44157673  1
  Li  Li80  1  0.07984911  0.89321075  0.43283252  1
  Li  Li81  1  0.96621905  0.99799693  0.48281737  1
  Li  Li82  1  0.42048046  0.39306824  0.43290877  1
  Li  Li83  1  0.53369834  0.49901995  0.48276863  1
  Li  Li84  1  0.83121598  0.46880638  0.55167417  1
  Li  Li85  1  0.17530668  0.31237453  0.52325033  1
  Li  Li86  1  0.65105314  0.25646298  0.51583294  1
  Li  Li87  1  0.34068201  0.52090809  0.55899816  1
  Li  Li88  1  0.32452058  0.81242607  0.52326541  1
  Li  Li89  1  0.66861111  0.96881593  0.55165660  1
  Li  Li90  1  0.15923526  0.02065049  0.55901450  1
  Li  Li91  1  0.84903099  0.75629025  0.51587471  1
  Li  Li92  1  0.96439707  0.44771180  0.51066322  1
  Li  Li93  1  0.07303247  0.33066796  0.56995883  1
  Li  Li94  1  0.53258467  0.95074184  0.51051447  1
  Li  Li95  1  0.42676361  0.83079532  0.56996957  1
  Li  Li96  1  0.83575914  0.87511120  0.62285217  1
  Li  Li97  1  0.16475542  0.71924474  0.59419411  1
  Li  Li98  1  0.66480189  0.68091880  0.58751732  1
  Li  Li99  1  0.33620304  0.91534464  0.63004324  1
  Li  Li100  1  0.33391261  0.22139913  0.59415129  1
  Li  Li101  1  0.66354629  0.37620976  0.62281186  1
  Li  Li102  1  0.16333613  0.41533983  0.63008293  1
  Li  Li103  1  0.83448747  0.18076152  0.58753452  1
  Li  Li104  1  0.92629330  0.86813088  0.57671661  1
  Li  Li105  1  0.07507082  0.72705416  0.64038077  1
  Li  Li106  1  0.57362616  0.36855748  0.57663884  1
  Li  Li107  1  0.42473168  0.22678912  0.64035520  1
  Li  Li108  1  0.83644846  0.26899066  0.69341787  1
  Li  Li109  1  0.16336171  0.11537374  0.66533869  1
  Li  Li110  1  0.66265367  0.07488811  0.65783941  1
  Li  Li111  1  0.33646646  0.31036864  0.70088077  1
  Li  Li112  1  0.33624334  0.61572150  0.66530856  1
  Li  Li113  1  0.66331394  0.76908417  0.69343794  1
  Li  Li114  1  0.16340984  0.81037906  0.70088765  1
  Li  Li115  1  0.83722081  0.57481099  0.65785583  1
  Li  Li116  1  0.92499559  0.26435010  0.64729416  1
  Li  Li117  1  0.07470099  0.12082636  0.71154020  1
  Li  Li118  1  0.57453540  0.76430204  0.64741172  1
  Li  Li119  1  0.42500914  0.62064788  0.71148696  1
  Li  Li120  1  0.83616023  0.66224355  0.76407388  1
  Li  Li121  1  0.16269339  0.50843309  0.73583257  1
  Li  Li122  1  0.66358437  0.46794476  0.72840312  1
  Li  Li123  1  0.33651156  0.70368038  0.77140971  1
  Li  Li124  1  0.33713481  0.00843134  0.73585794  1
  Li  Li125  1  0.66374884  0.16263923  0.76407202  1
  Li  Li126  1  0.16344211  0.20368013  0.77140764  1
  Li  Li127  1  0.83620067  0.96787068  0.72842910  1
  Li  Li128  1  0.92483595  0.65878137  0.71801393  1
  Li  Li129  1  0.07546087  0.51407617  0.78192044  1
  Li  Li130  1  0.57481521  0.15877641  0.71801877  1
  Li  Li131  1  0.42448079  0.01399404  0.78192058  1
  Li  Li132  1  0.83573591  0.05404667  0.83492547  1
  Li  Li133  1  0.16417535  0.90167769  0.80646007  1
  Li  Li134  1  0.66267690  0.86124255  0.79920816  1
  Li  Li135  1  0.33758811  0.09649612  0.84215769  1
  Li  Li136  1  0.33579063  0.40169502  0.80645880  1
  Li  Li137  1  0.66414330  0.55403878  0.83491780  1
  Li  Li138  1  0.16234579  0.59653152  0.84216639  1
  Li  Li139  1  0.83723014  0.36109656  0.79921876  1
  Li  Li140  1  0.92486435  0.05098334  0.78881563  1
  Li  Li141  1  0.07306508  0.90790736  0.85245752  1
  Li  Li142  1  0.57509397  0.55101562  0.78880999  1
  Li  Li143  1  0.42690971  0.40789378  0.85245904  1
  Li  Li144  1  0.83383230  0.44251027  0.90622142  1
  Li  Li145  1  0.16472031  0.29437156  0.87728310  1
  Li  Li146  1  0.66295823  0.24833233  0.86979878  1
  Li  Li147  1  0.34053656  0.48768280  0.91155149  1
  Li  Li148  1  0.33530182  0.79435882  0.87728035  1
  Li  Li149  1  0.66620269  0.94250141  0.90622271  1
  Li  Li150  1  0.15963919  0.98771580  0.91155703  1
  Li  Li151  1  0.83703826  0.74847996  0.86982593  1
  Li  Li152  1  0.92344083  0.43794036  0.85931819  1
  Li  Li153  1  0.06788272  0.30519354  0.92285420  1
  Li  Li154  1  0.57668191  0.93788393  0.85926108  1
  Li  Li155  1  0.43215556  0.80512753  0.92284995  1
  Li  Li156  1  0.81458226  0.99144444  0.98589229  1
  Li  Li157  1  0.17049883  0.67677489  0.94505742  1
  Li  Li158  1  0.67002224  0.64308565  0.94143998  1
  Li  Li159  1  0.32284715  0.87611279  0.98089082  1
  Li  Li160  1  0.33020332  0.17689919  0.94512410  1
  Li  Li161  1  0.68614460  0.49384573  0.98588489  1
  Li  Li162  1  0.17735821  0.37592344  0.98086942  1
  Li  Li163  1  0.83003012  0.14342508  0.94150460  1
  Li  Li164  1  0.91968991  0.83197911  0.93311500  1
  Li  Li165  1  0.03331769  0.72920766  0.98276767  1
  Li  Li166  1  0.58074293  0.33156818  0.93303489  1
  Li  Li167  1  0.46710722  0.22920929  0.98278523  1
  P  P168  1  0.08822909  0.60212466  0.03329341  1
  P  P169  1  0.90830251  0.05926816  0.04236819  1
  P  P170  1  0.41184549  0.10216555  0.03331505  1
  P  P171  1  0.59187962  0.55951122  0.04234222  1
  P  P172  1  0.08866215  0.19904538  0.10461531  1
  P  P173  1  0.91205055  0.65488945  0.11262507  1
  P  P174  1  0.41130196  0.69899446  0.10458293  1
  P  P175  1  0.58794152  0.15489720  0.11262441  1
  P  P176  1  0.08831907  0.80461400  0.17532266  1
  P  P177  1  0.91138788  0.25963564  0.18332597  1
  P  P178  1  0.41169945  0.30462879  0.17531514  1
  P  P179  1  0.58861780  0.75958870  0.18330710  1
  P  P180  1  0.08855535  0.41151956  0.24599356  1
  P  P181  1  0.91141256  0.86655448  0.25402542  1
  P  P182  1  0.41158813  0.91156299  0.24597356  1
  P  P183  1  0.58867449  0.36643459  0.25398769  1
  P  P184  1  0.08884939  0.01974486  0.31651344  1
  P  P185  1  0.91150561  0.47492255  0.32474047  1
  P  P186  1  0.41172481  0.51970529  0.31650868  1
  P  P187  1  0.58886412  0.97472537  0.32471902  1
  P  P188  1  0.09143984  0.62914509  0.38749066  1
  P  P189  1  0.91488974  0.08334243  0.39516169  1
  P  P190  1  0.40913404  0.12941820  0.38749722  1
  P  P191  1  0.58528703  0.58344113  0.39517186  1
  P  P192  1  0.08441558  0.24624902  0.46043785  1
  P  P193  1  0.90940827  0.68457033  0.46395802  1
  P  P194  1  0.41596096  0.74717276  0.46051770  1
  P  P195  1  0.59046894  0.18496952  0.46391013  1
  P  P196  1  0.91150321  0.12080971  0.53342623  1
  P  P197  1  0.09169239  0.66488126  0.54226088  1
  P  P198  1  0.58805408  0.62163112  0.53327225  1
  P  P199  1  0.40816823  0.16526462  0.54229824  1
  P  P200  1  0.91120220  0.52513355  0.60462362  1
  P  P201  1  0.08794275  0.06933838  0.61263363  1
  P  P202  1  0.58817943  0.02547282  0.60460749  1
  P  P203  1  0.41150295  0.56965801  0.61261610  1
  P  P204  1  0.91127463  0.91996247  0.67534365  1
  P  P205  1  0.08854977  0.46477145  0.68342666  1
  P  P206  1  0.58837630  0.41998874  0.67532793  1
  P  P207  1  0.41116507  0.96483416  0.68343005  1
  P  P208  1  0.91122521  0.31315690  0.74603838  1
  P  P209  1  0.08850720  0.85828948  0.75408543  1
  P  P210  1  0.58859165  0.81315501  0.74604323  1
  P  P211  1  0.41135471  0.35834018  0.75407933  1
  P  P212  1  0.91121595  0.70569957  0.81657026  1
  P  P213  1  0.08895338  0.25063610  0.82485059  1
  P  P214  1  0.58865468  0.20576419  0.81655437  1
  P  P215  1  0.41100351  0.75063825  0.82485213  1
  P  P216  1  0.90934102  0.09635257  0.88761847  1
  P  P217  1  0.08520294  0.64289190  0.89527871  1
  P  P218  1  0.59069449  0.59631546  0.88759500  1
  P  P219  1  0.41486600  0.14280547  0.89527192  1
  P  P220  1  0.91549705  0.47883266  0.96059960  1
  P  P221  1  0.09123400  0.04116886  0.96407677  1
  P  P222  1  0.58474120  0.97860214  0.96058436  1
  P  P223  1  0.40913358  0.54112393  0.96409516  1
  O  O224  1  0.16088004  0.44421834  0.02249388  1
  O  O225  1  0.83556243  0.22247276  0.05017181  1
  O  O226  1  0.34045793  0.16998774  0.05633556  1
  O  O227  1  0.65771377  0.48695226  0.01944103  1
  O  O228  1  0.66453751  0.72273160  0.05016802  1
  O  O229  1  0.33926973  0.94416624  0.02252325  1
  O  O230  1  0.84247740  0.98655982  0.01947599  1
  O  O231  1  0.15958065  0.66999073  0.05631897  1
  O  O232  1  0.04724881  0.10942566  0.03636748  1
  O  O233  1  0.95311537  0.53983037  0.04066537  1
  O  O234  1  0.45287070  0.60947905  0.03634858  1
  O  O235  1  0.54693410  0.03995995  0.04069747  1
  O  O236  1  0.08090954  0.74412683  0.01438862  1
  O  O237  1  0.90856900  0.92807023  0.06362904  1
  O  O238  1  0.41913848  0.24406389  0.01439878  1
  O  O239  1  0.59168668  0.42814522  0.06358995  1
  O  O240  1  0.15778643  0.03214949  0.09745334  1
  O  O241  1  0.84134207  0.82070595  0.11983404  1
  O  O242  1  0.34161869  0.78232722  0.12667911  1
  O  O243  1  0.65646036  0.07033172  0.09055987  1
  O  O244  1  0.65868233  0.32070956  0.11982644  1
  O  O245  1  0.34224509  0.53202452  0.09743738  1
  O  O246  1  0.84356144  0.57038740  0.09055249  1
  O  O247  1  0.15837566  0.28243502  0.12670012  1
  O  O248  1  0.05123958  0.69612763  0.10552513  1
  O  O249  1  0.94900982  0.15959210  0.11169512  1
  O  O250  1  0.44878112  0.19617937  0.10551794  1
  O  O251  1  0.55098792  0.65965171  0.11164813  1
  O  O252  1  0.09202951  0.32384076  0.08257644  1
  O  O253  1  0.91042726  0.53096283  0.13481759  1
  O  O254  1  0.40783535  0.82377075  0.08254198  1
  O  O255  1  0.58956859  0.03097616  0.13481703  1
  O  O256  1  0.15849090  0.63866561  0.16798912  1
  O  O257  1  0.84128933  0.42559062  0.19067246  1
  O  O258  1  0.34131477  0.38929738  0.19720399  1
  O  O259  1  0.65874700  0.67510010  0.16140127  1
  O  O260  1  0.65872116  0.92554468  0.19065280  1
  O  O261  1  0.34152762  0.13867971  0.16798294  1
  O  O262  1  0.84124342  0.17518009  0.16141942  1
  O  O263  1  0.15872216  0.88933229  0.19720544  1
  O  O264  1  0.05040506  0.30036196  0.17601679  1
  O  O265  1  0.94949287  0.76357996  0.18274181  1
  O  O266  1  0.44959736  0.80030733  0.17600055  1
  O  O267  1  0.55053599  0.26361416  0.18272861  1
  O  O268  1  0.08884060  0.92845084  0.15314909  1
  O  O269  1  0.91062690  0.13600034  0.20555039  1
  O  O270  1  0.41115989  0.42847321  0.15314278  1
  O  O271  1  0.58940212  0.63599966  0.20553692  1
  O  O272  1  0.15874324  0.24538920  0.23877833  1
  O  O273  1  0.84138170  0.03272994  0.26131864  1
  O  O274  1  0.34200264  0.99695261  0.26789611  1
  O  O275  1  0.65892174  0.28121462  0.23216351  1
  O  O276  1  0.65879558  0.53258323  0.26125652  1
  O  O277  1  0.34136299  0.74540422  0.23878008  1
  O  O278  1  0.84109928  0.78136753  0.23220109  1
  O  O279  1  0.15815581  0.49682271  0.26792343  1
  O  O280  1  0.05048181  0.90691621  0.24669729  1
  O  O281  1  0.94944310  0.37079902  0.25327296  1
  O  O282  1  0.44959599  0.40690189  0.24668700  1
  O  O283  1  0.55068604  0.87077311  0.25325152  1
  O  O284  1  0.08967054  0.53468971  0.22374203  1
  O  O285  1  0.91055769  0.74342078  0.27631058  1
  O  O286  1  0.41049427  0.03466652  0.22371706  1
  O  O287  1  0.58961317  0.24336695  0.27627769  1
  O  O288  1  0.15971351  0.85420939  0.30924422  1
  O  O289  1  0.84109002  0.64055651  0.33215605  1
  O  O290  1  0.34225979  0.60604924  0.33833783  1
  O  O291  1  0.65834394  0.88955904  0.30279496  1
  O  O292  1  0.65945766  0.14035376  0.33207273  1
  O  O293  1  0.34072293  0.35420740  0.30927391  1
  O  O294  1  0.84180776  0.39016114  0.30280972  1
  O  O295  1  0.15848139  0.10601298  0.33833001  1
  O  O296  1  0.05066740  0.51643832  0.31756758  1
  O  O297  1  0.95021833  0.97735247  0.32392631  1
  O  O298  1  0.44970267  0.01637979  0.31755655  1
  O  O299  1  0.55040677  0.47732904  0.32388938  1
  O  O300  1  0.08879533  0.14279943  0.29426280  1
  O  O301  1  0.91083899  0.35089998  0.34691468  1
  O  O302  1  0.41163294  0.64265767  0.29424812  1
  O  O303  1  0.58949156  0.85104060  0.34693015  1
  O  O304  1  0.16295736  0.46388322  0.38039192  1
  O  O305  1  0.84132517  0.24647272  0.40279241  1
  O  O306  1  0.34244200  0.21255305  0.40998379  1
  O  O307  1  0.65568715  0.49664285  0.37345967  1
  O  O308  1  0.65896318  0.74639356  0.40285786  1
  O  O309  1  0.33749271  0.96426661  0.38037998  1
  O  O310  1  0.84458737  0.99639343  0.37345219  1
  O  O311  1  0.15798339  0.71223634  0.41000033  1
  O  O312  1  0.05239000  0.13132994  0.38780768  1
  O  O313  1  0.95174671  0.58517674  0.39369060  1
  O  O314  1  0.44786414  0.63165254  0.38780171  1
  O  O315  1  0.54873242  0.08517957  0.39373370  1
  O  O316  1  0.09416023  0.75365129  0.36538768  1
  O  O317  1  0.91847662  0.95887984  0.41720849  1
  O  O318  1  0.40678943  0.25390124  0.36538629  1
  O  O319  1  0.58156490  0.45894058  0.41720945  1
  O  O320  1  0.15657992  0.07889084  0.45480312  1
  O  O321  1  0.84145122  0.85689503  0.46757564  1
  O  O322  1  0.36316731  0.82756669  0.48446433  1
  O  O323  1  0.64846441  0.09590315  0.44129468  1
  O  O324  1  0.65789529  0.35785366  0.46739733  1
  O  O325  1  0.34364562  0.57956293  0.45501069  1
  O  O326  1  0.85172926  0.59561208  0.44129455  1
  O  O327  1  0.13722483  0.32617685  0.48439561  1
  O  O328  1  0.05344950  0.72373452  0.46072776  1
  O  O329  1  0.94076306  0.20406639  0.46415199  1
  O  O330  1  0.44631887  0.22351663  0.46069146  1
  O  O331  1  0.55964095  0.70540925  0.46422719  1
  O  O332  1  0.09767702  0.36529727  0.43777029  1
  O  O333  1  0.88421790  0.57552871  0.48688279  1
  O  O334  1  0.40241032  0.86547370  0.43777754  1
  O  O335  1  0.61581189  0.07684771  0.48691492  1
  O  O336  1  0.83929072  0.27940861  0.52276915  1
  O  O337  1  0.16414014  0.50134131  0.55005607  1
  O  O338  1  0.66002818  0.55487354  0.55628927  1
  O  O339  1  0.34203112  0.23831253  0.51946692  1
  O  O340  1  0.33583820  0.00160247  0.55006922  1
  O  O341  1  0.65964264  0.78025655  0.52240455  1
  O  O342  1  0.15791111  0.73832922  0.51946765  1
  O  O343  1  0.84014193  0.05312363  0.55644875  1
  O  O344  1  0.95293235  0.61437172  0.53615061  1
  O  O345  1  0.04704547  0.18189668  0.54074214  1
  O  O346  1  0.54702207  0.11514615  0.53621277  1
  O  O347  1  0.45263637  0.68229797  0.54072216  1
  O  O348  1  0.91791911  0.97926611  0.51440802  1
  O  O349  1  0.09117209  0.79549664  0.56360414  1
  O  O350  1  0.58149325  0.47947477  0.51435542  1
  O  O351  1  0.40843488  0.29608595  0.56360925  1
  O  O352  1  0.84182832  0.69193458  0.59752050  1
  O  O353  1  0.15864116  0.90351022  0.61984053  1
  O  O354  1  0.65775467  0.94134277  0.62665812  1
  O  O355  1  0.34262539  0.65401880  0.59057969  1
  O  O356  1  0.34081183  0.40386420  0.61984688  1
  O  O357  1  0.65757382  0.19232311  0.59750244  1
  O  O358  1  0.15664671  0.15378910  0.59057741  1
  O  O359  1  0.84158735  0.44108622  0.62666414  1
  O  O360  1  0.94883166  0.02819710  0.60548180  1
  O  O361  1  0.05064907  0.56512956  0.61176859  1
  O  O362  1  0.55055017  0.52849889  0.60539951  1
  O  O363  1  0.44868273  0.06549234  0.61171558  1
  O  O364  1  0.90834415  0.40086456  0.58251754  1
  O  O365  1  0.08949115  0.19313760  0.63484531  1
  O  O366  1  0.59121247  0.90115559  0.58250445  1
  O  O367  1  0.41019931  0.69333802  0.63483795  1
  O  O368  1  0.84083369  0.08561414  0.66799625  1
  O  O369  1  0.15874437  0.29905702  0.69086737  1
  O  O370  1  0.65861265  0.33473868  0.69719051  1
  O  O371  1  0.34111361  0.04916349  0.66150498  1
  O  O372  1  0.34097964  0.79907738  0.69086106  1
  O  O373  1  0.65883141  0.58569885  0.66800197  1
  O  O374  1  0.15857906  0.54916054  0.66150254  1
  O  O375  1  0.84102072  0.83481354  0.69720837  1
  O  O376  1  0.94963557  0.42347230  0.67610643  1
  O  O377  1  0.04993173  0.96153137  0.68284348  1
  O  O378  1  0.55007979  0.92353037  0.67611370  1
  O  O379  1  0.44969599  0.46153573  0.68281414  1
  O  O380  1  0.91124290  0.79629356  0.65315224  1
  O  O381  1  0.08913496  0.58882554  0.70560590  1
  O  O382  1  0.58846406  0.29648610  0.65312258  1
  O  O383  1  0.41059012  0.08882446  0.70561526  1
  O  O384  1  0.84127789  0.47921203  0.73871591  1
  O  O385  1  0.15857652  0.69220394  0.76139710  1
  O  O386  1  0.65842674  0.72845405  0.76798156  1
  O  O387  1  0.34097541  0.44329469  0.73225319  1
  O  O388  1  0.34136424  0.19221759  0.76139997  1
  O  O389  1  0.65852603  0.97922226  0.73872500  1
  O  O390  1  0.15883566  0.94333316  0.73226047  1
  O  O391  1  0.84149210  0.22854786  0.76799529  1
  O  O392  1  0.94952926  0.81766790  0.74672845  1
  O  O393  1  0.05036279  0.35384887  0.75331820  1
  O  O394  1  0.55034056  0.31777626  0.74671386  1
  O  O395  1  0.44949915  0.85388864  0.75335288  1
  O  O396  1  0.91002458  0.18938582  0.72386086  1
  O  O397  1  0.08932236  0.98168529  0.77634318  1
  O  O398  1  0.58961938  0.68948811  0.72385087  1
  O  O399  1  0.41057597  0.48173967  0.77633542  1
  O  O400  1  0.84069492  0.87161997  0.80938608  1
  O  O401  1  0.15916168  0.08467404  0.83215959  1
  O  O402  1  0.65830958  0.11954092  0.83838049  1
  O  O403  1  0.34157777  0.83525978  0.80288078  1
  O  O404  1  0.34080542  0.58467548  0.83216447  1
  O  O405  1  0.65913810  0.37169939  0.80936465  1
  O  O406  1  0.15833472  0.33527018  0.80287421  1
  O  O407  1  0.84163007  0.61943828  0.83839916  1
  O  O408  1  0.94960341  0.20974124  0.81770290  1
  O  O409  1  0.05009440  0.74733853  0.82392723  1
  O  O410  1  0.55035582  0.70979362  0.81770054  1
  O  O411  1  0.44978675  0.24735073  0.82392320  1
  O  O412  1  0.91079269  0.58258278  0.79431608  1
  O  O413  1  0.09018785  0.37433490  0.84705019  1
  O  O414  1  0.58909845  0.08263462  0.79430325  1
  O  O415  1  0.40980872  0.87435240  0.84704937  1
  O  O416  1  0.83763082  0.26140117  0.88046889  1
  O  O417  1  0.15879994  0.47995096  0.90301176  1
  O  O418  1  0.65768839  0.51294159  0.91003554  1
  O  O419  1  0.34426718  0.22951733  0.87358629  1
  O  O420  1  0.34130501  0.97982132  0.90300035  1
  O  O421  1  0.66238549  0.76138365  0.88044869  1
  O  O422  1  0.15573869  0.72954329  0.87358045  1
  O  O423  1  0.84240512  0.01298475  0.91006460  1
  O  O424  1  0.94792805  0.59443983  0.88782392  1
  O  O425  1  0.04878942  0.14080837  0.89392349  1
  O  O426  1  0.55213633  0.09440718  0.88780824  1
  O  O427  1  0.45125936  0.64073609  0.89391049  1
  O  O428  1  0.90698076  0.97181684  0.86550779  1
  O  O429  1  0.08123970  0.76729102  0.91733207  1
  O  O430  1  0.59301818  0.47174072  0.86549093  1
  O  O431  1  0.41890683  0.26716272  0.91733127  1
  O  O432  1  0.84227786  0.64577665  0.95507046  1
  O  O433  1  0.15931860  0.86885110  0.96768024  1
  O  O434  1  0.63770324  0.89790447  0.98449935  1
  O  O435  1  0.35134214  0.62989501  0.94144958  1
  O  O436  1  0.34111284  0.36880042  0.96775093  1
  O  O437  1  0.65778470  0.14554708  0.95500751  1
  O  O438  1  0.14902394  0.13034766  0.94146602  1
  O  O439  1  0.86272156  0.39825027  0.98453322  1
  O  O440  1  0.94720934  0.00137092  0.96079722  1
  O  O441  1  0.05896430  0.52176004  0.96433333  1
  O  O442  1  0.55315798  0.50142821  0.96081699  1
  O  O443  1  0.44131924  0.02159639  0.96437744  1
  O  O444  1  0.90264378  0.36031267  0.93786613  1
  O  O445  1  0.11566052  0.14974030  0.98705247  1
  O  O446  1  0.59735339  0.86002512  0.93785346  1
  O  O447  1  0.38453260  0.64992905  0.98703758  1
