# generated using pymatgen
data_Li3PO4
_symmetry_space_group_name_H-M   'P 1'
_cell_length_a   7.91303400
_cell_length_b   11.66978227
_cell_length_c   41.46552528
_cell_angle_alpha   90.00000000
_cell_angle_beta   90.00000000
_cell_angle_gamma   74.43479159
_symmetry_Int_Tables_number   1
_chemical_formula_structural   Li3PO4
_chemical_formula_sum   'Li132 P44 O176'
_cell_volume   3688.63851236
_cell_formula_units_Z   44
loop_
 _symmetry_equiv_pos_site_id
 _symmetry_equiv_pos_as_xyz
  1  'x, y, z'
loop_
 _atom_site_type_symbol
 _atom_site_label
 _atom_site_symmetry_multiplicity
 _atom_site_fract_x
 _atom_site_fract_y
 _atom_site_fract_z
 _atom_site_occupancy
  Li  Li0  1  0.58258631  0.76731739  0.99010191  1
  Li  Li1  1  0.30552375  0.95495946  0.06992869  1
  Li  Li2  1  0.39600901  0.15755037  0.05388130  1
  Li  Li3  1  0.78153374  0.45151217  0.07560069  1
  Li  Li4  1  0.98962856  0.02569871  0.02438852  1
  Li  Li5  1  0.88742192  0.68500661  0.04583597  1
  Li  Li6  1  0.54703590  0.72704648  0.05808892  1
  Li  Li7  1  0.28952110  0.00397030  0.01180525  1
  Li  Li8  1  0.29480755  0.40230653  0.02272326  1
  Li  Li9  1  0.22728304  0.59294653  0.08346652  1
  Li  Li10  1  0.97784356  0.83819707  0.15028620  1
  Li  Li11  1  0.11920491  0.38617738  0.11559291  1
  Li  Li12  1  0.08276208  0.05417043  0.12220964  1
  Li  Li13  1  0.76847796  0.11510723  0.07954410  1
  Li  Li14  1  0.43777899  0.32497609  0.15914124  1
  Li  Li15  1  0.64951838  0.89326111  0.10941023  1
  Li  Li16  1  0.54582891  0.53631917  0.13077723  1
  Li  Li17  1  0.21234340  0.59691086  0.15114023  1
  Li  Li18  1  0.99812104  0.83882107  0.08426423  1
  Li  Li19  1  0.84189293  0.29186515  0.12150751  1
  Li  Li20  1  0.35751185  0.14895474  0.11925663  1
  Li  Li21  1  0.87487157  0.47621354  0.17380475  1
  Li  Li22  1  0.62282883  0.71794610  0.23812668  1
  Li  Li23  1  0.76234018  0.26390801  0.20455935  1
  Li  Li24  1  0.73677384  0.92915858  0.20938150  1
  Li  Li25  1  0.41438284  0.98712600  0.16656968  1
  Li  Li26  1  0.08605126  0.20402414  0.24729680  1
  Li  Li27  1  0.29758464  0.77639665  0.19444884  1
  Li  Li28  1  0.20136743  0.41709430  0.21807994  1
  Li  Li29  1  0.86579924  0.47850261  0.23914783  1
  Li  Li30  1  0.63362715  0.71270030  0.17292643  1
  Li  Li31  1  0.48994868  0.16869708  0.20981222  1
  Li  Li32  1  0.01057974  0.02436856  0.20452410  1
  Li  Li33  1  0.52386409  0.35642417  0.26229952  1
  Li  Li34  1  0.26978850  0.60246244  0.32501965  1
  Li  Li35  1  0.41885309  0.14219498  0.29158657  1
  Li  Li36  1  0.38856016  0.81067579  0.29822053  1
  Li  Li37  1  0.06549106  0.86934809  0.25439683  1
  Li  Li38  1  0.73917064  0.08091396  0.33525013  1
  Li  Li39  1  0.94618392  0.65909288  0.28200671  1
  Li  Li40  1  0.85094456  0.29679082  0.30512063  1
  Li  Li41  1  0.51642423  0.36031130  0.32674908  1
  Li  Li42  1  0.28043144  0.59744321  0.26030706  1
  Li  Li43  1  0.14349552  0.04874215  0.29759619  1
  Li  Li44  1  0.66301803  0.90120493  0.29328606  1
  Li  Li45  1  0.18479540  0.23990211  0.34677548  1
  Li  Li46  1  0.91281792  0.49207452  0.40834224  1
  Li  Li47  1  0.06636100  0.02568814  0.38041793  1
  Li  Li48  1  0.05110189  0.69233671  0.38777578  1
  Li  Li49  1  0.72509403  0.74837054  0.34361499  1
  Li  Li50  1  0.39944013  0.96294971  0.42630860  1
  Li  Li51  1  0.59689946  0.54534246  0.36914422  1
  Li  Li52  1  0.51202140  0.17870369  0.39216931  1
  Li  Li53  1  0.18470431  0.22871398  0.40731269  1
  Li  Li54  1  0.92823478  0.47785577  0.34576175  1
  Li  Li55  1  0.79299689  0.92745082  0.38748434  1
  Li  Li56  1  0.32410115  0.78851524  0.38332832  1
  Li  Li57  1  0.82301320  0.13468994  0.44164402  1
  Li  Li58  1  0.54880586  0.40762231  0.48322160  1
  Li  Li59  1  0.74863795  0.93339380  0.45850963  1
  Li  Li60  1  0.37309107  0.63398679  0.43098098  1
  Li  Li61  1  0.23207583  0.42468315  0.45453615  1
  Li  Li62  1  0.17698693  0.08883746  0.48100966  1
  Li  Li63  1  0.67524674  0.11523645  0.51826864  1
  Li  Li64  1  0.58709042  0.37108155  0.42458466  1
  Li  Li65  1  0.99963929  0.68214288  0.47615772  1
  Li  Li66  1  0.81071228  0.53163172  0.48751490  1
  Li  Li67  1  0.09961416  0.34562223  0.57010737  1
  Li  Li68  1  0.00601290  0.14243028  0.55339960  1
  Li  Li69  1  0.62150492  0.84851513  0.57574443  1
  Li  Li70  1  0.41398931  0.27455975  0.52460849  1
  Li  Li71  1  0.51747782  0.61557332  0.54568722  1
  Li  Li72  1  0.85757017  0.57223985  0.55721369  1
  Li  Li73  1  0.11295635  0.29870750  0.51198301  1
  Li  Li74  1  0.11106308  0.89851394  0.52293163  1
  Li  Li75  1  0.17579991  0.70785395  0.58341402  1
  Li  Li76  1  0.42371588  0.46286682  0.65010250  1
  Li  Li77  1  0.28347372  0.91453878  0.61559397  1
  Li  Li78  1  0.31841184  0.24610591  0.62227090  1
  Li  Li79  1  0.63490770  0.18598664  0.57946494  1
  Li  Li80  1  0.96206830  0.97518236  0.65895747  1
  Li  Li81  1  0.75184582  0.40790688  0.60913132  1
  Li  Li82  1  0.85486938  0.76362020  0.63059002  1
  Li  Li83  1  0.18727894  0.70378721  0.65107536  1
  Li  Li84  1  0.40579315  0.46264402  0.58405092  1
  Li  Li85  1  0.56109577  0.00946188  0.62160847  1
  Li  Li86  1  0.04324969  0.15167860  0.61907593  1
  Li  Li87  1  0.52521359  0.82355990  0.67353890  1
  Li  Li88  1  0.77470254  0.58236099  0.73809447  1
  Li  Li89  1  0.63544914  0.03663164  0.70443538  1
  Li  Li90  1  0.66107017  0.37120189  0.70937071  1
  Li  Li91  1  0.98687082  0.31352071  0.66659824  1
  Li  Li92  1  0.31174014  0.09597646  0.74733460  1
  Li  Li93  1  0.10218720  0.52431717  0.69451906  1
  Li  Li94  1  0.19608217  0.88300370  0.71804986  1
  Li  Li95  1  0.53090917  0.82151206  0.73908027  1
  Li  Li96  1  0.76575416  0.58631496  0.67265598  1
  Li  Li97  1  0.90933431  0.13146907  0.70959111  1
  Li  Li98  1  0.38742961  0.27589588  0.70446891  1
  Li  Li99  1  0.87397170  0.94309513  0.76217886  1
  Li  Li100  1  0.12710125  0.69734410  0.82500424  1
  Li  Li101  1  0.97919653  0.15702822  0.79163754  1
  Li  Li102  1  0.01148949  0.48860967  0.79801594  1
  Li  Li103  1  0.33192117  0.43071065  0.75440458  1
  Li  Li104  1  0.65941345  0.21860562  0.83523484  1
  Li  Li105  1  0.45189734  0.64099608  0.78229868  1
  Li  Li106  1  0.54857117  0.00224474  0.80506801  1
  Li  Li107  1  0.88218075  0.93948217  0.82686954  1
  Li  Li108  1  0.11684806  0.70252092  0.76025255  1
  Li  Li109  1  0.25537533  0.25050144  0.79771662  1
  Li  Li110  1  0.73615413  0.39798737  0.79345858  1
  Li  Li111  1  0.21459226  0.05887909  0.84674808  1
  Li  Li112  1  0.48693922  0.80684196  0.90856273  1
  Li  Li113  1  0.33110572  0.27421723  0.88050218  1
  Li  Li114  1  0.35026435  0.60657889  0.88774179  1
  Li  Li115  1  0.67505936  0.55095153  0.84352612  1
  Li  Li116  1  0.99878228  0.33677712  0.92629833  1
  Li  Li117  1  0.80055649  0.75445092  0.86905669  1
  Li  Li118  1  0.88658547  0.12044292  0.89206800  1
  Li  Li119  1  0.21490343  0.07008356  0.90722199  1
  Li  Li120  1  0.46946275  0.82132485  0.84582986  1
  Li  Li121  1  0.60657291  0.37083569  0.88744552  1
  Li  Li122  1  0.07685819  0.51178630  0.88333842  1
  Li  Li123  1  0.57752789  0.16427278  0.94175503  1
  Li  Li124  1  0.85226447  0.89103923  0.98334841  1
  Li  Li125  1  0.64907319  0.36705440  0.95865007  1
  Li  Li126  1  0.02452951  0.66573122  0.93099922  1
  Li  Li127  1  0.16739388  0.87617305  0.95460426  1
  Li  Li128  1  0.22501277  0.21119037  0.98114842  1
  Li  Li129  1  0.72548958  0.18457709  0.01817428  1
  Li  Li130  1  0.81238243  0.92823255  0.92472549  1
  Li  Li131  1  0.39725621  0.61819268  0.97573201  1
  P  P132  1  0.19746801  0.76525286  0.02489791  1
  P  P133  1  0.67603939  0.93927734  0.04037928  1
  P  P134  1  0.07227865  0.22303170  0.06189846  1
  P  P135  1  0.86222649  0.63199341  0.11451540  1
  P  P136  1  0.34184179  0.79848494  0.12169064  1
  P  P137  1  0.47812976  0.34920764  0.08573387  1
  P  P138  1  0.72524567  0.08748010  0.15059795  1
  P  P139  1  0.51060981  0.51146376  0.20311591  1
  P  P140  1  0.98725590  0.68286564  0.20868989  1
  P  P141  1  0.12468938  0.22799540  0.17557549  1
  P  P142  1  0.37770127  0.96563757  0.23807761  1
  P  P143  1  0.16089796  0.39285912  0.28983854  1
  P  P144  1  0.63580508  0.56535078  0.29621026  1
  P  P145  1  0.77700789  0.10567393  0.26325975  1
  P  P146  1  0.03247710  0.84620863  0.32756728  1
  P  P147  1  0.81751543  0.27006820  0.37495092  1
  P  P148  1  0.28531758  0.45193381  0.38122779  1
  P  P149  1  0.43037988  0.98625192  0.35182230  1
  P  P150  1  0.70044902  0.73017439  0.41821235  1
  P  P151  1  0.45469950  0.17842298  0.46183266  1
  P  P152  1  0.94024782  0.34319551  0.45810321  1
  P  P153  1  0.08532153  0.88187955  0.44528384  1
  P  P154  1  0.20691325  0.53556919  0.52477926  1
  P  P155  1  0.72735896  0.36137254  0.54013726  1
  P  P156  1  0.33015814  0.07695557  0.56194919  1
  P  P157  1  0.53881324  0.66875653  0.61438837  1
  P  P158  1  0.05971492  0.50202196  0.62140086  1
  P  P159  1  0.92441711  0.95131540  0.58566857  1
  P  P160  1  0.67535968  0.21338309  0.65051263  1
  P  P161  1  0.88765877  0.78866763  0.70303858  1
  P  P162  1  0.41121997  0.61747077  0.70861273  1
  P  P163  1  0.27529311  0.07236102  0.67548254  1
  P  P164  1  0.02064523  0.33464825  0.73811031  1
  P  P165  1  0.23711326  0.90687578  0.78984279  1
  P  P166  1  0.76239978  0.73436604  0.79614210  1
  P  P167  1  0.62143344  0.19410070  0.76319028  1
  P  P168  1  0.36654924  0.45342383  0.82766184  1
  P  P169  1  0.58124555  0.02938637  0.87497092  1
  P  P170  1  0.11399441  0.84718387  0.88134586  1
  P  P171  1  0.96876890  0.31330540  0.85181878  1
  P  P172  1  0.69789219  0.56914891  0.91803133  1
  P  P173  1  0.94538779  0.12168429  0.96175839  1
  P  P174  1  0.46143932  0.95575341  0.95828445  1
  P  P175  1  0.31349540  0.41782091  0.94539330  1
  O  O176  1  0.39466845  0.69428329  0.02207894  1
  O  O177  1  0.47735333  0.99996625  0.04302911  1
  O  O178  1  0.35899649  0.44666092  0.06455347  1
  O  O179  1  0.92691568  0.16834373  0.04949083  1
  O  O180  1  0.76643358  0.94412450  0.07341377  1
  O  O181  1  0.10364200  0.76592374  0.99186422  1
  O  O182  1  0.70324856  0.80689421  0.02930104  1
  O  O183  1  0.17382288  0.89544699  0.03787084  1
  O  O184  1  0.56244477  0.23882839  0.06409745  1
  O  O185  1  0.10684254  0.70583374  0.05165771  1
  O  O186  1  0.76218342  0.00731319  0.01633174  1
  O  O187  1  0.18644963  0.25905105  0.03505835  1
  O  O188  1  0.05605412  0.55601734  0.11717796  1
  O  O189  1  0.15036826  0.88010849  0.11770826  1
  O  O190  1  0.00462037  0.32660847  0.15408532  1
  O  O191  1  0.20168195  0.12468502  0.08323056  1
  O  O192  1  0.57808768  0.03817130  0.13559460  1
  O  O193  1  0.62340521  0.39770918  0.10192375  1
  O  O194  1  0.41499551  0.82316438  0.15509386  1
  O  O195  1  0.78759194  0.61285725  0.08023443  1
  O  O196  1  0.34249110  0.66600947  0.11849396  1
  O  O197  1  0.85542674  0.76465605  0.11913230  1
  O  O198  1  0.98576662  0.33113766  0.08354484  1
  O  O199  1  0.20926088  0.11702058  0.15447051  1
  O  O200  1  0.75030033  0.59126205  0.14098563  1
  O  O201  1  0.45688444  0.83114742  0.09461788  1
  O  O202  1  0.37079472  0.31118511  0.11364969  1
  O  O203  1  0.83351344  0.12719661  0.12332546  1
  O  O204  1  0.70609561  0.43756359  0.20577403  1
  O  O205  1  0.79178667  0.75624353  0.20546851  1
  O  O206  1  0.65209545  0.20531065  0.24266534  1
  O  O207  1  0.85078549  0.98750423  0.17082866  1
  O  O208  1  0.23195072  0.91570153  0.22267269  1
  O  O209  1  0.27208052  0.27683279  0.19047777  1
  O  O210  1  0.06013637  0.70766580  0.24214725  1
  O  O211  1  0.43562435  0.48752775  0.16968578  1
  O  O212  1  0.00006413  0.54808777  0.20516296  1
  O  O213  1  0.49924474  0.64602163  0.20626075  1
  O  O214  1  0.64011285  0.19635677  0.17218387  1
  O  O215  1  0.86191771  0.99696413  0.24145829  1
  O  O216  1  0.40189746  0.47305422  0.23039197  1
  O  O217  1  0.09749195  0.72115210  0.18149152  1
  O  O218  1  0.01401890  0.19190323  0.20288335  1
  O  O219  1  0.48685140  0.00227958  0.21043609  1
  O  O220  1  0.35545176  0.31775963  0.29332252  1
  O  O221  1  0.44078131  0.63897913  0.29260854  1
  O  O222  1  0.31097776  0.08383605  0.32990473  1
  O  O223  1  0.50072584  0.86742460  0.25920031  1
  O  O224  1  0.88902545  0.79357333  0.31229146  1
  O  O225  1  0.92373394  0.15543881  0.27810635  1
  O  O226  1  0.70799800  0.59195764  0.32956491  1
  O  O227  1  0.08761820  0.36833652  0.25635853  1
  O  O228  1  0.64995855  0.43040179  0.29299235  1
  O  O229  1  0.14912186  0.52746480  0.29302272  1
  O  O230  1  0.29222080  0.07600775  0.25914251  1
  O  O231  1  0.51470808  0.87398834  0.33113157  1
  O  O232  1  0.05003279  0.35452947  0.31669399  1
  O  O233  1  0.74742005  0.60272309  0.26901861  1
  O  O234  1  0.66965497  0.06656461  0.29064016  1
  O  O235  1  0.13738604  0.88407208  0.29939108  1
  O  O236  1  0.01387137  0.19761091  0.37568090  1
  O  O237  1  0.08959004  0.52184572  0.37643803  1
  O  O238  1  0.93863400  0.96758515  0.42426160  1
  O  O239  1  0.16034761  0.75065548  0.34882864  1
  O  O240  1  0.55434075  0.67340941  0.40505516  1
  O  O241  1  0.57812495  0.03504804  0.36650294  1
  O  O242  1  0.34762610  0.48698587  0.41455362  1
  O  O243  1  0.73423909  0.24534986  0.34246063  1
  O  O244  1  0.31377301  0.31501204  0.37796534  1
  O  O245  1  0.79363193  0.40663581  0.37769753  1
  O  O246  1  0.94426190  0.95507385  0.34897853  1
  O  O247  1  0.17185835  0.76839713  0.42472997  1
  O  O248  1  0.71926664  0.22764193  0.40314428  1
  O  O249  1  0.39991863  0.49041192  0.35479547  1
  O  O250  1  0.31946384  0.95296586  0.37969064  1
  O  O251  1  0.80300510  0.75667652  0.38785102  1
  O  O252  1  0.63787876  0.09403663  0.47165084  1
  O  O253  1  0.74350637  0.41472422  0.45485146  1
  O  O254  1  0.83115530  0.64211511  0.44096485  1
  O  O255  1  0.22175520  0.94531641  0.45651133  1
  O  O256  1  0.01781283  0.41198859  0.48361177  1
  O  O257  1  0.39120711  0.12887833  0.43059900  1
  O  O258  1  0.96456339  0.21119743  0.46710348  1
  O  O259  1  0.46566057  0.30604501  0.45541368  1
  O  O260  1  0.61741054  0.84859783  0.43569751  1
  O  O261  1  0.32362431  0.18766229  0.48998248  1
  O  O262  1  0.04661628  0.35561083  0.42774552  1
  O  O263  1  0.99305511  0.84820958  0.47623424  1
  O  O264  1  0.01045598  0.60720267  0.52203229  1
  O  O265  1  0.92600295  0.30060763  0.54289616  1
  O  O266  1  0.04381037  0.85397769  0.56450789  1
  O  O267  1  0.47521163  0.13205273  0.54953403  1
  O  O268  1  0.63679736  0.35681795  0.57318155  1
  O  O269  1  0.30075527  0.53368005  0.49168689  1
  O  O270  1  0.70004112  0.49354350  0.52886665  1
  O  O271  1  0.22958009  0.40534821  0.53774010  1
  O  O272  1  0.83978590  0.06160251  0.56400190  1
  O  O273  1  0.29841460  0.59456227  0.55151413  1
  O  O274  1  0.64122506  0.29269913  0.51622047  1
  O  O275  1  0.21675705  0.04024052  0.53507465  1
  O  O276  1  0.34502419  0.74463681  0.61710399  1
  O  O277  1  0.25115198  0.42022650  0.61737117  1
  O  O278  1  0.39681754  0.97429328  0.65405174  1
  O  O279  1  0.20006235  0.17515596  0.58316977  1
  O  O280  1  0.82272482  0.26276999  0.63560852  1
  O  O281  1  0.77923878  0.90278228  0.60189802  1
  O  O282  1  0.98630186  0.47726067  0.65479270  1
  O  O283  1  0.61380851  0.68793184  0.58017025  1
  O  O284  1  0.05937465  0.63445095  0.61823719  1
  O  O285  1  0.54592706  0.53602594  0.61898033  1
  O  O286  1  0.41730338  0.96907110  0.58360309  1
  O  O287  1  0.19129079  0.18356840  0.65441556  1
  O  O288  1  0.65064043  0.70916574  0.64093019  1
  O  O289  1  0.94479243  0.46954812  0.59428084  1
  O  O290  1  0.03133545  0.98953556  0.61360396  1
  O  O291  1  0.56757305  0.17391275  0.62310334  1
  O  O292  1  0.69222906  0.86265363  0.70568141  1
  O  O293  1  0.60672479  0.54414010  0.70540868  1
  O  O294  1  0.74673945  0.09474655  0.74256849  1
  O  O295  1  0.54937651  0.31307822  0.67075445  1
  O  O296  1  0.16641475  0.38473900  0.72274485  1
  O  O297  1  0.12775446  0.02310619  0.69015277  1
  O  O298  1  0.33802775  0.59250133  0.74202903  1
  O  O299  1  0.96342468  0.81273099  0.66968282  1
  O  O300  1  0.39822486  0.75228021  0.70506093  1
  O  O301  1  0.89910525  0.65408188  0.70616633  1
  O  O302  1  0.75966982  0.10411416  0.67203584  1
  O  O303  1  0.53639271  0.30292763  0.74142683  1
  O  O304  1  0.99614085  0.82695177  0.73038972  1
  O  O305  1  0.30160555  0.57913222  0.68132720  1
  O  O306  1  0.38455397  0.10866734  0.70299480  1
  O  O307  1  0.91202914  0.29795487  0.71038736  1
  O  O308  1  0.04267305  0.98204230  0.79342026  1
  O  O309  1  0.95738183  0.66058358  0.79253316  1
  O  O310  1  0.08860559  0.21542576  0.83003418  1
  O  O311  1  0.89743199  0.43285338  0.75918895  1
  O  O312  1  0.50988697  0.50603809  0.81234876  1
  O  O313  1  0.47506203  0.14397416  0.77804720  1
  O  O314  1  0.69020972  0.70773433  0.82949078  1
  O  O315  1  0.30977259  0.93159921  0.75632224  1
  O  O316  1  0.74890623  0.86923630  0.79299260  1
  O  O317  1  0.24864427  0.77231650  0.79302760  1
  O  O318  1  0.10604727  0.22433523  0.75921842  1
  O  O319  1  0.88481209  0.42517881  0.83097325  1
  O  O320  1  0.34881241  0.94481904  0.81662901  1
  O  O321  1  0.65038571  0.69746849  0.76896343  1
  O  O322  1  0.72865181  0.23314192  0.79061799  1
  O  O323  1  0.26180422  0.41533402  0.79948963  1
  O  O324  1  0.38509862  0.10214173  0.87571394  1
  O  O325  1  0.30964161  0.77722915  0.87653156  1
  O  O326  1  0.46090046  0.33234857  0.92448907  1
  O  O327  1  0.23854593  0.54910840  0.84886681  1
  O  O328  1  0.84384123  0.62637995  0.90500109  1
  O  O329  1  0.82100404  0.26432784  0.86643825  1
  O  O330  1  0.05198370  0.81249319  0.91473327  1
  O  O331  1  0.66464118  0.05421131  0.84249593  1
  O  O332  1  0.08595057  0.98408746  0.87803325  1
  O  O333  1  0.60473073  0.89287885  0.87764208  1
  O  O334  1  0.45448333  0.34458870  0.84911050  1
  O  O335  1  0.22745038  0.53157548  0.92492047  1
  O  O336  1  0.67990770  0.07143051  0.90318598  1
  O  O337  1  0.99877126  0.80896240  0.85497224  1
  O  O338  1  0.07890914  0.34730737  0.87970567  1
  O  O339  1  0.59744228  0.54137532  0.88753571  1
  O  O340  1  0.76241555  0.20625077  0.97164215  1
  O  O341  1  0.65760117  0.88366609  0.95511915  1
  O  O342  1  0.56486160  0.65717016  0.94037984  1
  O  O343  1  0.17719657  0.35406280  0.95640709  1
  O  O344  1  0.38171000  0.88845435  0.98382883  1
  O  O345  1  0.00822118  0.17053341  0.93037247  1
  O  O346  1  0.43774804  0.08771529  0.96746728  1
  O  O347  1  0.93410233  0.99394396  0.95557038  1
  O  O348  1  0.78107450  0.45139749  0.93582416  1
  O  O349  1  0.07723196  0.11294298  0.98978181  1
  O  O350  1  0.35466389  0.94421209  0.92790669  1
  O  O351  1  0.40481603  0.45150027  0.97654370  1
