# generated using pymatgen
data_Li3PO4
_symmetry_space_group_name_H-M   'P 1'
_cell_length_a   7.91303400
_cell_length_b   11.66978227
_cell_length_c   41.54053928
_cell_angle_alpha   90.00000000
_cell_angle_beta   90.00000000
_cell_angle_gamma   74.43479159
_symmetry_Int_Tables_number   1
_chemical_formula_structural   Li3PO4
_chemical_formula_sum   'Li132 P44 O176'
_cell_volume   3695.31151401
_cell_formula_units_Z   44
loop_
 _symmetry_equiv_pos_site_id
 _symmetry_equiv_pos_as_xyz
  1  'x, y, z'
loop_
 _atom_site_type_symbol
 _atom_site_label
 _atom_site_symmetry_multiplicity
 _atom_site_fract_x
 _atom_site_fract_y
 _atom_site_fract_z
 _atom_site_occupancy
  Li  Li0  1  0.27765014  0.65878880  0.04672244  1
  Li  Li1  1  0.52908575  0.26256880  0.98273802  1
  Li  Li2  1  0.84391492  0.23300279  0.02876917  1
  Li  Li3  1  0.89520880  0.54477119  0.02552003  1
  Li  Li4  1  0.09329543  0.87856014  0.04421100  1
  Li  Li5  1  0.31697755  0.47424993  0.98138056  1
  Li  Li6  1  0.94482335  0.56651504  0.13187593  1
  Li  Li7  1  0.04570063  0.92751546  0.10666430  1
  Li  Li8  1  0.17267278  0.46547077  0.07251834  1
  Li  Li9  1  0.16350586  0.13327375  0.07550204  1
  Li  Li10  1  0.47615785  0.07970568  0.12242334  1
  Li  Li11  1  0.50555086  0.41766024  0.11382046  1
  Li  Li12  1  0.69060582  0.96974760  0.07288804  1
  Li  Li13  1  0.62809983  0.62694040  0.08531902  1
  Li  Li14  1  0.28436223  0.68336357  0.10936106  1
  Li  Li15  1  0.69054829  0.81100479  0.13316924  1
  Li  Li16  1  0.90565188  0.37437738  0.07698476  1
  Li  Li17  1  0.43692288  0.23504654  0.07111241  1
  Li  Li18  1  0.60035624  0.44827305  0.21844299  1
  Li  Li19  1  0.69642297  0.80789332  0.19552764  1
  Li  Li20  1  0.83520602  0.35601885  0.15852962  1
  Li  Li21  1  0.81029579  0.02207933  0.16509076  1
  Li  Li22  1  0.13957150  0.96101356  0.20916251  1
  Li  Li23  1  0.15913407  0.29783321  0.20320874  1
  Li  Li24  1  0.36348850  0.86686764  0.15051098  1
  Li  Li25  1  0.27431272  0.50708233  0.17490544  1
  Li  Li26  1  0.93979043  0.56864148  0.19597503  1
  Li  Li27  1  0.35647704  0.68831860  0.21707181  1
  Li  Li28  1  0.56381243  0.26073062  0.16352587  1
  Li  Li29  1  0.08257485  0.11757947  0.15943570  1
  Li  Li30  1  0.25453528  0.32966391  0.30547166  1
  Li  Li31  1  0.35194720  0.68916794  0.28201130  1
  Li  Li32  1  0.48857810  0.23694363  0.24661501  1
  Li  Li33  1  0.46296613  0.90155261  0.25252812  1
  Li  Li34  1  0.79273715  0.84133957  0.29641172  1
  Li  Li35  1  0.81192664  0.17886280  0.29025688  1
  Li  Li36  1  0.02322789  0.74890632  0.23788631  1
  Li  Li37  1  0.92812953  0.38884520  0.26272131  1
  Li  Li38  1  0.59285989  0.45017716  0.28376089  1
  Li  Li39  1  0.01079911  0.56968699  0.30542227  1
  Li  Li40  1  0.21596444  0.14099197  0.25205268  1
  Li  Li41  1  0.73587690  0.99836999  0.24703755  1
  Li  Li42  1  0.89870597  0.20992606  0.39440451  1
  Li  Li43  1  0.00317057  0.56882063  0.37064182  1
  Li  Li44  1  0.14260995  0.11756859  0.33365750  1
  Li  Li45  1  0.11478547  0.78239956  0.33955649  1
  Li  Li46  1  0.44159000  0.72034876  0.38470726  1
  Li  Li47  1  0.46741075  0.05704373  0.37642380  1
  Li  Li48  1  0.67753971  0.62896202  0.32561105  1
  Li  Li49  1  0.58310862  0.27135941  0.34960734  1
  Li  Li50  1  0.24661044  0.33399245  0.36933080  1
  Li  Li51  1  0.66439474  0.44892964  0.39647301  1
  Li  Li52  1  0.86826122  0.02121534  0.33930338  1
  Li  Li53  1  0.39029904  0.87522215  0.33414267  1
  Li  Li54  1  0.71572895  0.48134033  0.47326360  1
  Li  Li55  1  0.78696609  0.99697392  0.42283938  1
  Li  Li56  1  0.76489277  0.67004128  0.43013332  1
  Li  Li57  1  0.10072398  0.60383013  0.46729151  1
  Li  Li58  1  0.11422286  0.90874005  0.46198251  1
  Li  Li59  1  0.33082355  0.50527979  0.41496869  1
  Li  Li60  1  0.23045671  0.16345281  0.42762153  1
  Li  Li61  1  0.81375456  0.25543782  0.45841088  1
  Li  Li62  1  0.51406867  0.90265727  0.42441785  1
  Li  Li63  1  0.04021633  0.75901632  0.42033285  1
  Li  Li64  1  0.47815887  0.90027035  0.49231024  1
  Li  Li65  1  0.24995405  0.78164932  0.52310281  1
  Li  Li66  1  0.59711009  0.91535048  0.54645966  1
  Li  Li67  1  0.34692911  0.31329111  0.48241544  1
  Li  Li68  1  0.03173817  0.34233477  0.52849928  1
  Li  Li69  1  0.97759456  0.02942665  0.52539173  1
  Li  Li70  1  0.78104899  0.69653103  0.54424915  1
  Li  Li71  1  0.55606410  0.10162249  0.48165033  1
  Li  Li72  1  0.92989361  0.00975183  0.63191599  1
  Li  Li73  1  0.83077668  0.64787751  0.60659876  1
  Li  Li74  1  0.70146005  0.11033038  0.57216946  1
  Li  Li75  1  0.71256280  0.44102655  0.57547755  1
  Li  Li76  1  0.39962536  0.49554587  0.62244458  1
  Li  Li77  1  0.36892810  0.15769976  0.61347101  1
  Li  Li78  1  0.18465197  0.60582789  0.57299079  1
  Li  Li79  1  0.24759302  0.94834021  0.58518448  1
  Li  Li80  1  0.59162548  0.89189718  0.60925446  1
  Li  Li81  1  0.18231408  0.76594045  0.63316693  1
  Li  Li82  1  0.97046364  0.19981011  0.57661370  1
  Li  Li83  1  0.43867903  0.34070270  0.57097309  1
  Li  Li84  1  0.27550414  0.12730010  0.71823406  1
  Li  Li85  1  0.17843928  0.76758180  0.69553634  1
  Li  Li86  1  0.04032643  0.21868578  0.65868390  1
  Li  Li87  1  0.06528383  0.55314904  0.66518390  1
  Li  Li88  1  0.73611700  0.61385512  0.70920426  1
  Li  Li89  1  0.71733183  0.27777705  0.70338569  1
  Li  Li90  1  0.51102827  0.70775208  0.65056940  1
  Li  Li91  1  0.60074685  0.06967316  0.67470456  1
  Li  Li92  1  0.93462225  0.00700865  0.69596103  1
  Li  Li93  1  0.51852115  0.88696066  0.71686153  1
  Li  Li94  1  0.31146328  0.31495688  0.66300143  1
  Li  Li95  1  0.79378598  0.45719904  0.65930957  1
  Li  Li96  1  0.61960245  0.24460105  0.80565138  1
  Li  Li97  1  0.52326727  0.88558256  0.78200093  1
  Li  Li98  1  0.38709898  0.33771741  0.74673763  1
  Li  Li99  1  0.41251277  0.67362709  0.75282208  1
  Li  Li100  1  0.08323806  0.73329722  0.79691700  1
  Li  Li101  1  0.06297120  0.39614111  0.79037025  1
  Li  Li102  1  0.85197249  0.82613708  0.73789097  1
  Li  Li103  1  0.94657626  0.18584267  0.76292880  1
  Li  Li104  1  0.28129387  0.12444860  0.78371436  1
  Li  Li105  1  0.86272854  0.00450595  0.80545563  1
  Li  Li106  1  0.66009369  0.43329238  0.75206324  1
  Li  Li107  1  0.14070776  0.57693281  0.74729007  1
  Li  Li108  1  0.97634293  0.36548680  0.89436344  1
  Li  Li109  1  0.86966623  0.00688215  0.87078829  1
  Li  Li110  1  0.73249734  0.45576124  0.83357440  1
  Li  Li111  1  0.75837332  0.79337480  0.83955031  1
  Li  Li112  1  0.43212109  0.85394769  0.88462739  1
  Li  Li113  1  0.40728540  0.51744350  0.87670099  1
  Li  Li114  1  0.19729062  0.94551324  0.82571544  1
  Li  Li115  1  0.29077686  0.30270558  0.84973011  1
  Li  Li116  1  0.62839704  0.24038251  0.86962627  1
  Li  Li117  1  0.21070836  0.12511611  0.89650213  1
  Li  Li118  1  0.00704501  0.55299443  0.83934300  1
  Li  Li119  1  0.48420504  0.69796474  0.83404125  1
  Li  Li120  1  0.15908678  0.09526038  0.97352063  1
  Li  Li121  1  0.08727884  0.57897228  0.92289914  1
  Li  Li122  1  0.11092342  0.90455449  0.93052097  1
  Li  Li123  1  0.77701751  0.97096254  0.96732073  1
  Li  Li124  1  0.76048369  0.66539274  0.96188429  1
  Li  Li125  1  0.54403489  0.06977195  0.91566418  1
  Li  Li126  1  0.64480194  0.41105405  0.92779620  1
  Li  Li127  1  0.06135855  0.31962549  0.95843467  1
  Li  Li128  1  0.36168796  0.67150021  0.92453600  1
  Li  Li129  1  0.83311600  0.81595359  0.92035498  1
  Li  Li130  1  0.39712297  0.67525856  0.99300196  1
  Li  Li131  1  0.62833076  0.79340207  0.02292175  1
  P  P132  1  0.54402727  0.43693164  0.04203842  1
  P  P133  1  0.16081705  0.28830578  0.01931907  1
  P  P134  1  0.91348431  0.72055418  0.07559579  1
  P  P135  1  0.40538980  0.88477441  0.07697521  1
  P  P136  1  0.19323350  0.31746984  0.13151136  1
  P  P137  1  0.79730984  0.17371002  0.10437572  1
  P  P138  1  0.58037346  0.60286221  0.16043255  1
  P  P139  1  0.05850120  0.77318524  0.16599876  1
  P  P140  1  0.84811053  0.20071369  0.21852734  1
  P  P141  1  0.44903374  0.05799670  0.19329749  1
  P  P142  1  0.23637945  0.48445817  0.24760485  1
  P  P143  1  0.71492220  0.65344938  0.25340084  1
  P  P144  1  0.50208188  0.08020728  0.30597281  1
  P  P145  1  0.10214674  0.93847693  0.28060156  1
  P  P146  1  0.88932066  0.36581158  0.33562788  1
  P  P147  1  0.36837364  0.53510442  0.34116127  1
  P  P148  1  0.15002312  0.96189146  0.39244385  1
  P  P149  1  0.75384016  0.81788115  0.36848660  1
  P  P150  1  0.53246357  0.24122968  0.42066823  1
  P  P151  1  0.02669038  0.41517268  0.43156362  1
  P  P152  1  0.80232313  0.85843723  0.48112262  1
  P  P153  1  0.40809589  0.69934827  0.45633867  1
  P  P154  1  0.33138982  0.13833947  0.54178341  1
  P  P155  1  0.71436639  0.28746771  0.51913702  1
  P  P156  1  0.96156914  0.85480296  0.57540527  1
  P  P157  1  0.46985224  0.68999471  0.57710285  1
  P  P158  1  0.68225528  0.25780151  0.63135443  1
  P  P159  1  0.07812448  0.40114789  0.60429105  1
  P  P160  1  0.29487127  0.97283707  0.66027925  1
  P  P161  1  0.81633738  0.80224560  0.66596323  1
  P  P162  1  0.02767837  0.37443812  0.71855393  1
  P  P163  1  0.42645201  0.51721122  0.69337537  1
  P  P164  1  0.63854854  0.09060017  0.74762922  1
  P  P165  1  0.15995254  0.92168864  0.75331177  1
  P  P166  1  0.37328032  0.49404687  0.80614395  1
  P  P167  1  0.77301334  0.63609463  0.78063085  1
  P  P168  1  0.98516972  0.20852548  0.83576294  1
  P  P169  1  0.50559139  0.03964901  0.84134364  1
  P  P170  1  0.72467903  0.61278323  0.89231693  1
  P  P171  1  0.11997739  0.75709006  0.86866031  1
  P  P172  1  0.34168511  0.33391181  0.92080481  1
  P  P173  1  0.84847614  0.15988509  0.93175547  1
  P  P174  1  0.07267024  0.71616302  0.98124577  1
  P  P175  1  0.46653376  0.87534621  0.95650561  1
  O  O176  1  0.43081014  0.53823775  0.02005463  1
  O  O177  1  0.27911958  0.19803051  0.04192042  1
  O  O178  1  0.03387161  0.22836160  0.00040096  1
  O  O179  1  0.81480422  0.69335962  0.04601039  1
  O  O180  1  0.04831229  0.39655494  0.03916166  1
  O  O181  1  0.61857320  0.32469447  0.02141349  1
  O  O182  1  0.52200746  0.91608518  0.05064395  1
  O  O183  1  0.26163701  0.33331340  0.99253785  1
  O  O184  1  0.10698069  0.64102282  0.07705782  1
  O  O185  1  0.21051281  0.95946290  0.07382280  1
  O  O186  1  0.06565872  0.41481181  0.11076790  1
  O  O187  1  0.92140710  0.07782084  0.12608704  1
  O  O188  1  0.64765400  0.12258272  0.09112249  1
  O  O189  1  0.69133065  0.48142445  0.05835396  1
  O  O190  1  0.47847327  0.91239003  0.11052956  1
  O  O191  1  0.50733815  0.57895463  0.12699949  1
  O  O192  1  0.40612119  0.75060794  0.07429142  1
  O  O193  1  0.91566081  0.85470540  0.07518534  1
  O  O194  1  0.71507962  0.28676060  0.12491438  1
  O  O195  1  0.27543938  0.20619977  0.11072640  1
  O  O196  1  0.81417840  0.69208170  0.10551861  1
  O  O197  1  0.16440090  0.81090452  0.13808877  1
  O  O198  1  0.42396637  0.40914512  0.06948524  1
  O  O199  1  0.90294394  0.20534238  0.07554579  1
  O  O200  1  0.77594079  0.52965240  0.16356770  1
  O  O201  1  0.86329588  0.84808167  0.16391697  1
  O  O202  1  0.72462795  0.29842659  0.19731529  1
  O  O203  1  0.57154351  0.95958456  0.21442193  1
  O  O204  1  0.30325094  0.00847056  0.17784960  1
  O  O205  1  0.34077414  0.36861970  0.14575824  1
  O  O206  1  0.13738812  0.79829848  0.19883998  1
  O  O207  1  0.16160281  0.45954430  0.21440033  1
  O  O208  1  0.07184689  0.63827695  0.16316313  1
  O  O209  1  0.56411746  0.73812695  0.16460136  1
  O  O210  1  0.36395782  0.16796428  0.21454745  1
  O  O211  1  0.93404985  0.09037749  0.19743403  1
  O  O212  1  0.47213607  0.56304944  0.18761392  1
  O  O213  1  0.82380578  0.69133592  0.22605307  1
  O  O214  1  0.08573102  0.28303815  0.15969791  1
  O  O215  1  0.55900698  0.09434458  0.16582356  1
  O  O216  1  0.43153264  0.41006259  0.25064817  1
  O  O217  1  0.51990814  0.72799807  0.25038900  1
  O  O218  1  0.37808338  0.17912711  0.28520164  1
  O  O219  1  0.22493039  0.83953808  0.30156331  1
  O  O220  1  0.95582666  0.88911655  0.26539248  1
  O  O221  1  0.99312203  0.25070637  0.23412101  1
  O  O222  1  0.79010820  0.67832963  0.28660680  1
  O  O223  1  0.81136489  0.34095334  0.30262956  1
  O  O224  1  0.72609178  0.51886238  0.25034535  1
  O  O225  1  0.22466873  0.61916064  0.25071392  1
  O  O226  1  0.01705100  0.04848647  0.30185143  1
  O  O227  1  0.58810471  0.97074667  0.28463703  1
  O  O228  1  0.12714329  0.44682062  0.27499565  1
  O  O229  1  0.47559285  0.57508219  0.31384574  1
  O  O230  1  0.73855674  0.16412602  0.24605325  1
  O  O231  1  0.21219725  0.97519444  0.25326618  1
  O  O232  1  0.08473985  0.29098544  0.33773158  1
  O  O233  1  0.17258304  0.60911166  0.33861483  1
  O  O234  1  0.02881343  0.06235209  0.37194198  1
  O  O235  1  0.87497948  0.71974842  0.39003944  1
  O  O236  1  0.60785531  0.76838227  0.35334101  1
  O  O237  1  0.64728081  0.12997658  0.32155170  1
  O  O238  1  0.44327519  0.55711437  0.37461625  1
  O  O239  1  0.45850786  0.21985388  0.38687071  1
  O  O240  1  0.38036631  0.40075321  0.33698526  1
  O  O241  1  0.87924206  0.50033096  0.33844831  1
  O  O242  1  0.66860576  0.92869036  0.38948223  1
  O  O243  1  0.23807357  0.85222711  0.37148065  1
  O  O244  1  0.78238025  0.32927992  0.36356143  1
  O  O245  1  0.12516876  0.44705129  0.40151546  1
  O  O246  1  0.39243131  0.04160204  0.33312282  1
  O  O247  1  0.86451117  0.85399812  0.34114959  1
  O  O248  1  0.72789718  0.16597457  0.42355443  1
  O  O249  1  0.83330990  0.49581544  0.43142681  1
  O  O250  1  0.64320963  0.93466298  0.46082190  1
  O  O251  1  0.52327919  0.60274916  0.47688160  1
  O  O252  1  0.25557557  0.65781972  0.44004035  1
  O  O253  1  0.29412565  0.01117947  0.40865973  1
  O  O254  1  0.12308151  0.43909329  0.46236205  1
  O  O255  1  0.01731794  0.28279271  0.42934925  1
  O  O256  1  0.52964931  0.37304173  0.42521085  1
  O  O257  1  0.32245129  0.81137942  0.47833930  1
  O  O258  1  0.90378830  0.74665915  0.46162144  1
  O  O259  1  0.41871837  0.19869460  0.44617196  1
  O  O260  1  0.03887651  0.92403038  0.41934819  1
  O  O261  1  0.51304999  0.74011071  0.42861687  1
  O  O262  1  0.91904994  0.94245424  0.48780853  1
  O  O263  1  0.72089974  0.81680249  0.51163739  1
  O  O264  1  0.44504604  0.03672446  0.51992143  1
  O  O265  1  0.59657816  0.37734024  0.54189168  1
  O  O266  1  0.84092982  0.34770501  0.50023581  1
  O  O267  1  0.06173749  0.88132329  0.54593891  1
  O  O268  1  0.82698818  0.17878679  0.53881961  1
  O  O269  1  0.25646868  0.24992244  0.52094541  1
  O  O270  1  0.35403213  0.65840668  0.55068004  1
  O  O271  1  0.61316905  0.24272276  0.49235179  1
  O  O272  1  0.76802947  0.93431873  0.57656196  1
  O  O273  1  0.66478704  0.61531238  0.57409170  1
  O  O274  1  0.80943836  0.16054916  0.61050987  1
  O  O275  1  0.95428018  0.49706709  0.62604248  1
  O  O276  1  0.22766603  0.45237856  0.59102694  1
  O  O277  1  0.18467881  0.09354286  0.55820792  1
  O  O278  1  0.39542933  0.66284189  0.61057632  1
  O  O279  1  0.36767031  0.99651159  0.62679788  1
  O  O280  1  0.46926731  0.82415386  0.57430585  1
  O  O281  1  0.95930760  0.72063837  0.57508652  1
  O  O282  1  0.16027372  0.28815558  0.62486098  1
  O  O283  1  0.60020647  0.36938375  0.61068998  1
  O  O284  1  0.05949695  0.88396450  0.60542714  1
  O  O285  1  0.71060764  0.76441571  0.63803208  1
  O  O286  1  0.45094160  0.16699967  0.56918339  1
  O  O287  1  0.97265462  0.36932039  0.57546811  1
  O  O288  1  0.09925608  0.04598310  0.66348388  1
  O  O289  1  0.01160098  0.72734918  0.66386700  1
  O  O290  1  0.15103267  0.27691442  0.69725904  1
  O  O291  1  0.30399356  0.61579202  0.71448338  1
  O  O292  1  0.57241737  0.56650911  0.67789993  1
  O  O293  1  0.53441648  0.20678194  0.64549186  1
  O  O294  1  0.73764000  0.77697028  0.69881029  1
  O  O295  1  0.71331060  0.11608779  0.71446856  1
  O  O296  1  0.80309221  0.93720713  0.66315386  1
  O  O297  1  0.31069399  0.83769290  0.66454000  1
  O  O298  1  0.51132130  0.40718441  0.71461847  1
  O  O299  1  0.94143777  0.48474722  0.69748632  1
  O  O300  1  0.40347941  0.01278651  0.68737466  1
  O  O301  1  0.05086232  0.88402006  0.72596242  1
  O  O302  1  0.78984925  0.29160207  0.65963146  1
  O  O303  1  0.31647133  0.48099917  0.66587129  1
  O  O304  1  0.44332517  0.16479205  0.75067144  1
  O  O305  1  0.35498291  0.84714942  0.75024072  1
  O  O306  1  0.49738946  0.39552117  0.78529893  1
  O  O307  1  0.64940764  0.73489950  0.80153373  1
  O  O308  1  0.91947347  0.68575364  0.76557935  1
  O  O309  1  0.88281560  0.32420758  0.73417231  1
  O  O310  1  0.08493973  0.89651758  0.78651927  1
  O  O311  1  0.06307809  0.23376647  0.80280199  1
  O  O312  1  0.14880874  0.05631687  0.75029842  1
  O  O313  1  0.65048642  0.95586483  0.75069524  1
  O  O314  1  0.85770234  0.52599647  0.80189720  1
  O  O315  1  0.28780893  0.60411533  0.78494680  1
  O  O316  1  0.74734408  0.12811771  0.77511546  1
  O  O317  1  0.39874963  0.99964028  0.81396992  1
  O  O318  1  0.13705782  0.41091479  0.74612997  1
  O  O319  1  0.66344142  0.59931101  0.75323184  1
  O  O320  1  0.78966752  0.28312088  0.83790949  1
  O  O321  1  0.70152211  0.96589016  0.83874468  1
  O  O322  1  0.84636131  0.51232618  0.87189645  1
  O  O323  1  0.99917086  0.85529063  0.89021546  1
  O  O324  1  0.26607311  0.80619873  0.85338101  1
  O  O325  1  0.22759807  0.44436668  0.82155373  1
  O  O326  1  0.43106081  0.01743702  0.87480990  1
  O  O327  1  0.41548903  0.35457964  0.88695698  1
  O  O328  1  0.49360084  0.17398744  0.83720414  1
  O  O329  1  0.99520976  0.07403163  0.83852365  1
  O  O330  1  0.20579188  0.64621026  0.88961155  1
  O  O331  1  0.63607046  0.72229723  0.87136233  1
  O  O332  1  0.09195364  0.24498488  0.86373083  1
  O  O333  1  0.74926357  0.12780060  0.90182846  1
  O  O334  1  0.48265672  0.53207014  0.83341859  1
  O  O335  1  0.00904800  0.72081550  0.84138025  1
  O  O336  1  0.14651692  0.40973299  0.92368952  1
  O  O337  1  0.04164185  0.07916239  0.93162822  1
  O  O338  1  0.23219870  0.64026803  0.96100251  1
  O  O339  1  0.34916301  0.97140424  0.97690818  1
  O  O340  1  0.61895440  0.91780332  0.94046309  1
  O  O341  1  0.58102834  0.56310580  0.90859233  1
  O  O342  1  0.75233654  0.13632690  0.96263191  1
  O  O343  1  0.85804730  0.29217384  0.92940473  1
  O  O344  1  0.34377780  0.20223152  0.92549127  1
  O  O345  1  0.55294873  0.76342118  0.97849458  1
  O  O346  1  0.97152358  0.82804454  0.96174629  1
  O  O347  1  0.45600587  0.37639191  0.94621839  1
  O  O348  1  0.83527496  0.65119370  0.91923662  1
  O  O349  1  0.36301640  0.83400776  0.92865253  1
  O  O350  1  0.95569584  0.63212811  0.98774979  1
  O  O351  1  0.15338600  0.75758832  0.01187227  1
