# generated using pymatgen
data_Li3PO4
_symmetry_space_group_name_H-M   'P 1'
_cell_length_a   7.91303400
_cell_length_b   11.66978227
_cell_length_c   41.53710650
_cell_angle_alpha   90.00000000
_cell_angle_beta   90.00000000
_cell_angle_gamma   74.43479159
_symmetry_Int_Tables_number   1
_chemical_formula_structural   Li3PO4
_chemical_formula_sum   'Li132 P44 O176'
_cell_volume   3695.00614566
_cell_formula_units_Z   44
loop_
 _symmetry_equiv_pos_site_id
 _symmetry_equiv_pos_as_xyz
  1  'x, y, z'
loop_
 _atom_site_type_symbol
 _atom_site_label
 _atom_site_symmetry_multiplicity
 _atom_site_fract_x
 _atom_site_fract_y
 _atom_site_fract_z
 _atom_site_occupancy
  Li  Li0  1  0.34052402  0.68461519  0.04646070  1
  Li  Li1  1  0.59029285  0.28655259  0.98248823  1
  Li  Li2  1  0.90575113  0.25763464  0.02849728  1
  Li  Li3  1  0.95999592  0.57024056  0.02543256  1
  Li  Li4  1  0.75354737  0.99413897  0.07299498  1
  Li  Li5  1  0.15816732  0.90340724  0.04422691  1
  Li  Li6  1  0.38137549  0.49837099  0.98166170  1
  Li  Li7  1  0.00904849  0.59112898  0.13204048  1
  Li  Li8  1  0.10803771  0.95226636  0.10654920  1
  Li  Li9  1  0.23627611  0.48971657  0.07218476  1
  Li  Li10  1  0.22592469  0.15863764  0.07523147  1
  Li  Li11  1  0.53822536  0.10450732  0.12238094  1
  Li  Li12  1  0.56903972  0.44234659  0.11348061  1
  Li  Li13  1  0.42735544  0.89164049  0.15037018  1
  Li  Li14  1  0.69102588  0.65147448  0.08529892  1
  Li  Li15  1  0.34706058  0.70775233  0.10923918  1
  Li  Li16  1  0.75689451  0.83424087  0.13323280  1
  Li  Li17  1  0.96715559  0.40009435  0.07663735  1
  Li  Li18  1  0.49896371  0.25937815  0.07097324  1
  Li  Li19  1  0.66365781  0.47321350  0.21829929  1
  Li  Li20  1  0.75973024  0.83231500  0.19563111  1
  Li  Li21  1  0.89748730  0.38183088  0.15864434  1
  Li  Li22  1  0.87330815  0.04674228  0.16514386  1
  Li  Li23  1  0.20256571  0.98656050  0.20884490  1
  Li  Li24  1  0.22087269  0.32244473  0.20325456  1
  Li  Li25  1  0.08717848  0.77383843  0.23785891  1
  Li  Li26  1  0.33786407  0.53036796  0.17476313  1
  Li  Li27  1  0.00422992  0.59286685  0.19613194  1
  Li  Li28  1  0.41975188  0.71311358  0.21691808  1
  Li  Li29  1  0.62655854  0.28499664  0.16300470  1
  Li  Li30  1  0.14549203  0.14288328  0.15887800  1
  Li  Li31  1  0.31897082  0.35511263  0.30568671  1
  Li  Li32  1  0.41671904  0.71417470  0.28219105  1
  Li  Li33  1  0.55232649  0.26188073  0.24643153  1
  Li  Li34  1  0.52602443  0.92686017  0.25267801  1
  Li  Li35  1  0.85526623  0.86731025  0.29687541  1
  Li  Li36  1  0.87529878  0.20379233  0.29030644  1
  Li  Li37  1  0.74256078  0.65513381  0.32573135  1
  Li  Li38  1  0.99172268  0.41414524  0.26282641  1
  Li  Li39  1  0.65683344  0.47557461  0.28373508  1
  Li  Li40  1  0.07599895  0.59537228  0.30536768  1
  Li  Li41  1  0.27795992  0.16676262  0.25202810  1
  Li  Li42  1  0.79870698  0.02303019  0.24732308  1
  Li  Li43  1  0.96321186  0.23561367  0.39428211  1
  Li  Li44  1  0.06942348  0.59339288  0.37069310  1
  Li  Li45  1  0.20576964  0.14426249  0.33355071  1
  Li  Li46  1  0.18089739  0.80657548  0.33956895  1
  Li  Li47  1  0.50714507  0.74581061  0.38480732  1
  Li  Li48  1  0.53149520  0.08257574  0.37661856  1
  Li  Li49  1  0.39531810  0.53122926  0.41538030  1
  Li  Li50  1  0.64736107  0.29738218  0.34973548  1
  Li  Li51  1  0.31029584  0.36000461  0.36951054  1
  Li  Li52  1  0.72757714  0.47489935  0.39658538  1
  Li  Li53  1  0.93173732  0.04714234  0.33936114  1
  Li  Li54  1  0.45408918  0.90199117  0.33409949  1
  Li  Li55  1  0.77985272  0.50392760  0.47334121  1
  Li  Li56  1  0.85124141  0.02262903  0.42281351  1
  Li  Li57  1  0.82918521  0.69470675  0.43057069  1
  Li  Li58  1  0.16303452  0.62947096  0.46719119  1
  Li  Li59  1  0.17793127  0.93377612  0.46199491  1
  Li  Li60  1  0.29348504  0.18902928  0.42787032  1
  Li  Li61  1  0.87758270  0.27982302  0.45847509  1
  Li  Li62  1  0.57693293  0.92847776  0.42457278  1
  Li  Li63  1  0.10481219  0.78464208  0.42035907  1
  Li  Li64  1  0.54132836  0.92482127  0.49303434  1
  Li  Li65  1  0.30917765  0.80732977  0.52300081  1
  Li  Li66  1  0.65936702  0.94098841  0.54673779  1
  Li  Li67  1  0.40996228  0.33823222  0.48258224  1
  Li  Li68  1  0.09385357  0.36707836  0.52876730  1
  Li  Li69  1  0.04259818  0.05532340  0.52557633  1
  Li  Li70  1  0.24556544  0.63155585  0.57320533  1
  Li  Li71  1  0.84338518  0.72129960  0.54422350  1
  Li  Li72  1  0.62047447  0.12584719  0.48138058  1
  Li  Li73  1  0.98996868  0.03421654  0.63211133  1
  Li  Li74  1  0.89108881  0.67243674  0.60671054  1
  Li  Li75  1  0.76278354  0.13468162  0.57252097  1
  Li  Li76  1  0.77366726  0.46670467  0.57548176  1
  Li  Li77  1  0.46046841  0.52042262  0.62241645  1
  Li  Li78  1  0.43020673  0.18197450  0.61383542  1
  Li  Li79  1  0.57291425  0.73293200  0.65040039  1
  Li  Li80  1  0.30652444  0.97326887  0.58497475  1
  Li  Li81  1  0.65156919  0.91647302  0.60929877  1
  Li  Li82  1  0.24413401  0.78952669  0.63327641  1
  Li  Li83  1  0.03053644  0.22540267  0.57690468  1
  Li  Li84  1  0.50015605  0.36508018  0.57111832  1
  Li  Li85  1  0.33565534  0.15165555  0.71846186  1
  Li  Li86  1  0.24020854  0.79181933  0.69564415  1
  Li  Li87  1  0.10185609  0.24400901  0.65854722  1
  Li  Li88  1  0.12633950  0.57780383  0.66511345  1
  Li  Li89  1  0.79691478  0.63868045  0.70915960  1
  Li  Li90  1  0.77783194  0.30180483  0.70327349  1
  Li  Li91  1  0.91265097  0.85028241  0.73781114  1
  Li  Li92  1  0.66126573  0.09297510  0.67495021  1
  Li  Li93  1  0.99697944  0.03132596  0.69602539  1
  Li  Li94  1  0.57879876  0.91125322  0.71717147  1
  Li  Li95  1  0.37319005  0.33922604  0.66347640  1
  Li  Li96  1  0.85420778  0.48228770  0.65947860  1
  Li  Li97  1  0.68140019  0.27060804  0.80554840  1
  Li  Li98  1  0.58314731  0.91089178  0.78205183  1
  Li  Li99  1  0.44841139  0.36288010  0.74658218  1
  Li  Li100  1  0.47268458  0.69866942  0.75262399  1
  Li  Li101  1  0.14417186  0.75861482  0.79641252  1
  Li  Li102  1  0.12451022  0.42190538  0.79026729  1
  Li  Li103  1  0.25871345  0.97086075  0.82563389  1
  Li  Li104  1  0.00689120  0.21168547  0.76301837  1
  Li  Li105  1  0.34316057  0.15026160  0.78377663  1
  Li  Li106  1  0.92431412  0.03018874  0.80525267  1
  Li  Li107  1  0.72089053  0.45916160  0.75205896  1
  Li  Li108  1  0.20110485  0.60164334  0.74709285  1
  Li  Li109  1  0.03794216  0.38945302  0.89449224  1
  Li  Li110  1  0.93272280  0.03156661  0.87049923  1
  Li  Li111  1  0.79450291  0.48210130  0.83374830  1
  Li  Li112  1  0.82117448  0.81779400  0.83938100  1
  Li  Li113  1  0.49488743  0.87877140  0.88484535  1
  Li  Li114  1  0.46859454  0.54314929  0.87639566  1
  Li  Li115  1  0.60625165  0.09462417  0.91500885  1
  Li  Li116  1  0.35378456  0.32860845  0.84968375  1
  Li  Li117  1  0.69015593  0.26582821  0.86929623  1
  Li  Li118  1  0.27282692  0.15015144  0.89651047  1
  Li  Li119  1  0.06857442  0.57882747  0.83932837  1
  Li  Li120  1  0.54658496  0.72434438  0.83418612  1
  Li  Li121  1  0.22147783  0.11834440  0.97332862  1
  Li  Li122  1  0.14994731  0.60286392  0.92284736  1
  Li  Li123  1  0.17222374  0.92981024  0.93018485  1
  Li  Li124  1  0.83619428  0.99604651  0.96729968  1
  Li  Li125  1  0.82348968  0.69031140  0.96199775  1
  Li  Li126  1  0.70525208  0.43515588  0.92711479  1
  Li  Li127  1  0.12336074  0.34452690  0.95843692  1
  Li  Li128  1  0.42245717  0.69697879  0.92433720  1
  Li  Li129  1  0.89666772  0.84080741  0.92035818  1
  Li  Li130  1  0.45924035  0.69967784  0.99229743  1
  Li  Li131  1  0.68896306  0.81749470  0.02307126  1
  P  P132  1  0.60627449  0.46175062  0.04177196  1
  P  P133  1  0.22322373  0.31250578  0.01914785  1
  P  P134  1  0.97697623  0.74524121  0.07547528  1
  P  P135  1  0.46876639  0.90981988  0.07700889  1
  P  P136  1  0.25557188  0.34245338  0.13131036  1
  P  P137  1  0.85980622  0.19882936  0.10423648  1
  P  P138  1  0.64402165  0.62736633  0.16034954  1
  P  P139  1  0.12249587  0.79771157  0.16599267  1
  P  P140  1  0.91097284  0.22561221  0.21843307  1
  P  P141  1  0.51205950  0.08272890  0.19324862  1
  P  P142  1  0.30050383  0.50919932  0.24766387  1
  P  P143  1  0.77882616  0.67855554  0.25338090  1
  P  P144  1  0.56536074  0.10601874  0.30609041  1
  P  P145  1  0.16573413  0.96385373  0.28056729  1
  P  P146  1  0.95325718  0.39166894  0.33572275  1
  P  P147  1  0.43344384  0.56045348  0.34133612  1
  P  P148  1  0.21389341  0.98735429  0.39236750  1
  P  P149  1  0.81849277  0.84320474  0.36869322  1
  P  P150  1  0.59648836  0.26653236  0.42074886  1
  P  P151  1  0.09039004  0.44041592  0.43168736  1
  P  P152  1  0.86574918  0.88374431  0.48127600  1
  P  P153  1  0.47243196  0.72450183  0.45656034  1
  P  P154  1  0.39290416  0.16326431  0.54191506  1
  P  P155  1  0.77663565  0.31153858  0.51930638  1
  P  P156  1  0.02246891  0.87984861  0.57574476  1
  P  P157  1  0.53058101  0.71527724  0.57693020  1
  P  P158  1  0.74324254  0.28254466  0.63152091  1
  P  P159  1  0.13933014  0.42632211  0.60438522  1
  P  P160  1  0.35517012  0.99701368  0.66042921  1
  P  P161  1  0.87731665  0.82678102  0.66607133  1
  P  P162  1  0.08863290  0.39919032  0.71857031  1
  P  P163  1  0.48762821  0.54195965  0.69332010  1
  P  P164  1  0.69956369  0.11541645  0.74763014  1
  P  P165  1  0.22057960  0.94664308  0.75343055  1
  P  P166  1  0.43450838  0.51972385  0.80603374  1
  P  P167  1  0.83401914  0.66159365  0.78059992  1
  P  P168  1  0.04715103  0.23411446  0.83566507  1
  P  P169  1  0.56759170  0.06483938  0.84120425  1
  P  P170  1  0.78674096  0.63773929  0.89244366  1
  P  P171  1  0.18236446  0.78222996  0.86847506  1
  P  P172  1  0.40415045  0.35845462  0.92069910  1
  P  P173  1  0.91029486  0.18460892  0.93159775  1
  P  P174  1  0.13483910  0.74132039  0.98115349  1
  P  P175  1  0.52899531  0.90026146  0.95637463  1
  O  O176  1  0.49247731  0.56328794  0.01991264  1
  O  O177  1  0.34158948  0.22255573  0.04181665  1
  O  O178  1  0.09666751  0.25217637  0.00027552  1
  O  O179  1  0.75316186  0.50650821  0.05815047  1
  O  O180  1  0.87691910  0.71835334  0.04604213  1
  O  O181  1  0.11076975  0.42104885  0.03889352  1
  O  O182  1  0.68098826  0.35008116  0.02095453  1
  O  O183  1  0.58463919  0.94122056  0.05055746  1
  O  O184  1  0.32396464  0.35747110  0.99234435  1
  O  O185  1  0.17051095  0.66571097  0.07668747  1
  O  O186  1  0.27389279  0.98467765  0.07401293  1
  O  O187  1  0.12834757  0.43970813  0.11049047  1
  O  O188  1  0.98380120  0.10280042  0.12593875  1
  O  O189  1  0.71001876  0.14775271  0.09100466  1
  O  O190  1  0.40353573  0.39335579  0.14545775  1
  O  O191  1  0.54316351  0.93702528  0.11047699  1
  O  O192  1  0.57147802  0.60347614  0.12685627  1
  O  O193  1  0.46895780  0.77572712  0.07424786  1
  O  O194  1  0.97919213  0.87940268  0.07510151  1
  O  O195  1  0.77798648  0.31184266  0.12482419  1
  O  O196  1  0.33747495  0.23076934  0.11065393  1
  O  O197  1  0.87895193  0.71623804  0.10550473  1
  O  O198  1  0.22786455  0.83543645  0.13798671  1
  O  O199  1  0.48690070  0.43316818  0.06921628  1
  O  O200  1  0.96525434  0.23052622  0.07538976  1
  O  O201  1  0.83964360  0.55437968  0.16360927  1
  O  O202  1  0.92726507  0.87258912  0.16396624  1
  O  O203  1  0.78697522  0.32324315  0.19726110  1
  O  O204  1  0.63450212  0.98430189  0.21440694  1
  O  O205  1  0.36636322  0.03337371  0.17767354  1
  O  O206  1  0.05560698  0.27600068  0.23406229  1
  O  O207  1  0.20149607  0.82302807  0.19879921  1
  O  O208  1  0.22578996  0.48383625  0.21447862  1
  O  O209  1  0.13579809  0.66276106  0.16322514  1
  O  O210  1  0.62789390  0.76256003  0.16455150  1
  O  O211  1  0.42685000  0.19269286  0.21449663  1
  O  O212  1  0.99731214  0.11556975  0.19729025  1
  O  O213  1  0.53528557  0.58743768  0.18742918  1
  O  O214  1  0.88802963  0.71609151  0.22602693  1
  O  O215  1  0.14803750  0.30861378  0.15958548  1
  O  O216  1  0.62220770  0.11894862  0.16577093  1
  O  O217  1  0.49574738  0.43504808  0.25069982  1
  O  O218  1  0.58380212  0.75301719  0.25027405  1
  O  O219  1  0.44134923  0.20454983  0.28523335  1
  O  O220  1  0.28941123  0.86513934  0.30149480  1
  O  O221  1  0.01921325  0.91412368  0.26556675  1
  O  O222  1  0.71100575  0.15563137  0.32155041  1
  O  O223  1  0.85381083  0.70382293  0.28658001  1
  O  O224  1  0.87550845  0.36619425  0.30276403  1
  O  O225  1  0.78997998  0.54392817  0.25037978  1
  O  O226  1  0.28853976  0.64392992  0.25080001  1
  O  O227  1  0.08103303  0.07398562  0.30184255  1
  O  O228  1  0.65097228  0.99602124  0.28488320  1
  O  O229  1  0.19144213  0.47160133  0.27509404  1
  O  O230  1  0.54069573  0.60048049  0.31403637  1
  O  O231  1  0.80201828  0.18870203  0.24601528  1
  O  O232  1  0.27494025  0.00064681  0.25310088  1
  O  O233  1  0.14867642  0.31685154  0.33795272  1
  O  O234  1  0.23753325  0.63417036  0.33869387  1
  O  O235  1  0.09227089  0.08771579  0.37189727  1
  O  O236  1  0.93942334  0.74485952  0.39020214  1
  O  O237  1  0.67231499  0.79408523  0.35344781  1
  O  O238  1  0.35767107  0.03701646  0.40858137  1
  O  O239  1  0.50774407  0.58262262  0.37483094  1
  O  O240  1  0.52300729  0.24563567  0.38688920  1
  O  O241  1  0.44525170  0.42614571  0.33716504  1
  O  O242  1  0.94375020  0.52610447  0.33843006  1
  O  O243  1  0.73277063  0.95403085  0.38966651  1
  O  O244  1  0.30241613  0.87757497  0.37148740  1
  O  O245  1  0.84615802  0.35557199  0.36370537  1
  O  O246  1  0.18942925  0.47266274  0.40175907  1
  O  O247  1  0.45583974  0.06797628  0.33334750  1
  O  O248  1  0.92942751  0.87944259  0.34140491  1
  O  O249  1  0.79192608  0.19119833  0.42364880  1
  O  O250  1  0.89699015  0.52078238  0.43152521  1
  O  O251  1  0.70652729  0.96004715  0.46104484  1
  O  O252  1  0.58886440  0.62775490  0.47689763  1
  O  O253  1  0.31976160  0.68292809  0.44029855  1
  O  O254  1  0.98320709  0.96736680  0.48790631  1
  O  O255  1  0.18622372  0.46419887  0.46257403  1
  O  O256  1  0.08099530  0.30805457  0.42936799  1
  O  O257  1  0.59373581  0.39831014  0.42546446  1
  O  O258  1  0.38604146  0.83627660  0.47861108  1
  O  O259  1  0.96710908  0.77189968  0.46176952  1
  O  O260  1  0.48246242  0.22373086  0.44614975  1
  O  O261  1  0.10313699  0.94940789  0.41934552  1
  O  O262  1  0.57663823  0.76584215  0.42881791  1
  O  O263  1  0.78452355  0.84228128  0.51185439  1
  O  O264  1  0.50691706  0.06180485  0.52007022  1
  O  O265  1  0.65832924  0.40186149  0.54189866  1
  O  O266  1  0.90423432  0.37116823  0.50045668  1
  O  O267  1  0.24485010  0.11884488  0.55800675  1
  O  O268  1  0.12243867  0.90700262  0.54630912  1
  O  O269  1  0.88808153  0.20303061  0.53917146  1
  O  O270  1  0.31934221  0.27541618  0.52120838  1
  O  O271  1  0.41451552  0.68369004  0.55053956  1
  O  O272  1  0.67613717  0.26687062  0.49241278  1
  O  O273  1  0.82889896  0.95916497  0.57704970  1
  O  O274  1  0.72557964  0.64064118  0.57394877  1
  O  O275  1  0.87067781  0.18533601  0.61072606  1
  O  O276  1  0.01492473  0.52208469  0.62609782  1
  O  O277  1  0.28874601  0.47774596  0.59116861  1
  O  O278  1  0.59581687  0.23124068  0.64575405  1
  O  O279  1  0.45642854  0.68799852  0.61043365  1
  O  O280  1  0.42799303  0.02092375  0.62697710  1
  O  O281  1  0.52976906  0.84945323  0.57418653  1
  O  O282  1  0.02044161  0.74567041  0.57528935  1
  O  O283  1  0.22150373  0.31331872  0.62495089  1
  O  O284  1  0.66093839  0.39387860  0.61076093  1
  O  O285  1  0.12075959  0.90858685  0.60575974  1
  O  O286  1  0.77182947  0.78913094  0.63807185  1
  O  O287  1  0.51181862  0.19109064  0.56954820  1
  O  O288  1  0.03400455  0.39450062  0.57553213  1
  O  O289  1  0.15970043  0.07038102  0.66361719  1
  O  O290  1  0.07250879  0.75178834  0.66407060  1
  O  O291  1  0.21221082  0.30153023  0.69735725  1
  O  O292  1  0.36511597  0.64032246  0.71447079  1
  O  O293  1  0.63328446  0.59149840  0.67782914  1
  O  O294  1  0.94360032  0.34924453  0.73418492  1
  O  O295  1  0.79802436  0.80153888  0.69886531  1
  O  O296  1  0.77441288  0.14037275  0.71444113  1
  O  O297  1  0.86396467  0.96168660  0.66330409  1
  O  O298  1  0.37158332  0.86175062  0.66463210  1
  O  O299  1  0.57287869  0.43200684  0.71456352  1
  O  O300  1  0.00251819  0.50944172  0.69745997  1
  O  O301  1  0.46349396  0.03685110  0.68759716  1
  O  O302  1  0.11196807  0.90837176  0.72609947  1
  O  O303  1  0.85089314  0.31680546  0.65971711  1
  O  O304  1  0.37749333  0.50564443  0.66586548  1
  O  O305  1  0.50435818  0.18977389  0.75066145  1
  O  O306  1  0.41566957  0.87216401  0.75040887  1
  O  O307  1  0.55829201  0.42084221  0.78523276  1
  O  O308  1  0.71111600  0.76058380  0.80152768  1
  O  O309  1  0.98057783  0.71075604  0.76541337  1
  O  O310  1  0.28919073  0.47010142  0.82162533  1
  O  O311  1  0.14577697  0.92161173  0.78665198  1
  O  O312  1  0.12487373  0.25953609  0.80269251  1
  O  O313  1  0.20899787  0.08127554  0.75036635  1
  O  O314  1  0.71133096  0.98072671  0.75079558  1
  O  O315  1  0.91900465  0.55163217  0.80188367  1
  O  O316  1  0.34846527  0.62927530  0.78473064  1
  O  O317  1  0.80844418  0.15334644  0.77504340  1
  O  O318  1  0.46002789  0.02510036  0.81390448  1
  O  O319  1  0.19817958  0.43591325  0.74607842  1
  O  O320  1  0.72399903  0.62492067  0.75325871  1
  O  O321  1  0.85170915  0.30898580  0.83783202  1
  O  O322  1  0.76337607  0.99090766  0.83855587  1
  O  O323  1  0.90827209  0.53729893  0.87197793  1
  O  O324  1  0.06141465  0.88042601  0.89002616  1
  O  O325  1  0.32871823  0.83144044  0.85336409  1
  O  O326  1  0.64249185  0.58837803  0.90858957  1
  O  O327  1  0.49321269  0.04254823  0.87468154  1
  O  O328  1  0.47846785  0.38002080  0.88692798  1
  O  O329  1  0.55576953  0.19919527  0.83705649  1
  O  O330  1  0.05679049  0.09963371  0.83831219  1
  O  O331  1  0.26747143  0.67131456  0.88945931  1
  O  O332  1  0.69866856  0.74738053  0.87146057  1
  O  O333  1  0.15437227  0.27012450  0.86363809  1
  O  O334  1  0.81158291  0.15290325  0.90154805  1
  O  O335  1  0.54438277  0.55814861  0.83316910  1
  O  O336  1  0.07172596  0.74619762  0.84112078  1
  O  O337  1  0.20878552  0.43376223  0.92356034  1
  O  O338  1  0.10364260  0.10391158  0.93146320  1
  O  O339  1  0.29383068  0.66510051  0.96082380  1
  O  O340  1  0.41342404  0.99664278  0.97693200  1
  O  O341  1  0.68110362  0.94214258  0.94004991  1
  O  O342  1  0.01825734  0.65723547  0.98788047  1
  O  O343  1  0.81392210  0.16072581  0.96240876  1
  O  O344  1  0.91958413  0.31698897  0.92937700  1
  O  O345  1  0.40695905  0.22664339  0.92521228  1
  O  O346  1  0.61521754  0.78826013  0.97832967  1
  O  O347  1  0.03307976  0.85304599  0.96166508  1
  O  O348  1  0.51795475  0.40085500  0.94620397  1
  O  O349  1  0.89774524  0.67569520  0.91935954  1
  O  O350  1  0.42391042  0.85938627  0.92867839  1
  O  O351  1  0.21647997  0.78296607  0.01164566  1
