# generated using pymatgen
data_Li3PO4
_symmetry_space_group_name_H-M   'P 1'
_cell_length_a   7.91303400
_cell_length_b   11.66978227
_cell_length_c   41.53731238
_cell_angle_alpha   90.00000000
_cell_angle_beta   90.00000000
_cell_angle_gamma   74.43479159
_symmetry_Int_Tables_number   1
_chemical_formula_structural   Li3PO4
_chemical_formula_sum   'Li132 P44 O176'
_cell_volume   3695.02445988
_cell_formula_units_Z   44
loop_
 _symmetry_equiv_pos_site_id
 _symmetry_equiv_pos_as_xyz
  1  'x, y, z'
loop_
 _atom_site_type_symbol
 _atom_site_label
 _atom_site_symmetry_multiplicity
 _atom_site_fract_x
 _atom_site_fract_y
 _atom_site_fract_z
 _atom_site_occupancy
  Li  Li0  1  0.30537488  0.67196553  0.04673097  1
  Li  Li1  1  0.55366031  0.27546669  0.98283865  1
  Li  Li2  1  0.87112028  0.24540412  0.02858503  1
  Li  Li3  1  0.91911598  0.55750229  0.02561711  1
  Li  Li4  1  0.12058594  0.89072602  0.04439759  1
  Li  Li5  1  0.34222414  0.48688860  0.98166211  1
  Li  Li6  1  0.97458953  0.57775474  0.13192710  1
  Li  Li7  1  0.07147868  0.94001705  0.10654465  1
  Li  Li8  1  0.20138247  0.47741829  0.07224795  1
  Li  Li9  1  0.18804274  0.14678580  0.07577832  1
  Li  Li10  1  0.50274332  0.09149231  0.12252752  1
  Li  Li11  1  0.53403870  0.42978562  0.11369465  1
  Li  Li12  1  0.71722506  0.98220501  0.07300858  1
  Li  Li13  1  0.65470200  0.64000306  0.08529837  1
  Li  Li14  1  0.31189243  0.69543076  0.10939989  1
  Li  Li15  1  0.72118360  0.82094807  0.13332003  1
  Li  Li16  1  0.93077555  0.38850722  0.07685115  1
  Li  Li17  1  0.46255147  0.24673752  0.07131359  1
  Li  Li18  1  0.62825544  0.45967681  0.21859945  1
  Li  Li19  1  0.72524316  0.81958622  0.19579752  1
  Li  Li20  1  0.86161893  0.36842518  0.15880259  1
  Li  Li21  1  0.83699417  0.03399529  0.16493970  1
  Li  Li22  1  0.16525007  0.97337360  0.20887624  1
  Li  Li23  1  0.18589505  0.30984489  0.20314335  1
  Li  Li24  1  0.39188944  0.87872030  0.15061517  1
  Li  Li25  1  0.30325793  0.51794183  0.17488600  1
  Li  Li26  1  0.96875318  0.57960074  0.19615118  1
  Li  Li27  1  0.38580965  0.70057431  0.21690197  1
  Li  Li28  1  0.59010142  0.27246072  0.16354903  1
  Li  Li29  1  0.10956208  0.12975945  0.15934934  1
  Li  Li30  1  0.28013797  0.34217052  0.30566434  1
  Li  Li31  1  0.38105589  0.70046494  0.28196280  1
  Li  Li32  1  0.51544488  0.24856807  0.24707178  1
  Li  Li33  1  0.48814142  0.91430054  0.25258783  1
  Li  Li34  1  0.81743984  0.85382130  0.29667547  1
  Li  Li35  1  0.83794775  0.19028201  0.29035809  1
  Li  Li36  1  0.05230809  0.76098065  0.23779655  1
  Li  Li37  1  0.95592971  0.40106388  0.26269624  1
  Li  Li38  1  0.62115433  0.46090181  0.28390157  1
  Li  Li39  1  0.03870496  0.58215229  0.30517440  1
  Li  Li40  1  0.24205269  0.15386363  0.25183070  1
  Li  Li41  1  0.76263120  0.01026040  0.24721057  1
  Li  Li42  1  0.92602869  0.22163117  0.39420368  1
  Li  Li43  1  0.03095575  0.57976373  0.37051108  1
  Li  Li44  1  0.16626394  0.13034038  0.33362457  1
  Li  Li45  1  0.14204655  0.79393434  0.33935194  1
  Li  Li46  1  0.46927160  0.73217995  0.38468026  1
  Li  Li47  1  0.49293414  0.06861966  0.37645156  1
  Li  Li48  1  0.70471700  0.64132734  0.32558130  1
  Li  Li49  1  0.60731292  0.28380388  0.34980213  1
  Li  Li50  1  0.27224373  0.34625608  0.36954645  1
  Li  Li51  1  0.68952819  0.46093129  0.39671358  1
  Li  Li52  1  0.89319568  0.03368839  0.33922463  1
  Li  Li53  1  0.41493826  0.88787306  0.33386526  1
  Li  Li54  1  0.74159640  0.48987576  0.47305661  1
  Li  Li55  1  0.81390084  0.00882582  0.42269272  1
  Li  Li56  1  0.78977140  0.68152679  0.43029298  1
  Li  Li57  1  0.12362395  0.61604596  0.46717852  1
  Li  Li58  1  0.14150941  0.91868745  0.46158891  1
  Li  Li59  1  0.35582924  0.51748518  0.41536598  1
  Li  Li60  1  0.25857740  0.17460296  0.42738762  1
  Li  Li61  1  0.84239811  0.26478817  0.45862777  1
  Li  Li62  1  0.53971736  0.91478452  0.42457204  1
  Li  Li63  1  0.06473631  0.77037740  0.42033135  1
  Li  Li64  1  0.50343288  0.91144360  0.49287565  1
  Li  Li65  1  0.27274341  0.79452692  0.52302836  1
  Li  Li66  1  0.62207884  0.92760104  0.54645439  1
  Li  Li67  1  0.37270061  0.32476499  0.48244463  1
  Li  Li68  1  0.05630230  0.35533054  0.52827104  1
  Li  Li69  1  0.00239061  0.04135756  0.52518546  1
  Li  Li70  1  0.80656957  0.70752433  0.54417493  1
  Li  Li71  1  0.58173961  0.11206645  0.48171520  1
  Li  Li72  1  0.95259517  0.02255994  0.63189031  1
  Li  Li73  1  0.85348787  0.66076475  0.60665840  1
  Li  Li74  1  0.72599089  0.12278368  0.57233378  1
  Li  Li75  1  0.73737454  0.45300905  0.57550749  1
  Li  Li76  1  0.42268468  0.50884589  0.62260301  1
  Li  Li77  1  0.39169098  0.17072003  0.61337560  1
  Li  Li78  1  0.20734755  0.61952077  0.57310764  1
  Li  Li79  1  0.27064334  0.96113197  0.58503179  1
  Li  Li80  1  0.61416355  0.90536493  0.60920293  1
  Li  Li81  1  0.20649148  0.77935922  0.63319111  1
  Li  Li82  1  0.99367480  0.21276474  0.57667757  1
  Li  Li83  1  0.46106538  0.35454510  0.57096691  1
  Li  Li84  1  0.29874332  0.14037811  0.71842284  1
  Li  Li85  1  0.20273671  0.78136231  0.69543846  1
  Li  Li86  1  0.06211853  0.23155535  0.65858987  1
  Li  Li87  1  0.08748243  0.56654254  0.66505931  1
  Li  Li88  1  0.75916586  0.62752519  0.70899088  1
  Li  Li89  1  0.73981686  0.29141460  0.70351254  1
  Li  Li90  1  0.53440381  0.72087605  0.65047857  1
  Li  Li91  1  0.62319467  0.08283452  0.67469463  1
  Li  Li92  1  0.95686243  0.02085845  0.69596305  1
  Li  Li93  1  0.54154560  0.89992146  0.71695867  1
  Li  Li94  1  0.33408917  0.32766140  0.66305023  1
  Li  Li95  1  0.81591823  0.46986766  0.65918434  1
  Li  Li96  1  0.64305948  0.25782066  0.80559215  1
  Li  Li97  1  0.54663110  0.89909909  0.78188732  1
  Li  Li98  1  0.41011683  0.35168006  0.74689276  1
  Li  Li99  1  0.43513683  0.68661157  0.75274965  1
  Li  Li100  1  0.10596210  0.74648691  0.79677236  1
  Li  Li101  1  0.08597273  0.40982526  0.79028443  1
  Li  Li102  1  0.87566997  0.83998202  0.73772310  1
  Li  Li103  1  0.96938666  0.19973150  0.76283307  1
  Li  Li104  1  0.30394327  0.13834064  0.78371743  1
  Li  Li105  1  0.88781072  0.01774679  0.80545001  1
  Li  Li106  1  0.68217005  0.44709157  0.75205616  1
  Li  Li107  1  0.16288900  0.59015229  0.74703534  1
  Li  Li108  1  0.99928686  0.37800575  0.89442438  1
  Li  Li109  1  0.89312742  0.02013040  0.87075870  1
  Li  Li110  1  0.75532783  0.46938150  0.83364797  1
  Li  Li111  1  0.78173746  0.80652492  0.83955322  1
  Li  Li112  1  0.45628909  0.86742533  0.88464172  1
  Li  Li113  1  0.42998708  0.53072439  0.87662442  1
  Li  Li114  1  0.22112371  0.95834276  0.82554579  1
  Li  Li115  1  0.31279878  0.31631992  0.84964659  1
  Li  Li116  1  0.65008298  0.25429094  0.86962835  1
  Li  Li117  1  0.23312067  0.13861219  0.89644847  1
  Li  Li118  1  0.02921233  0.56656953  0.83928294  1
  Li  Li119  1  0.50768132  0.71153129  0.83428156  1
  Li  Li120  1  0.18420617  0.10821021  0.97313867  1
  Li  Li121  1  0.11088550  0.59047257  0.92261240  1
  Li  Li122  1  0.13404467  0.91748496  0.93058711  1
  Li  Li123  1  0.79935336  0.98397322  0.96746857  1
  Li  Li124  1  0.78385115  0.67855351  0.96196154  1
  Li  Li125  1  0.56667413  0.08278567  0.91545067  1
  Li  Li126  1  0.66834429  0.42507442  0.92834085  1
  Li  Li127  1  0.08342369  0.33308906  0.95850899  1
  Li  Li128  1  0.38501606  0.68502291  0.92447128  1
  Li  Li129  1  0.85738423  0.82802200  0.92050505  1
  Li  Li130  1  0.42005154  0.68838968  0.99283162  1
  Li  Li131  1  0.65051371  0.80566264  0.02313732  1
  P  P132  1  0.57115961  0.44985094  0.04184251  1
  P  P133  1  0.18723420  0.30088905  0.01940726  1
  P  P134  1  0.94078867  0.73267385  0.07551771  1
  P  P135  1  0.43210526  0.89778442  0.07709982  1
  P  P136  1  0.22010720  0.32949530  0.13147140  1
  P  P137  1  0.82366577  0.18668360  0.10439276  1
  P  P138  1  0.60954117  0.61442746  0.16041173  1
  P  P139  1  0.08709002  0.78492638  0.16600404  1
  P  P140  1  0.87494056  0.21270967  0.21852990  1
  P  P141  1  0.47607651  0.06985602  0.19334301  1
  P  P142  1  0.26461130  0.49616616  0.24760325  1
  P  P143  1  0.74297945  0.66534204  0.25338975  1
  P  P144  1  0.52727441  0.09269406  0.30606174  1
  P  P145  1  0.12810035  0.95056217  0.28046198  1
  P  P146  1  0.91557004  0.37788102  0.33568568  1
  P  P147  1  0.39488332  0.54713295  0.34129044  1
  P  P148  1  0.17604251  0.97317577  0.39226731  1
  P  P149  1  0.77976588  0.82958369  0.36848380  1
  P  P150  1  0.55903859  0.25276574  0.42077282  1
  P  P151  1  0.05248012  0.42651466  0.43156236  1
  P  P152  1  0.82787434  0.87005426  0.48107109  1
  P  P153  1  0.43433717  0.71064694  0.45646856  1
  P  P154  1  0.35577501  0.15085231  0.54182741  1
  P  P155  1  0.73940670  0.29826555  0.51923191  1
  P  P156  1  0.98469475  0.86768436  0.57549888  1
  P  P157  1  0.49320034  0.70276978  0.57696265  1
  P  P158  1  0.70494221  0.27092350  0.63143359  1
  P  P159  1  0.10138818  0.41404722  0.60423863  1
  P  P160  1  0.31789482  0.98598455  0.66030399  1
  P  P161  1  0.83950600  0.81555420  0.66588878  1
  P  P162  1  0.05033304  0.38757683  0.71853498  1
  P  P163  1  0.44921986  0.53043356  0.69331918  1
  P  P164  1  0.66138996  0.10399299  0.74762733  1
  P  P165  1  0.18307993  0.93515087  0.75330374  1
  P  P166  1  0.39619960  0.50760560  0.80613725  1
  P  P167  1  0.79589625  0.64976700  0.78051639  1
  P  P168  1  0.00805125  0.22188631  0.83571740  1
  P  P169  1  0.52910861  0.05308919  0.84124045  1
  P  P170  1  0.74834883  0.62563557  0.89237530  1
  P  P171  1  0.14368785  0.77029587  0.86859960  1
  P  P172  1  0.36514716  0.34654002  0.92084665  1
  P  P173  1  0.87176009  0.17290044  0.93174536  1
  P  P174  1  0.09639864  0.72881066  0.98126462  1
  P  P175  1  0.49023526  0.88831889  0.95653695  1
  O  O176  1  0.45671999  0.55125970  0.02002881  1
  O  O177  1  0.30393822  0.21048535  0.04218081  1
  O  O178  1  0.06041503  0.24133973  0.00029092  1
  O  O179  1  0.71791093  0.49520417  0.05810065  1
  O  O180  1  0.84039377  0.70650549  0.04604599  1
  O  O181  1  0.07456982  0.40949885  0.03908576  1
  O  O182  1  0.64653787  0.33831752  0.02102902  1
  O  O183  1  0.54769968  0.92969323  0.05067434  1
  O  O184  1  0.28970097  0.34536505  0.99283669  1
  O  O185  1  0.13444567  0.65329035  0.07677919  1
  O  O186  1  0.23708233  0.97232701  0.07417347  1
  O  O187  1  0.09326977  0.42661986  0.11058240  1
  O  O188  1  0.94808806  0.09060079  0.12602255  1
  O  O189  1  0.67423969  0.13526040  0.09117376  1
  O  O190  1  0.36774311  0.38061068  0.14567560  1
  O  O191  1  0.50685956  0.92426647  0.11059835  1
  O  O192  1  0.53613277  0.59102646  0.12694442  1
  O  O193  1  0.43298128  0.76353798  0.07420101  1
  O  O194  1  0.94265759  0.86692252  0.07530641  1
  O  O195  1  0.74152908  0.29941799  0.12504582  1
  O  O196  1  0.30240096  0.21787830  0.11083109  1
  O  O197  1  0.84307886  0.70316987  0.10553687  1
  O  O198  1  0.19218623  0.82303834  0.13802486  1
  O  O199  1  0.45238617  0.42090853  0.06934289  1
  O  O200  1  0.92855356  0.21892850  0.07554579  1
  O  O201  1  0.80509658  0.54130835  0.16352362  1
  O  O202  1  0.89178254  0.85976613  0.16408331  1
  O  O203  1  0.75113890  0.31046716  0.19738201  1
  O  O204  1  0.59858125  0.97146934  0.21448853  1
  O  O205  1  0.33024581  0.02042019  0.17787228  1
  O  O206  1  0.02017973  0.26277905  0.23403365  1
  O  O207  1  0.16638113  0.81010186  0.19880414  1
  O  O208  1  0.19020651  0.47092244  0.21439488  1
  O  O209  1  0.10068558  0.64999429  0.16320409  1
  O  O210  1  0.59320547  0.74964971  0.16470111  1
  O  O211  1  0.39128394  0.17997545  0.21456670  1
  O  O212  1  0.96058151  0.10255257  0.19736492  1
  O  O213  1  0.50127124  0.57433019  0.18754063  1
  O  O214  1  0.85293252  0.70267162  0.22613581  1
  O  O215  1  0.11240725  0.29540989  0.15968275  1
  O  O216  1  0.58604359  0.10605371  0.16584601  1
  O  O217  1  0.45955548  0.42161387  0.25078534  1
  O  O218  1  0.54823990  0.74025784  0.25021894  1
  O  O219  1  0.40356737  0.19161191  0.28525454  1
  O  O220  1  0.25164484  0.85137416  0.30125521  1
  O  O221  1  0.98161600  0.90117575  0.26533836  1
  O  O222  1  0.67266155  0.14241167  0.32160493  1
  O  O223  1  0.81730188  0.69043132  0.28665681  1
  O  O224  1  0.83878237  0.35235788  0.30263168  1
  O  O225  1  0.75365560  0.53077447  0.25044901  1
  O  O226  1  0.25333043  0.63079582  0.25064840  1
  O  O227  1  0.04296802  0.06015819  0.30187063  1
  O  O228  1  0.61344483  0.98313539  0.28475567  1
  O  O229  1  0.15478230  0.45883761  0.27496013  1
  O  O230  1  0.50302022  0.58663441  0.31403280  1
  O  O231  1  0.76575099  0.17612287  0.24612610  1
  O  O232  1  0.23740475  0.98789936  0.25311574  1
  O  O233  1  0.11091179  0.30292998  0.33801752  1
  O  O234  1  0.19922248  0.62121761  0.33854011  1
  O  O235  1  0.05425850  0.07388813  0.37191638  1
  O  O236  1  0.90030194  0.73099749  0.38998614  1
  O  O237  1  0.63362481  0.78063052  0.35318392  1
  O  O238  1  0.31986078  0.02249003  0.40859339  1
  O  O239  1  0.46874165  0.56912540  0.37483196  1
  O  O240  1  0.48465351  0.23158239  0.38697467  1
  O  O241  1  0.40610799  0.41287444  0.33714736  1
  O  O242  1  0.90614360  0.51229702  0.33829963  1
  O  O243  1  0.69442707  0.94024365  0.38955003  1
  O  O244  1  0.26453431  0.86400956  0.37119970  1
  O  O245  1  0.80788547  0.34179052  0.36358432  1
  O  O246  1  0.15108582  0.45905237  0.40161837  1
  O  O247  1  0.41731396  0.05424433  0.33316752  1
  O  O248  1  0.89085157  0.86595276  0.34124397  1
  O  O249  1  0.75468244  0.17774139  0.42352669  1
  O  O250  1  0.85888291  0.50660572  0.43135536  1
  O  O251  1  0.66828765  0.94657328  0.46098806  1
  O  O252  1  0.55143587  0.61379338  0.47665276  1
  O  O253  1  0.28099174  0.66940531  0.44038933  1
  O  O254  1  0.94605288  0.95338574  0.48748983  1
  O  O255  1  0.14813983  0.45073526  0.46243440  1
  O  O256  1  0.04456628  0.29386721  0.42925224  1
  O  O257  1  0.55522355  0.38469946  0.42542377  1
  O  O258  1  0.34886380  0.82235544  0.47860177  1
  O  O259  1  0.92803205  0.75804486  0.46150643  1
  O  O260  1  0.44568537  0.20967000  0.44622530  1
  O  O261  1  0.06523885  0.93460310  0.41910860  1
  O  O262  1  0.53789768  0.75220256  0.42864220  1
  O  O263  1  0.74733020  0.82870259  0.51173492  1
  O  O264  1  0.46951297  0.04878730  0.52007239  1
  O  O265  1  0.62207643  0.38883889  0.54188429  1
  O  O266  1  0.86656900  0.35767867  0.50017934  1
  O  O267  1  0.20896548  0.10631888  0.55828828  1
  O  O268  1  0.08471880  0.89401991  0.54598622  1
  O  O269  1  0.85161514  0.18980388  0.53901455  1
  O  O270  1  0.28080912  0.26212995  0.52086986  1
  O  O271  1  0.37716088  0.67111520  0.55056591  1
  O  O272  1  0.63819000  0.25328076  0.49251812  1
  O  O273  1  0.79125918  0.94716558  0.57673704  1
  O  O274  1  0.68805684  0.62791681  0.57396889  1
  O  O275  1  0.83271875  0.17395434  0.61061253  1
  O  O276  1  0.97683007  0.50981540  0.62592930  1
  O  O277  1  0.25078535  0.46567970  0.59109131  1
  O  O278  1  0.55704283  0.21979379  0.64545727  1
  O  O279  1  0.41875240  0.67592096  0.61047242  1
  O  O280  1  0.39080532  0.00969258  0.62683101  1
  O  O281  1  0.49248495  0.83695540  0.57414497  1
  O  O282  1  0.98243715  0.73353084  0.57522880  1
  O  O283  1  0.18324082  0.30105950  0.62482539  1
  O  O284  1  0.62334179  0.38270224  0.61079462  1
  O  O285  1  0.08298568  0.89702205  0.60544314  1
  O  O286  1  0.73387563  0.77760681  0.63796110  1
  O  O287  1  0.47500051  0.18012296  0.56918921  1
  O  O288  1  0.99685155  0.38200873  0.57529727  1
  O  O289  1  0.12210537  0.05875634  0.66345540  1
  O  O290  1  0.03485130  0.74076850  0.66385226  1
  O  O291  1  0.17341983  0.28979343  0.69728999  1
  O  O292  1  0.32692611  0.62915707  0.71439908  1
  O  O293  1  0.59506979  0.57963498  0.67774133  1
  O  O294  1  0.90524449  0.33779855  0.73422421  1
  O  O295  1  0.76069635  0.79033514  0.69873401  1
  O  O296  1  0.73564143  0.12967657  0.71442780  1
  O  O297  1  0.82573964  0.95057179  0.66307645  1
  O  O298  1  0.33455066  0.85069147  0.66451512  1
  O  O299  1  0.53422462  0.42072180  0.71465478  1
  O  O300  1  0.96427997  0.49777239  0.69740672  1
  O  O301  1  0.42597475  0.02602232  0.68746305  1
  O  O302  1  0.07405663  0.89777276  0.72589156  1
  O  O303  1  0.81220300  0.30461059  0.65978106  1
  O  O304  1  0.33906592  0.49393201  0.66589591  1
  O  O305  1  0.46628184  0.17832651  0.75077666  1
  O  O306  1  0.37798340  0.86050272  0.75020021  1
  O  O307  1  0.52048698  0.40902125  0.78532650  1
  O  O308  1  0.67252928  0.74851252  0.80147318  1
  O  O309  1  0.94244816  0.69931102  0.76544249  1
  O  O310  1  0.25051844  0.45797459  0.82156252  1
  O  O311  1  0.10820831  0.90961001  0.78648920  1
  O  O312  1  0.08587624  0.24744188  0.80276665  1
  O  O313  1  0.17190762  0.06979449  0.75040563  1
  O  O314  1  0.67335683  0.96922982  0.75057219  1
  O  O315  1  0.88048210  0.53966851  0.80180242  1
  O  O316  1  0.31065709  0.61742784  0.78487615  1
  O  O317  1  0.77086802  0.14107903  0.77507280  1
  O  O318  1  0.42227926  0.01294273  0.81388644  1
  O  O319  1  0.15985037  0.42418687  0.74607128  1
  O  O320  1  0.68631915  0.61304994  0.75310284  1
  O  O321  1  0.81248742  0.29632717  0.83788153  1
  O  O322  1  0.72510623  0.97943346  0.83867064  1
  O  O323  1  0.86991046  0.52530904  0.87189452  1
  O  O324  1  0.02263549  0.86835550  0.89015902  1
  O  O325  1  0.28992491  0.81942922  0.85337745  1
  O  O326  1  0.60450712  0.57609578  0.90861515  1
  O  O327  1  0.45476743  0.03076390  0.87472560  1
  O  O328  1  0.43747759  0.36784417  0.88692292  1
  O  O329  1  0.51655111  0.18751108  0.83709571  1
  O  O330  1  0.01891368  0.08726437  0.83844370  1
  O  O331  1  0.22944293  0.65946219  0.88957596  1
  O  O332  1  0.66003160  0.73534823  0.87145771  1
  O  O333  1  0.11473056  0.25834203  0.86370677  1
  O  O334  1  0.77225950  0.14132024  0.90179648  1
  O  O335  1  0.50572582  0.54563164  0.83339647  1
  O  O336  1  0.03282530  0.73406677  0.84129601  1
  O  O337  1  0.16979679  0.42200092  0.92390026  1
  O  O338  1  0.06498964  0.09205247  0.93144810  1
  O  O339  1  0.25589779  0.65299478  0.96098418  1
  O  O340  1  0.37337356  0.98429534  0.97703346  1
  O  O341  1  0.64258100  0.93055848  0.94041593  1
  O  O342  1  0.97952822  0.64476469  0.98781105  1
  O  O343  1  0.77633228  0.14901643  0.96267111  1
  O  O344  1  0.88141742  0.30526115  0.92953213  1
  O  O345  1  0.36742858  0.21479980  0.92547373  1
  O  O346  1  0.57641028  0.77637701  0.97853465  1
  O  O347  1  0.99491761  0.84071678  0.96178539  1
  O  O348  1  0.47982765  0.38897997  0.94618667  1
  O  O349  1  0.85919551  0.66347527  0.91933895  1
  O  O350  1  0.38630588  0.84731007  0.92868672  1
  O  O351  1  0.17779113  0.77019624  0.01185247  1
