# generated using pymatgen
data_Li3PO4
_symmetry_space_group_name_H-M   'P 1'
_cell_length_a   7.91303400
_cell_length_b   11.66978227
_cell_length_c   45.03375876
_cell_angle_alpha   90.00000000
_cell_angle_beta   90.00000000
_cell_angle_gamma   74.43479159
_symmetry_Int_Tables_number   1
_chemical_formula_structural   Li3PO4
_chemical_formula_sum   'Li144 P48 O192'
_cell_volume   4006.05697831
_cell_formula_units_Z   48
loop_
 _symmetry_equiv_pos_site_id
 _symmetry_equiv_pos_as_xyz
  1  'x, y, z'
loop_
 _atom_site_type_symbol
 _atom_site_label
 _atom_site_symmetry_multiplicity
 _atom_site_fract_x
 _atom_site_fract_y
 _atom_site_fract_z
 _atom_site_occupancy
  Li  Li0  1  0.14425616  0.71461945  0.05985023  1
  Li  Li1  1  0.29711612  0.07965605  0.04061479  1
  Li  Li2  1  0.39491008  0.34502658  0.00444414  1
  Li  Li3  1  0.69396804  0.25572357  0.04918351  1
  Li  Li4  1  0.79514677  0.56698978  0.03569893  1
  Li  Li5  1  0.83823122  0.14647370  0.99346378  1
  Li  Li6  1  0.56222423  0.85106248  0.02900958  1
  Li  Li7  1  0.87531034  0.98669458  0.05691339  1
  Li  Li8  1  0.13827665  0.48317656  0.02895673  1
  Li  Li9  1  0.80554516  0.60002682  0.13824363  1
  Li  Li10  1  0.90772966  0.95590707  0.11608291  1
  Li  Li11  1  0.06197070  0.49599503  0.08793272  1
  Li  Li12  1  0.02401093  0.16560039  0.09355443  1
  Li  Li13  1  0.34123010  0.11185680  0.13316615  1
  Li  Li14  1  0.38009070  0.44155564  0.12615454  1
  Li  Li15  1  0.55017727  0.01496209  0.08215282  1
  Li  Li16  1  0.48201443  0.66234307  0.09991929  1
  Li  Li17  1  0.14442688  0.71483957  0.11901369  1
  Li  Li18  1  0.56034903  0.84048534  0.13852909  1
  Li  Li19  1  0.78851810  0.40603799  0.09074978  1
  Li  Li20  1  0.35556008  0.25237430  0.07848909  1
  Li  Li21  1  0.46032232  0.48021559  0.22066929  1
  Li  Li22  1  0.55868743  0.83879836  0.19851615  1
  Li  Li23  1  0.69735551  0.38924954  0.16781260  1
  Li  Li24  1  0.67783971  0.05069052  0.17174788  1
  Li  Li25  1  0.99993603  0.99129956  0.21207979  1
  Li  Li26  1  0.02316605  0.32812500  0.20803725  1
  Li  Li27  1  0.22551177  0.90081433  0.15674530  1
  Li  Li28  1  0.13904541  0.53823662  0.18029334  1
  Li  Li29  1  0.80377217  0.59773559  0.19908371  1
  Li  Li30  1  0.21806008  0.72102607  0.21937335  1
  Li  Li31  1  0.43032856  0.28848544  0.17179365  1
  Li  Li32  1  0.95408695  0.15305924  0.16677938  1
  Li  Li33  1  0.11675706  0.35992126  0.30172699  1
  Li  Li34  1  0.21552069  0.71796524  0.27913897  1
  Li  Li35  1  0.35183647  0.26742431  0.24730680  1
  Li  Li36  1  0.32305248  0.93097898  0.25284494  1
  Li  Li37  1  0.65327181  0.86950397  0.29203458  1
  Li  Li38  1  0.67461931  0.20667432  0.28777948  1
  Li  Li39  1  0.88404030  0.77941693  0.23815260  1
  Li  Li40  1  0.79180595  0.41879665  0.26191363  1
  Li  Li41  1  0.45852116  0.47773872  0.28060575  1
  Li  Li42  1  0.87195485  0.60074699  0.30112106  1
  Li  Li43  1  0.07881036  0.17008662  0.25226075  1
  Li  Li44  1  0.59599826  0.02790093  0.24790738  1
  Li  Li45  1  0.76668264  0.24350748  0.38412417  1
  Li  Li46  1  0.87020622  0.59882989  0.36158737  1
  Li  Li47  1  0.99753830  0.14670955  0.32845356  1
  Li  Li48  1  0.97838309  0.80878103  0.33223185  1
  Li  Li49  1  0.29562150  0.75709643  0.37382098  1
  Li  Li50  1  0.33386283  0.08827540  0.36723019  1
  Li  Li51  1  0.53665495  0.66088599  0.31990146  1
  Li  Li52  1  0.44977180  0.29874675  0.34324296  1
  Li  Li53  1  0.11514619  0.35771351  0.36172457  1
  Li  Li54  1  0.53095322  0.48494218  0.38123905  1
  Li  Li55  1  0.72440980  0.04580930  0.33313761  1
  Li  Li56  1  0.24502946  0.91052453  0.32807205  1
  Li  Li57  1  0.37458393  0.11863830  0.45963949  1
  Li  Li58  1  0.53084926  0.48530317  0.43993008  1
  Li  Li59  1  0.65138001  0.03302964  0.40656439  1
  Li  Li60  1  0.61364592  0.70367457  0.41181663  1
  Li  Li61  1  0.87512873  0.63243862  0.46460731  1
  Li  Li62  1  0.98019409  0.94252685  0.45121368  1
  Li  Li63  1  0.19256562  0.53651052  0.39978766  1
  Li  Li64  1  0.12219158  0.18386209  0.41832064  1
  Li  Li65  1  0.79643871  0.21252999  0.44318928  1
  Li  Li66  1  0.11317475  0.34992032  0.47095294  1
  Li  Li67  1  0.31994084  0.94682322  0.42167265  1
  Li  Li68  1  0.88783684  0.79243925  0.40896908  1
  Li  Li69  1  0.27665918  0.85364451  0.49519950  1
  Li  Li70  1  0.83535890  0.05295948  0.50698416  1
  Li  Li71  1  0.53386942  0.71681671  0.47083994  1
  Li  Li72  1  0.03134439  0.98591735  0.56004000  1
  Li  Li73  1  0.87518806  0.62080624  0.54051831  1
  Li  Li74  1  0.77657710  0.35465796  0.50474846  1
  Li  Li75  1  0.47989200  0.44412776  0.54886474  1
  Li  Li76  1  0.37520862  0.13266638  0.53547267  1
  Li  Li77  1  0.33558462  0.55333207  0.49302234  1
  Li  Li78  1  0.61310951  0.85004856  0.52897611  1
  Li  Li79  1  0.29844762  0.71270638  0.55698513  1
  Li  Li80  1  0.03481527  0.21770489  0.52890366  1
  Li  Li81  1  0.37066937  0.10016616  0.63829432  1
  Li  Li82  1  0.26625297  0.74462946  0.61596890  1
  Li  Li83  1  0.11478950  0.20480203  0.58812822  1
  Li  Li84  1  0.15002213  0.53417432  0.59337695  1
  Li  Li85  1  0.83390536  0.58866735  0.63278348  1
  Li  Li86  1  0.79614682  0.25765625  0.62609384  1
  Li  Li87  1  0.62230017  0.68632927  0.58201183  1
  Li  Li88  1  0.69286487  0.03773359  0.60016682  1
  Li  Li89  1  0.03120666  0.98597044  0.61899784  1
  Li  Li90  1  0.61577955  0.85914494  0.63841974  1
  Li  Li91  1  0.38765816  0.29375704  0.59063158  1
  Li  Li92  1  0.81929358  0.44766871  0.57830497  1
  Li  Li93  1  0.71652484  0.22011893  0.72073478  1
  Li  Li94  1  0.61875193  0.86142140  0.69834776  1
  Li  Li95  1  0.47889827  0.31086663  0.66752866  1
  Li  Li96  1  0.49814544  0.64853231  0.67167180  1
  Li  Li97  1  0.17481167  0.70803885  0.71206999  1
  Li  Li98  1  0.15356187  0.37151686  0.70806124  1
  Li  Li99  1  0.95024330  0.79943256  0.65676444  1
  Li  Li100  1  0.03802683  0.16238324  0.68033360  1
  Li  Li101  1  0.37287660  0.10199136  0.69887272  1
  Li  Li102  1  0.95884577  0.97936412  0.71936844  1
  Li  Li103  1  0.74656178  0.41104290  0.67180839  1
  Li  Li104  1  0.22534766  0.54697133  0.66676696  1
  Li  Li105  1  0.05904768  0.34026775  0.80168197  1
  Li  Li106  1  0.95967911  0.98165534  0.77924551  1
  Li  Li107  1  0.82479938  0.43225739  0.74719142  1
  Li  Li108  1  0.85080193  0.76856813  0.75258461  1
  Li  Li109  1  0.52192886  0.83105764  0.79186419  1
  Li  Li110  1  0.50030635  0.49317288  0.78777753  1
  Li  Li111  1  0.29137456  0.92070722  0.73805807  1
  Li  Li112  1  0.38423416  0.28078973  0.76185279  1
  Li  Li113  1  0.71720343  0.22258303  0.78054767  1
  Li  Li114  1  0.30506032  0.09962501  0.80097686  1
  Li  Li115  1  0.09684102  0.52996208  0.75233509  1
  Li  Li116  1  0.57801729  0.67176105  0.74764738  1
  Li  Li117  1  0.40742092  0.45678701  0.88390333  1
  Li  Li118  1  0.30646759  0.10114502  0.86180391  1
  Li  Li119  1  0.17788424  0.55364471  0.82823213  1
  Li  Li120  1  0.19722692  0.89227989  0.83220591  1
  Li  Li121  1  0.87910153  0.94303743  0.87368765  1
  Li  Li122  1  0.84144312  0.61257747  0.86700769  1
  Li  Li123  1  0.63947134  0.03930327  0.81966530  1
  Li  Li124  1  0.72660817  0.40209454  0.84329537  1
  Li  Li125  1  0.06092809  0.34196889  0.86148135  1
  Li  Li126  1  0.64433071  0.21543421  0.88096715  1
  Li  Li127  1  0.45374732  0.65448383  0.83315505  1
  Li  Li128  1  0.93059962  0.78946600  0.82825807  1
  Li  Li129  1  0.79697032  0.58100049  0.95943477  1
  Li  Li130  1  0.64430934  0.21489671  0.94010105  1
  Li  Li131  1  0.52347504  0.66606532  0.90633335  1
  Li  Li132  1  0.56140199  0.99636330  0.91205989  1
  Li  Li133  1  0.29502767  0.06716073  0.96432537  1
  Li  Li134  1  0.19335706  0.75651717  0.95078930  1
  Li  Li135  1  0.98265733  0.16338318  0.89992884  1
  Li  Li136  1  0.05010034  0.51583342  0.91800881  1
  Li  Li137  1  0.37556167  0.48705497  0.94312601  1
  Li  Li138  1  0.06154406  0.35136844  0.97091362  1
  Li  Li139  1  0.85563130  0.75331009  0.92152904  1
  Li  Li140  1  0.28790676  0.90674464  0.90925357  1
  Li  Li141  1  0.89490118  0.84545152  0.99549472  1
  Li  Li142  1  0.33845270  0.64642493  0.00653382  1
  Li  Li143  1  0.63828173  0.98333230  0.97103773  1
  P  P144  1  0.57538303  0.10165935  0.01627534  1
  P  P145  1  0.42951976  0.47741123  0.06232088  1
  P  P146  1  0.04072692  0.29817714  0.03725603  1
  P  P147  1  0.78634935  0.75368658  0.08303917  1
  P  P148  1  0.26468680  0.91624229  0.08847200  1
  P  P149  1  0.05912780  0.34847067  0.14211923  1
  P  P150  1  0.66717850  0.20438138  0.11841722  1
  P  P151  1  0.44194578  0.63595951  0.16623877  1
  P  P152  1  0.92104391  0.80325002  0.17100797  1
  P  P153  1  0.71208820  0.23080575  0.22169777  1
  P  P154  1  0.31431611  0.08637534  0.19821073  1
  P  P155  1  0.09860917  0.51582744  0.24767460  1
  P  P156  1  0.57753012  0.68229635  0.25235112  1
  P  P157  1  0.36118997  0.11202613  0.30198559  1
  P  P158  1  0.96325528  0.96722093  0.27826499  1
  P  P159  1  0.75422110  0.39516746  0.32914773  1
  P  P160  1  0.23390746  0.56272932  0.33370925  1
  P  P161  1  0.00810304  0.99435998  0.38176262  1
  P  P162  1  0.61593658  0.85076652  0.35791016  1
  P  P163  1  0.40939368  0.28297503  0.41166811  1
  P  P164  1  0.88795509  0.44594193  0.41701586  1
  P  P165  1  0.63308218  0.90105767  0.46285622  1
  P  P166  1  0.24507848  0.72129918  0.43746479  1
  P  P167  1  0.09711825  0.09721999  0.48395056  1
  P  P168  1  0.59724926  0.59833965  0.51618111  1
  P  P169  1  0.74566209  0.22228962  0.56248172  1
  P  P170  1  0.13319391  0.40198305  0.53706326  1
  P  P171  1  0.38838238  0.94669851  0.58302029  1
  P  P172  1  0.90959190  0.78421699  0.58843631  1
  P  P173  1  0.11637426  0.35160880  0.64205313  1
  P  P174  1  0.50810559  0.49577987  0.61821986  1
  P  P175  1  0.73439530  0.06424806  0.66626782  1
  P  P176  1  0.25489952  0.89654701  0.67095804  1
  P  P177  1  0.46407089  0.46877516  0.72170074  1
  P  P178  1  0.86178056  0.61305393  0.69799800  1
  P  P179  1  0.07767839  0.18400607  0.74769699  1
  P  P180  1  0.59887401  0.01753217  0.75224670  1
  P  P181  1  0.81412800  0.58796181  0.80184214  1
  P  P182  1  0.21155296  0.73295746  0.77826561  1
  P  P183  1  0.42162746  0.30505875  0.82903639  1
  P  P184  1  0.94222108  0.13764022  0.83369611  1
  P  P185  1  0.16712107  0.70568982  0.88157132  1
  P  P186  1  0.55885319  0.84959896  0.85781567  1
  P  P187  1  0.76467094  0.41689118  0.91160503  1
  P  P188  1  0.28649929  0.25434558  0.91698971  1
  P  P189  1  0.54047449  0.79857932  0.96267666  1
  P  P190  1  0.92911757  0.97822898  0.93758712  1
  P  P191  1  0.07539492  0.60221954  0.98382293  1
  O  O192  1  0.43627366  0.04188690  0.00379061  1
  O  O193  1  0.30024225  0.58175916  0.04560857  1
  O  O194  1  0.15113394  0.21220034  0.06057933  1
  O  O195  1  0.90130097  0.24328615  0.02380414  1
  O  O196  1  0.53359174  0.13688865  0.04899711  1
  O  O197  1  0.71750590  0.72483796  0.05252217  1
  O  O198  1  0.76407602  0.01060693  0.01609955  1
  O  O199  1  0.95620264  0.42144260  0.05318767  1
  O  O200  1  0.50917215  0.38401618  0.03872706  1
  O  O201  1  0.58227848  0.20705465  0.99599249  1
  O  O202  1  0.16406715  0.32173593  0.01253427  1
  O  O203  1  0.98028733  0.67629761  0.08700770  1
  O  O204  1  0.07078485  0.99267501  0.08427387  1
  O  O205  1  0.94266003  0.44577557  0.12128338  1
  O  O206  1  0.80042747  0.10670517  0.13659063  1
  O  O207  1  0.51674423  0.15178557  0.10785462  1
  O  O208  1  0.57345765  0.51810410  0.07889941  1
  O  O209  1  0.33904611  0.94957508  0.11853949  1
  O  O210  1  0.36450545  0.60966028  0.13598895  1
  O  O211  1  0.26748239  0.78321187  0.08840320  1
  O  O212  1  0.77846665  0.88993886  0.08404342  1
  O  O213  1  0.58745314  0.31533586  0.13793804  1
  O  O214  1  0.13073287  0.23076570  0.12513331  1
  O  O215  1  0.67771629  0.72488358  0.10953997  1
  O  O216  1  0.38104310  0.94057097  0.06261309  1
  O  O217  1  0.31577283  0.42633099  0.08482448  1
  O  O218  1  0.76589591  0.24001987  0.09123958  1
  O  O219  1  0.63803246  0.56331006  0.16839985  1
  O  O220  1  0.72544178  0.87717457  0.16860757  1
  O  O221  1  0.58755961  0.33018456  0.20270266  1
  O  O222  1  0.43491539  0.98730519  0.21775101  1
  O  O223  1  0.16870858  0.03778598  0.18349832  1
  O  O224  1  0.21107600  0.39613043  0.15474087  1
  O  O225  1  0.99705225  0.82817998  0.20154796  1
  O  O226  1  0.02388158  0.49109788  0.21701853  1
  O  O227  1  0.93488247  0.66827887  0.16793396  1
  O  O228  1  0.42825320  0.77138809  0.16865070  1
  O  O229  1  0.22818377  0.19654854  0.21768329  1
  O  O230  1  0.79757675  0.12220139  0.20170418  1
  O  O231  1  0.33686168  0.59773564  0.19200409  1
  O  O232  1  0.02723026  0.84206225  0.14544348  1
  O  O233  1  0.94447532  0.32428413  0.16834713  1
  O  O234  1  0.42670343  0.12224885  0.17324935  1
  O  O235  1  0.29376623  0.44119638  0.25028363  1
  O  O236  1  0.38244910  0.75702180  0.24974652  1
  O  O237  1  0.24014319  0.21092450  0.28243504  1
  O  O238  1  0.08799998  0.86787342  0.29724409  1
  O  O239  1  0.81716844  0.91829956  0.26391284  1
  O  O240  1  0.85779383  0.27984866  0.23615598  1
  O  O241  1  0.65229192  0.70678166  0.28302541  1
  O  O242  1  0.67843905  0.36995843  0.29859186  1
  O  O243  1  0.58969946  0.54753375  0.24962695  1
  O  O244  1  0.08647040  0.65063611  0.25031062  1
  O  O245  1  0.87826087  0.07594399  0.29827653  1
  O  O246  1  0.44690887  0.00163024  0.28252581  1
  O  O247  1  0.99073757  0.47789305  0.27311028  1
  O  O248  1  0.68533178  0.72050993  0.22695130  1
  O  O249  1  0.60256615  0.19297831  0.24690432  1
  O  O250  1  0.07239450  0.00494656  0.25300069  1
  O  O251  1  0.94962475  0.32095387  0.33166451  1
  O  O252  1  0.03770934  0.63531881  0.33156495  1
  O  O253  1  0.87467662  0.09204331  0.36359290  1
  O  O254  1  0.73277426  0.75315944  0.37863795  1
  O  O255  1  0.46433986  0.80285081  0.34523239  1
  O  O256  1  0.50706053  0.16079041  0.31655028  1
  O  O257  1  0.31139756  0.58921165  0.36393359  1
  O  O258  1  0.33514893  0.24993143  0.38157061  1
  O  O259  1  0.24708688  0.42736534  0.33140549  1
  O  O260  1  0.74074986  0.53018399  0.33211353  1
  O  O261  1  0.54387898  0.96799279  0.37504564  1
  O  O262  1  0.08813038  0.88372547  0.36213808  1
  O  O263  1  0.64738782  0.35720107  0.35475446  1
  O  O264  1  0.33897954  0.60082640  0.30795171  1
  O  O265  1  0.24905223  0.07639936  0.32703063  1
  O  O266  1  0.73089784  0.87502186  0.33173066  1
  O  O267  1  0.60325005  0.20638016  0.41578911  1
  O  O268  1  0.69428720  0.52365787  0.41294803  1
  O  O269  1  0.52383222  0.98766059  0.43954118  1
  O  O270  1  0.37439896  0.61707624  0.45418878  1
  O  O271  1  0.10247416  0.68079172  0.42050772  1
  O  O272  1  0.15785144  0.04743492  0.39242039  1
  O  O273  1  0.95682007  0.47539346  0.44746584  1
  O  O274  1  0.14046143  0.06185455  0.45127082  1
  O  O275  1  0.89487896  0.30981154  0.41623657  1
  O  O276  1  0.40685925  0.41598480  0.41176426  1
  O  O277  1  0.16371233  0.81361243  0.46120800  1
  O  O278  1  0.71750089  0.77790881  0.44686771  1
  O  O279  1  0.29318303  0.25847238  0.43754504  1
  O  O280  1  0.99686485  0.47390013  0.39047123  1
  O  O281  1  0.90924091  0.95838437  0.40888265  1
  O  O282  1  0.35944046  0.77332574  0.41528973  1
  O  O283  1  0.23575620  0.15726497  0.49650750  1
  O  O284  1  0.77267331  0.95503639  0.47661026  1
  O  O285  1  0.90821646  0.18773390  0.48402380  1
  O  O286  1  0.09081257  0.99139905  0.50413378  1
  O  O287  1  0.50808349  0.87784127  0.48734757  1
  O  O288  1  0.73633225  0.65818745  0.50371843  1
  O  O289  1  0.87477281  0.11803861  0.54573325  1
  O  O290  1  0.02327482  0.48853381  0.56031791  1
  O  O291  1  0.27273549  0.45621929  0.52340317  1
  O  O292  1  0.63927465  0.56332441  0.54890743  1
  O  O293  1  0.45739905  0.97569137  0.55253714  1
  O  O294  1  0.40820177  0.68865392  0.51593047  1
  O  O295  1  0.21808088  0.27898609  0.55308810  1
  O  O296  1  0.66433629  0.31520149  0.53886059  1
  O  O297  1  0.59137682  0.49252249  0.49594698  1
  O  O298  1  0.00895686  0.37816904  0.51250791  1
  O  O299  1  0.19484867  0.02457017  0.58704698  1
  O  O300  1  0.10322142  0.70733127  0.58424750  1
  O  O301  1  0.23345749  0.25418650  0.62130082  1
  O  O302  1  0.37518398  0.59344036  0.63648129  1
  O  O303  1  0.65788656  0.54880264  0.60756500  1
  O  O304  1  0.60271190  0.18173732  0.57935121  1
  O  O305  1  0.83541092  0.75103653  0.61853343  1
  O  O306  1  0.81162702  0.09035390  0.63599152  1
  O  O307  1  0.90748267  0.91710810  0.58837468  1
  O  O308  1  0.39503047  0.81063523  0.58390122  1
  O  O309  1  0.58860821  0.38494277  0.63774541  1
  O  O310  1  0.04370022  0.46868960  0.62488707  1
  O  O311  1  0.49742749  0.97472119  0.60954322  1
  O  O312  1  0.79298198  0.75995831  0.56259909  1
  O  O313  1  0.86011221  0.27394238  0.58471602  1
  O  O314  1  0.40864738  0.46008254  0.59113681  1
  O  O315  1  0.53829406  0.13698240  0.66840896  1
  O  O316  1  0.45036035  0.82246374  0.66848894  1
  O  O317  1  0.58843798  0.36966140  0.70261847  1
  O  O318  1  0.74047805  0.71209705  0.71748706  1
  O  O319  1  0.00753415  0.66181411  0.68338255  1
  O  O320  1  0.96506538  0.30346352  0.65474771  1
  O  O321  1  0.17879282  0.87150643  0.70149303  1
  O  O322  1  0.15287211  0.20852672  0.71706064  1
  O  O323  1  0.24147870  0.03155003  0.66794462  1
  O  O324  1  0.74774369  0.92888141  0.66864352  1
  O  O325  1  0.94781136  0.50308473  0.71755346  1
  O  O326  1  0.37869106  0.57764855  0.70176165  1
  O  O327  1  0.83966333  0.10247150  0.69197658  1
  O  O328  1  0.14798185  0.85836905  0.64538996  1
  O  O329  1  0.23114604  0.37617791  0.66822439  1
  O  O330  1  0.74974619  0.57701680  0.67300548  1
  O  O331  1  0.88260429  0.25871264  0.75025105  1
  O  O332  1  0.79384332  0.94261280  0.74963041  1
  O  O333  1  0.93546006  0.48903205  0.78234154  1
  O  O334  1  0.08715652  0.83209499  0.79733649  1
  O  O335  1  0.35724341  0.78212384  0.76384195  1
  O  O336  1  0.31809734  0.41989353  0.73611644  1
  O  O337  1  0.52424825  0.99329493  0.78295554  1
  O  O338  1  0.49717672  0.32994669  0.79844484  1
  O  O339  1  0.58685921  0.15227329  0.74951470  1
  O  O340  1  0.08952119  0.04926699  0.75036771  1
  O  O341  1  0.29725070  0.62406295  0.79817879  1
  O  O342  1  0.72774142  0.69810944  0.78236998  1
  O  O343  1  0.18537142  0.22217250  0.77312060  1
  O  O344  1  0.49082747  0.97931511  0.72689393  1
  O  O345  1  0.57360096  0.50630627  0.74693923  1
  O  O346  1  0.10207506  0.69525179  0.75303478  1
  O  O347  1  0.22610923  0.37918963  0.83151066  1
  O  O348  1  0.13844764  0.06531428  0.83151647  1
  O  O349  1  0.30068803  0.60819266  0.86340193  1
  O  O350  1  0.44235551  0.94671051  0.87870738  1
  O  O351  1  0.71082530  0.89739803  0.84523910  1
  O  O352  1  0.66862909  0.53905814  0.81648122  1
  O  O353  1  0.86490143  0.11081843  0.86391493  1
  O  O354  1  0.83956148  0.45045080  0.88160655  1
  O  O355  1  0.92857664  0.27307423  0.83140653  1
  O  O356  1  0.43548675  0.16999345  0.83210169  1
  O  O357  1  0.63025953  0.73168671  0.87472211  1
  O  O358  1  0.08724160  0.81657592  0.86203325  1
  O  O359  1  0.52821072  0.34350279  0.85458995  1
  O  O360  1  0.83706568  0.09960131  0.80792321  1
  O  O361  1  0.92633481  0.62375100  0.82685561  1
  O  O362  1  0.44402757  0.82601891  0.83155055  1
  O  O363  1  0.57067556  0.49328679  0.91572038  1
  O  O364  1  0.48034671  0.17689803  0.91299234  1
  O  O365  1  0.65070981  0.71289830  0.93928152  1
  O  O366  1  0.79988463  0.08229599  0.95439544  1
  O  O367  1  0.07298600  0.01905261  0.92103102  1
  O  O368  1  0.01711165  0.65273774  0.89218806  1
  O  O369  1  0.21750219  0.22516576  0.94745961  1
  O  O370  1  0.03316374  0.63757840  0.95111278  1
  O  O371  1  0.27860213  0.39058447  0.91607566  1
  O  O372  1  0.76762938  0.28383767  0.91161545  1
  O  O373  1  0.00875756  0.88468531  0.96115766  1
  O  O374  1  0.45588046  0.92203317  0.94682446  1
  O  O375  1  0.88053248  0.44127376  0.93754398  1
  O  O376  1  0.17810408  0.22591736  0.89041385  1
  O  O377  1  0.26559702  0.74130569  0.90877306  1
  O  O378  1  0.81527518  0.92733866  0.91506544  1
  O  O379  1  0.93623141  0.54260905  0.99634469  1
  O  O380  1  0.40119866  0.74357758  0.97614197  1
  O  O381  1  0.26398226  0.51107810  0.98394318  1
  O  O382  1  0.08264607  0.70767498  0.00406736  1
  O  O383  1  0.66427736  0.82175721  0.98737094  1
