# generated using pymatgen
data_Li3PO4
_symmetry_space_group_name_H-M   'P 1'
_cell_length_a   7.91303400
_cell_length_b   11.66978227
_cell_length_c   48.65964532
_cell_angle_alpha   90.00000000
_cell_angle_beta   90.00000000
_cell_angle_gamma   74.43479159
_symmetry_Int_Tables_number   1
_chemical_formula_structural   Li3PO4
_chemical_formula_sum   'Li156 P52 O208'
_cell_volume   4328.60407601
_cell_formula_units_Z   52
loop_
 _symmetry_equiv_pos_site_id
 _symmetry_equiv_pos_as_xyz
  1  'x, y, z'
loop_
 _atom_site_type_symbol
 _atom_site_label
 _atom_site_symmetry_multiplicity
 _atom_site_fract_x
 _atom_site_fract_y
 _atom_site_fract_z
 _atom_site_occupancy
  Li  Li0  1  0.61761139  0.77336424  0.98709309  1
  Li  Li1  1  0.32241474  0.95883711  0.05952025  1
  Li  Li2  1  0.41481997  0.16256389  0.04511184  1
  Li  Li3  1  0.78809615  0.11739886  0.06758076  1
  Li  Li4  1  0.80004321  0.45714863  0.06429438  1
  Li  Li5  1  0.00790424  0.03088073  0.02041072  1
  Li  Li6  1  0.90440657  0.68917482  0.03825515  1
  Li  Li7  1  0.56402499  0.73436984  0.04794177  1
  Li  Li8  1  0.30914731  0.00626969  0.01024610  1
  Li  Li9  1  0.31626909  0.41028056  0.01877526  1
  Li  Li10  1  0.24453677  0.59818963  0.07072646  1
  Li  Li11  1  0.99661924  0.84211745  0.12769721  1
  Li  Li12  1  0.13821954  0.38972637  0.09817359  1
  Li  Li13  1  0.10233876  0.05910573  0.10361730  1
  Li  Li14  1  0.43215726  0.99130816  0.14127620  1
  Li  Li15  1  0.45669620  0.32944934  0.13535926  1
  Li  Li16  1  0.66819862  0.89748473  0.09268865  1
  Li  Li17  1  0.56448057  0.54097778  0.11086980  1
  Li  Li18  1  0.23171077  0.59941144  0.12849504  1
  Li  Li19  1  0.01516487  0.84214132  0.07146687  1
  Li  Li20  1  0.85852812  0.29686386  0.10319565  1
  Li  Li21  1  0.37769492  0.15365664  0.10115303  1
  Li  Li22  1  0.89414960  0.48107378  0.14762715  1
  Li  Li23  1  0.64531688  0.72059371  0.20241642  1
  Li  Li24  1  0.78257080  0.26859105  0.17359627  1
  Li  Li25  1  0.75675000  0.93287307  0.17780253  1
  Li  Li26  1  0.08673119  0.87236928  0.21566004  1
  Li  Li27  1  0.10653838  0.20919060  0.21052565  1
  Li  Li28  1  0.31656414  0.78001686  0.16536595  1
  Li  Li29  1  0.22183695  0.42085139  0.18590360  1
  Li  Li30  1  0.88714218  0.48095661  0.20350830  1
  Li  Li31  1  0.65290583  0.71785789  0.14699242  1
  Li  Li32  1  0.50991132  0.17246267  0.17808422  1
  Li  Li33  1  0.02946305  0.02962820  0.17371809  1
  Li  Li34  1  0.54610271  0.36072412  0.22316067  1
  Li  Li35  1  0.29578839  0.60282855  0.27743359  1
  Li  Li36  1  0.43603461  0.14803876  0.24818579  1
  Li  Li37  1  0.40986043  0.81333369  0.25270026  1
  Li  Li38  1  0.73836536  0.75430799  0.29128176  1
  Li  Li39  1  0.76054511  0.08821657  0.28458962  1
  Li  Li40  1  0.96788041  0.66167383  0.23992477  1
  Li  Li41  1  0.87419476  0.30117203  0.26039234  1
  Li  Li42  1  0.53990843  0.36247853  0.27837990  1
  Li  Li43  1  0.30269133  0.60071023  0.22197555  1
  Li  Li44  1  0.16317171  0.05170586  0.25249289  1
  Li  Li45  1  0.68360455  0.90704124  0.24830410  1
  Li  Li46  1  0.19894288  0.24217656  0.29762031  1
  Li  Li47  1  0.94447046  0.48964749  0.35129026  1
  Li  Li48  1  0.09202788  0.02866494  0.32262333  1
  Li  Li49  1  0.06297968  0.69721974  0.32847254  1
  Li  Li50  1  0.39829708  0.63322467  0.36715997  1
  Li  Li51  1  0.41429426  0.96740415  0.35971938  1
  Li  Li52  1  0.62223214  0.54454668  0.31451150  1
  Li  Li53  1  0.52533975  0.18204701  0.33406139  1
  Li  Li54  1  0.19022041  0.24632321  0.35264100  1
  Li  Li55  1  0.95584393  0.48331381  0.29612871  1
  Li  Li56  1  0.81624243  0.93484967  0.32765929  1
  Li  Li57  1  0.33711183  0.78669055  0.32444691  1
  Li  Li58  1  0.85977251  0.12557667  0.36963829  1
  Li  Li59  1  0.58582702  0.37891302  0.42217064  1
  Li  Li60  1  0.73940965  0.91238418  0.39856079  1
  Li  Li61  1  0.72389210  0.57869078  0.40502833  1
  Li  Li62  1  0.04437746  0.52150461  0.44260377  1
  Li  Li63  1  0.07222250  0.85334592  0.43737949  1
  Li  Li64  1  0.26947150  0.43139526  0.38918817  1
  Li  Li65  1  0.18725438  0.06660187  0.40833594  1
  Li  Li66  1  0.85982110  0.11536072  0.42119695  1
  Li  Li67  1  0.60269467  0.36487280  0.36903390  1
  Li  Li68  1  0.46461122  0.81463422  0.40464076  1
  Li  Li69  1  0.99441676  0.67610078  0.40164920  1
  Li  Li70  1  0.49820651  0.02466306  0.45091099  1
  Li  Li71  1  0.22696541  0.29975020  0.48544470  1
  Li  Li72  1  0.42073969  0.82453778  0.46515490  1
  Li  Li73  1  0.90952211  0.31300697  0.46111411  1
  Li  Li74  1  0.85242887  0.98045532  0.48431499  1
  Li  Li75  1  0.35600960  0.00892254  0.51590644  1
  Li  Li76  1  0.26527053  0.25962253  0.43536761  1
  Li  Li77  1  0.67554194  0.57406341  0.48040016  1
  Li  Li78  1  0.48073101  0.42717575  0.48618630  1
  Li  Li79  1  0.77798095  0.24096693  0.55936054  1
  Li  Li80  1  0.68590292  0.03792282  0.54530011  1
  Li  Li81  1  0.31399573  0.08299150  0.56761865  1
  Li  Li82  1  0.30057845  0.74347262  0.56436168  1
  Li  Li83  1  0.09143621  0.16871328  0.52033054  1
  Li  Li84  1  0.19534978  0.51117843  0.53818362  1
  Li  Li85  1  0.53511974  0.46666017  0.54783401  1
  Li  Li86  1  0.79089268  0.19341933  0.51011686  1
  Li  Li87  1  0.78384631  0.78920359  0.51880622  1
  Li  Li88  1  0.85486330  0.60281651  0.57059672  1
  Li  Li89  1  0.10309387  0.35835470  0.62781407  1
  Li  Li90  1  0.96310477  0.81004753  0.59824873  1
  Li  Li91  1  0.99938780  0.14232361  0.60366458  1
  Li  Li92  1  0.66820145  0.20892253  0.64132403  1
  Li  Li93  1  0.64476410  0.87147398  0.63532785  1
  Li  Li94  1  0.43307002  0.30305008  0.59250704  1
  Li  Li95  1  0.53747633  0.65943345  0.61087555  1
  Li  Li96  1  0.86853037  0.60018999  0.62832139  1
  Li  Li97  1  0.08391651  0.35824481  0.57144267  1
  Li  Li98  1  0.24031237  0.90455239  0.60318622  1
  Li  Li99  1  0.72429453  0.04671910  0.60113432  1
  Li  Li100  1  0.20698076  0.71956870  0.64763428  1
  Li  Li101  1  0.45501572  0.47991248  0.70234179  1
  Li  Li102  1  0.31782596  0.93219385  0.67361417  1
  Li  Li103  1  0.34282624  0.26865435  0.67789869  1
  Li  Li104  1  0.01286104  0.32799201  0.71561666  1
  Li  Li105  1  0.99138663  0.99205989  0.71037947  1
  Li  Li106  1  0.78186313  0.42038041  0.66494390  1
  Li  Li107  1  0.87694885  0.78023224  0.68584090  1
  Li  Li108  1  0.21070293  0.71956561  0.70339830  1
  Li  Li109  1  0.44619861  0.48286733  0.64658863  1
  Li  Li110  1  0.58939948  0.02808394  0.67809594  1
  Li  Li111  1  0.07041193  0.17142379  0.67374738  1
  Li  Li112  1  0.55333939  0.83990191  0.72308289  1
  Li  Li113  1  0.80321727  0.59700585  0.77711849  1
  Li  Li114  1  0.66320389  0.05348888  0.74816993  1
  Li  Li115  1  0.69016750  0.38678531  0.75278108  1
  Li  Li116  1  0.36085369  0.44632666  0.79135516  1
  Li  Li117  1  0.33865796  0.11155118  0.78465102  1
  Li  Li118  1  0.12970814  0.53929651  0.73980128  1
  Li  Li119  1  0.22570580  0.89911232  0.76021224  1
  Li  Li120  1  0.56110869  0.83768041  0.77824208  1
  Li  Li121  1  0.79504781  0.59904502  0.72163631  1
  Li  Li122  1  0.93733978  0.14808587  0.75251177  1
  Li  Li123  1  0.41567009  0.29342272  0.74856020  1
  Li  Li124  1  0.90160056  0.95784139  0.79739982  1
  Li  Li125  1  0.15698212  0.71037528  0.85127806  1
  Li  Li126  1  0.00744971  0.17144615  0.82254275  1
  Li  Li127  1  0.03888635  0.50248332  0.82851481  1
  Li  Li128  1  0.70156724  0.56568628  0.86715412  1
  Li  Li129  1  0.68657707  0.23237747  0.85974872  1
  Li  Li130  1  0.48003694  0.65509032  0.81446426  1
  Li  Li131  1  0.57560737  0.01699781  0.83389341  1
  Li  Li132  1  0.90934480  0.95301443  0.85239885  1
  Li  Li133  1  0.14461128  0.71670984  0.79621822  1
  Li  Li134  1  0.28267349  0.26444335  0.82746546  1
  Li  Li135  1  0.76312292  0.41285644  0.82412930  1
  Li  Li136  1  0.24135846  0.07349291  0.86960927  1
  Li  Li137  1  0.51520880  0.81853884  0.92207339  1
  Li  Li138  1  0.36108900  0.28656597  0.89861544  1
  Li  Li139  1  0.37594412  0.61973669  0.90488744  1
  Li  Li140  1  0.05486458  0.67781191  0.94245079  1
  Li  Li141  1  0.02681432  0.34657754  0.93729586  1
  Li  Li142  1  0.83145908  0.76737447  0.88907602  1
  Li  Li143  1  0.91297657  0.13250536  0.90820230  1
  Li  Li144  1  0.23915502  0.08270472  0.92125713  1
  Li  Li145  1  0.49852255  0.83435956  0.86889062  1
  Li  Li146  1  0.63575594  0.38464579  0.90471415  1
  Li  Li147  1  0.10586250  0.52293212  0.90158230  1
  Li  Li148  1  0.60216190  0.17416754  0.95035301  1
  Li  Li149  1  0.87457379  0.90018348  0.98539623  1
  Li  Li150  1  0.67961337  0.37460015  0.96534283  1
  Li  Li151  1  0.19063233  0.88531383  0.96082953  1
  Li  Li152  1  0.24837474  0.21898814  0.98389877  1
  Li  Li153  1  0.74485378  0.19104412  0.01589752  1
  Li  Li154  1  0.83559333  0.93959175  0.93547832  1
  Li  Li155  1  0.42538844  0.62555738  0.98021947  1
  P  P156  1  0.21386736  0.77022787  0.02080984  1
  P  P157  1  0.69470246  0.94361085  0.03387227  1
  P  P158  1  0.09105263  0.22813270  0.05258168  1
  P  P159  1  0.88088858  0.63644577  0.09720769  1
  P  P160  1  0.36051262  0.80225598  0.10322889  1
  P  P161  1  0.49659302  0.35379829  0.07277916  1
  P  P162  1  0.74416000  0.09140730  0.12793695  1
  P  P163  1  0.53068049  0.51558434  0.17283193  1
  P  P164  1  0.00832075  0.68576768  0.17749878  1
  P  P165  1  0.14374182  0.23261608  0.14930790  1
  P  P166  1  0.39725843  0.96946791  0.20205969  1
  P  P167  1  0.18269748  0.39659188  0.24763089  1
  P  P168  1  0.66001478  0.56720604  0.25236915  1
  P  P169  1  0.79618150  0.11124899  0.22374505  1
  P  P170  1  0.05052058  0.85003543  0.27715766  1
  P  P171  1  0.83500766  0.27841120  0.32138599  1
  P  P172  1  0.30993510  0.45103858  0.32686385  1
  P  P173  1  0.44981515  0.99077095  0.29837605  1
  P  P174  1  0.70593794  0.73194775  0.35368528  1
  P  P175  1  0.49234492  0.15638319  0.39374798  1
  P  P176  1  0.95904284  0.33908058  0.39907885  1
  P  P177  1  0.10361850  0.87287372  0.37412405  1
  P  P178  1  0.37236499  0.61892300  0.43120404  1
  P  P179  1  0.13045833  0.06920359  0.46775767  1
  P  P180  1  0.61659785  0.23325080  0.46443059  1
  P  P181  1  0.75813871  0.77220697  0.45397457  1
  P  P182  1  0.88631307  0.42992266  0.52080226  1
  P  P183  1  0.40503021  0.25670225  0.53380954  1
  P  P184  1  0.00948381  0.97207483  0.55256277  1
  P  P185  1  0.21928940  0.56398130  0.59712752  1
  P  P186  1  0.73935365  0.39808027  0.60304409  1
  P  P187  1  0.60348299  0.84674091  0.57280158  1
  P  P188  1  0.35643834  0.10926049  0.62790736  1
  P  P189  1  0.56917714  0.68510749  0.67271474  1
  P  P190  1  0.09101052  0.51497413  0.67742144  1
  P  P191  1  0.95664000  0.96822235  0.64931855  1
  P  P192  1  0.70201512  0.23124809  0.70203610  1
  P  P193  1  0.91623194  0.80406399  0.74746818  1
  P  P194  1  0.43922317  0.63314629  0.75229236  1
  P  P195  1  0.30336483  0.08934244  0.72371263  1
  P  P196  1  0.04900272  0.35011604  0.77706162  1
  P  P197  1  0.26563987  0.92128722  0.82128293  1
  P  P198  1  0.79070618  0.74831025  0.82669446  1
  P  P199  1  0.65007658  0.20918440  0.79837408  1
  P  P200  1  0.39403967  0.46735638  0.85366934  1
  P  P201  1  0.60802126  0.04230892  0.89363061  1
  P  P202  1  0.14119556  0.85999244  0.89893637  1
  P  P203  1  0.99644768  0.32658671  0.87401213  1
  P  P204  1  0.72691331  0.58034921  0.93115462  1
  P  P205  1  0.96972824  0.13029970  0.96775455  1
  P  P206  1  0.48376700  0.96584785  0.96428395  1
  P  P207  1  0.34168172  0.42711728  0.95387199  1
  O  O208  1  0.40986210  0.69833471  0.01859947  1
  O  O209  1  0.49605121  0.00396030  0.03654735  1
  O  O210  1  0.37773103  0.45150539  0.05477125  1
  O  O211  1  0.94620675  0.17280400  0.04200026  1
  O  O212  1  0.78557123  0.94728975  0.06206377  1
  O  O213  1  0.12041197  0.77261694  0.99252155  1
  O  O214  1  0.72270791  0.81190723  0.02393634  1
  O  O215  1  0.19183174  0.90038938  0.03179451  1
  O  O216  1  0.58140913  0.24326265  0.05440567  1
  O  O217  1  0.12198538  0.71134683  0.04354849  1
  O  O218  1  0.77978837  0.01364248  0.01365902  1
  O  O219  1  0.20459534  0.26560179  0.02986818  1
  O  O220  1  0.07446719  0.56009984  0.09960230  1
  O  O221  1  0.16927775  0.88450533  0.09981510  1
  O  O222  1  0.02296810  0.33094853  0.13104294  1
  O  O223  1  0.22083985  0.12956055  0.07067966  1
  O  O224  1  0.59721578  0.04210164  0.11508274  1
  O  O225  1  0.64171565  0.40237773  0.08661384  1
  O  O226  1  0.43380469  0.82700994  0.13169482  1
  O  O227  1  0.80691874  0.61777191  0.06794547  1
  O  O228  1  0.36005513  0.66999262  0.10061055  1
  O  O229  1  0.87407153  0.76906429  0.10127536  1
  O  O230  1  0.00319479  0.33562025  0.07112603  1
  O  O231  1  0.22834785  0.12172572  0.13131060  1
  O  O232  1  0.76848814  0.59581809  0.11973386  1
  O  O233  1  0.47574877  0.83444013  0.08012993  1
  O  O234  1  0.38932796  0.31580547  0.09658662  1
  O  O235  1  0.85274939  0.13130410  0.10478573  1
  O  O236  1  0.72616474  0.44166069  0.17507832  1
  O  O237  1  0.81297663  0.75961594  0.17486731  1
  O  O238  1  0.67243902  0.21061549  0.20604506  1
  O  O239  1  0.86957152  0.99150636  0.14522399  1
  O  O240  1  0.25069326  0.92040138  0.18891338  1
  O  O241  1  0.29088446  0.28166769  0.16204823  1
  O  O242  1  0.08238462  0.71002308  0.20596243  1
  O  O243  1  0.45528918  0.49140788  0.14441326  1
  O  O244  1  0.02041954  0.55102661  0.17456315  1
  O  O245  1  0.51931979  0.65015410  0.17546103  1
  O  O246  1  0.65876886  0.20031300  0.14630905  1
  O  O247  1  0.88069329  0.00176999  0.20537784  1
  O  O248  1  0.42247349  0.47734546  0.19620614  1
  O  O249  1  0.11761204  0.72416727  0.15423975  1
  O  O250  1  0.03366816  0.19650280  0.17267545  1
  O  O251  1  0.50641727  0.00650611  0.17858326  1
  O  O252  1  0.37792279  0.32222902  0.25011972  1
  O  O253  1  0.46463434  0.64072006  0.24971911  1
  O  O254  1  0.32443969  0.08985815  0.28074416  1
  O  O255  1  0.52059558  0.87030138  0.21975994  1
  O  O256  1  0.90453440  0.79959499  0.26430512  1
  O  O257  1  0.94278524  0.16052672  0.23667897  1
  O  O258  1  0.73410342  0.59300269  0.28071805  1
  O  O259  1  0.10816573  0.37236921  0.21914323  1
  O  O260  1  0.67299698  0.43238402  0.24967113  1
  O  O261  1  0.17060753  0.53133814  0.25032431  1
  O  O262  1  0.31263951  0.07934046  0.22025430  1
  O  O263  1  0.53456406  0.88150039  0.27996752  1
  O  O264  1  0.07365907  0.35823024  0.27083499  1
  O  O265  1  0.76920046  0.60498122  0.22896028  1
  O  O266  1  0.68713968  0.07366065  0.24708051  1
  O  O267  1  0.15898221  0.88581293  0.25337657  1
  O  O268  1  0.02958250  0.20335881  0.32438694  1
  O  O269  1  0.11513592  0.52506374  0.32371019  1
  O  O270  1  0.98397897  0.96968010  0.35530881  1
  O  O271  1  0.17426269  0.75263501  0.29528062  1
  O  O272  1  0.56329131  0.67858822  0.34063886  1
  O  O273  1  0.59639596  0.04096425  0.31097065  1
  O  O274  1  0.38107888  0.47756813  0.35538616  1
  O  O275  1  0.76154938  0.25282384  0.29295261  1
  O  O276  1  0.32370157  0.31616505  0.32402623  1
  O  O277  1  0.82367844  0.41296844  0.32402018  1
  O  O278  1  0.96553103  0.96083979  0.29501966  1
  O  O279  1  0.18846428  0.76010897  0.35669459  1
  O  O280  1  0.72371711  0.24068014  0.34432005  1
  O  O281  1  0.42235793  0.48812352  0.30380635  1
  O  O282  1  0.34299604  0.95217260  0.32187845  1
  O  O283  1  0.81092597  0.76966356  0.32967217  1
  O  O284  1  0.68871738  0.08428050  0.39443794  1
  O  O285  1  0.76298675  0.40876414  0.39513272  1
  O  O286  1  0.61216770  0.85700147  0.43582141  1
  O  O287  1  0.83375301  0.63699107  0.37196310  1
  O  O288  1  0.22655431  0.56119331  0.42041158  1
  O  O289  1  0.25088156  0.92244040  0.38653360  1
  O  O290  1  0.02154728  0.37523596  0.42735811  1
  O  O291  1  0.40918535  0.13156587  0.36608316  1
  O  O292  1  0.98821480  0.20209947  0.39632461  1
  O  O293  1  0.46727756  0.29308664  0.39625154  1
  O  O294  1  0.61698158  0.84101635  0.37183873  1
  O  O295  1  0.84389345  0.65726171  0.43688899  1
  O  O296  1  0.39439341  0.11393268  0.41778904  1
  O  O297  1  0.07355102  0.37719682  0.37651207  1
  O  O298  1  0.99267516  0.84026548  0.39799515  1
  O  O299  1  0.47623133  0.64228473  0.40519830  1
  O  O300  1  0.31257783  0.98457802  0.47648279  1
  O  O301  1  0.42018080  0.30474452  0.46084558  1
  O  O302  1  0.50207981  0.53256583  0.45113326  1
  O  O303  1  0.89476026  0.83590585  0.46338024  1
  O  O304  1  0.69118946  0.30530045  0.48582111  1
  O  O305  1  0.06723152  0.01842881  0.44128628  1
  O  O306  1  0.63910748  0.10213613  0.47266426  1
  O  O307  1  0.14383920  0.19614603  0.46210684  1
  O  O308  1  0.29053693  0.73901691  0.44550130  1
  O  O309  1  0.99725485  0.08113764  0.49151046  1
  O  O310  1  0.72461970  0.24303432  0.43858996  1
  O  O311  1  0.66543771  0.74058277  0.48053598  1
  O  O312  1  0.69053906  0.50210283  0.51868392  1
  O  O313  1  0.60368184  0.19627272  0.53651587  1
  O  O314  1  0.72145146  0.74883163  0.55473321  1
  O  O315  1  0.15469627  0.02703544  0.54199819  1
  O  O316  1  0.31430752  0.25347582  0.56203797  1
  O  O317  1  0.97929629  0.42748266  0.49245667  1
  O  O318  1  0.37676574  0.38817316  0.52369624  1
  O  O319  1  0.90847562  0.29970077  0.53175109  1
  O  O320  1  0.51914622  0.95729749  0.55442461  1
  O  O321  1  0.97835229  0.48875359  0.54353677  1
  O  O322  1  0.32003470  0.18621374  0.51368595  1
  O  O323  1  0.89582883  0.93463151  0.52984802  1
  O  O324  1  0.02548557  0.64002394  0.59945320  1
  O  O325  1  0.93071479  0.31600615  0.59977641  1
  O  O326  1  0.07711208  0.86959500  0.63109327  1
  O  O327  1  0.87960353  0.07088839  0.57059282  1
  O  O328  1  0.50358374  0.15839510  0.61507029  1
  O  O329  1  0.45821585  0.79854304  0.58668381  1
  O  O330  1  0.66555553  0.37337908  0.63148138  1
  O  O331  1  0.29313910  0.58237861  0.56783549  1
  O  O332  1  0.73992086  0.53033405  0.60047482  1
  O  O333  1  0.22675948  0.43139614  0.60140082  1
  O  O334  1  0.09688771  0.86472888  0.57116733  1
  O  O335  1  0.87276116  0.07913312  0.63127973  1
  O  O336  1  0.33154040  0.60541399  0.61956591  1
  O  O337  1  0.62472724  0.36594217  0.57988155  1
  O  O338  1  0.71149632  0.88445839  0.59654976  1
  O  O339  1  0.24801668  0.06946034  0.60471954  1
  O  O340  1  0.37365092  0.75897210  0.67496913  1
  O  O341  1  0.28649134  0.44151230  0.67473608  1
  O  O342  1  0.42729423  0.99000376  0.70603893  1
  O  O343  1  0.23067101  0.20909439  0.64517754  1
  O  O344  1  0.84825225  0.28051951  0.68885114  1
  O  O345  1  0.80895012  0.91965992  0.66204840  1
  O  O346  1  0.01716894  0.49043792  0.70587863  1
  O  O347  1  0.64506446  0.70932349  0.64433561  1
  O  O348  1  0.07842093  0.64978287  0.67447418  1
  O  O349  1  0.58046083  0.55050726  0.67531550  1
  O  O350  1  0.44150088  0.00026783  0.64626545  1
  O  O351  1  0.21892086  0.19884394  0.70534007  1
  O  O352  1  0.67705580  0.72338845  0.69612764  1
  O  O353  1  0.98171273  0.47623461  0.65420409  1
  O  O354  1  0.06662444  0.00429856  0.67269041  1
  O  O355  1  0.59319580  0.19391245  0.67855820  1
  O  O356  1  0.72141788  0.87910600  0.75005237  1
  O  O357  1  0.63442221  0.55918295  0.74952214  1
  O  O358  1  0.77559232  0.11040960  0.78069698  1
  O  O359  1  0.57834552  0.33015958  0.71975287  1
  O  O360  1  0.19501369  0.40073861  0.76428933  1
  O  O361  1  0.15666956  0.03992322  0.73656870  1
  O  O362  1  0.36579724  0.60720379  0.78068345  1
  O  O363  1  0.99068732  0.82859204  0.71899642  1
  O  O364  1  0.42718330  0.76784282  0.74964415  1
  O  O365  1  0.92704712  0.66946920  0.75000903  1
  O  O366  1  0.78685419  0.12151093  0.72025036  1
  O  O367  1  0.56532072  0.31873552  0.78004562  1
  O  O368  1  0.02623893  0.84152339  0.77068006  1
  O  O369  1  0.32935923  0.59583463  0.72892042  1
  O  O370  1  0.41205269  0.12690397  0.74709436  1
  O  O371  1  0.94070998  0.31439880  0.75325521  1
  O  O372  1  0.07102252  0.99629725  0.82426897  1
  O  O373  1  0.98563223  0.67449086  0.82363039  1
  O  O374  1  0.11598566  0.22959348  0.85522738  1
  O  O375  1  0.92522689  0.44745102  0.79518815  1
  O  O376  1  0.53656073  0.52082764  0.84061880  1
  O  O377  1  0.50351917  0.15882064  0.81090129  1
  O  O378  1  0.71911263  0.72173078  0.85518356  1
  O  O379  1  0.33912908  0.94702062  0.79286526  1
  O  O380  1  0.77669772  0.88323025  0.82379984  1
  O  O381  1  0.27719653  0.78671688  0.82392141  1
  O  O382  1  0.13364418  0.23909164  0.79489000  1
  O  O383  1  0.91185716  0.43928211  0.85655302  1
  O  O384  1  0.37695216  0.95891970  0.84423535  1
  O  O385  1  0.67856519  0.71123809  0.80359393  1
  O  O386  1  0.75701418  0.24754599  0.82188809  1
  O  O387  1  0.28949928  0.42923858  0.82965236  1
  O  O388  1  0.41168647  0.11448952  0.89449901  1
  O  O389  1  0.33695522  0.78989309  0.89491711  1
  O  O390  1  0.48762709  0.34216309  0.93574905  1
  O  O391  1  0.26561212  0.56243802  0.87184603  1
  O  O392  1  0.87287045  0.63801038  0.92037567  1
  O  O393  1  0.84910165  0.27718116  0.88647385  1
  O  O394  1  0.07851846  0.82382002  0.92722040  1
  O  O395  1  0.69066518  0.06778036  0.86596948  1
  O  O396  1  0.11255388  0.99695257  0.89629312  1
  O  O397  1  0.63314389  0.90559305  0.89609322  1
  O  O398  1  0.48295967  0.35860023  0.87190734  1
  O  O399  1  0.25597786  0.54205256  0.93676355  1
  O  O400  1  0.70665243  0.08446952  0.91763961  1
  O  O401  1  0.02623921  0.82249518  0.87635314  1
  O  O402  1  0.10741133  0.35909731  0.89789655  1
  O  O403  1  0.62355347  0.55671355  0.90512141  1
  O  O404  1  0.78714266  0.21440628  0.97644541  1
  O  O405  1  0.68039722  0.89441898  0.96095716  1
  O  O406  1  0.59681398  0.66680691  0.95099805  1
  O  O407  1  0.20470405  0.36371374  0.96325419  1
  O  O408  1  0.40848618  0.89503159  0.98586211  1
  O  O409  1  0.03237189  0.18107032  0.94123650  1
  O  O410  1  0.46072738  0.09741855  0.97216421  1
  O  O411  1  0.95742821  0.00306578  0.96211930  1
  O  O412  1  0.80857478  0.46036933  0.94550756  1
  O  O413  1  0.10270210  0.11906471  0.99151597  1
  O  O414  1  0.37624393  0.95466151  0.93846289  1
  O  O415  1  0.43420536  0.45892079  0.98044590  1
