# generated using pymatgen
data_Li3PO4
_symmetry_space_group_name_H-M   'P 1'
_cell_length_a   7.91303400
_cell_length_b   14.50933148
_cell_length_c   50.88001157
_cell_angle_alpha   90.00000000
_cell_angle_beta   90.00000000
_cell_angle_gamma   64.42826301
_symmetry_Int_Tables_number   1
_chemical_formula_structural   Li3PO4
_chemical_formula_sum   'Li192 P64 O256'
_cell_volume   5269.45994597
_cell_formula_units_Z   64
loop_
 _symmetry_equiv_pos_site_id
 _symmetry_equiv_pos_as_xyz
  1  'x, y, z'
loop_
 _atom_site_type_symbol
 _atom_site_label
 _atom_site_symmetry_multiplicity
 _atom_site_fract_x
 _atom_site_fract_y
 _atom_site_fract_z
 _atom_site_occupancy
  Li  Li0  1  0.34991177  0.70856935  0.98409744  1
  Li  Li1  1  0.27606339  0.06783990  0.03543110  1
  Li  Li2  1  0.24213276  0.57532929  0.03895470  1
  Li  Li3  1  0.33510952  0.23345199  0.03680183  1
  Li  Li4  1  0.99306821  0.30668433  0.00913656  1
  Li  Li5  1  0.89787809  0.13933841  0.01031736  1
  Li  Li6  1  0.55654886  0.87497010  0.02350645  1
  Li  Li7  1  0.02886003  0.91244078  0.04827308  1
  Li  Li8  1  0.03845918  0.47143507  0.03863072  1
  Li  Li9  1  0.60419418  0.34608803  0.03251420  1
  Li  Li10  1  0.02863489  0.58190745  0.09354341  1
  Li  Li11  1  0.01085952  0.89748370  0.09941873  1
  Li  Li12  1  0.99225847  0.37916353  0.10621533  1
  Li  Li13  1  0.05953307  0.09093964  0.09028201  1
  Li  Li14  1  0.68046403  0.17823585  0.05952247  1
  Li  Li15  1  0.63727979  0.46862111  0.07288839  1
  Li  Li16  1  0.62987221  0.98640611  0.06771213  1
  Li  Li17  1  0.66126962  0.67024871  0.06137559  1
  Li  Li18  1  0.31322888  0.70482132  0.08124421  1
  Li  Li19  1  0.71852416  0.77935214  0.10904746  1
  Li  Li20  1  0.74122261  0.29319688  0.10553784  1
  Li  Li21  1  0.30410439  0.17948688  0.09373952  1
  Li  Li22  1  0.76887067  0.40642103  0.15690590  1
  Li  Li23  1  0.76023732  0.72174613  0.15960513  1
  Li  Li24  1  0.73625537  0.20361778  0.16677079  1
  Li  Li25  1  0.79971387  0.92105649  0.15079906  1
  Li  Li26  1  0.42904636  0.00727520  0.12041645  1
  Li  Li27  1  0.36074873  0.29527856  0.13481793  1
  Li  Li28  1  0.38540033  0.80959064  0.12833675  1
  Li  Li29  1  0.40180641  0.49391248  0.12531038  1
  Li  Li30  1  0.06646843  0.52463003  0.14547830  1
  Li  Li31  1  0.46645797  0.60435031  0.16954515  1
  Li  Li32  1  0.49207763  0.12082705  0.16482941  1
  Li  Li33  1  0.04470990  0.00541417  0.15280206  1
  Li  Li34  1  0.51450457  0.22974890  0.21778747  1
  Li  Li35  1  0.50494893  0.54684782  0.22097242  1
  Li  Li36  1  0.47757679  0.02811018  0.22789010  1
  Li  Li37  1  0.54404203  0.74596105  0.21169615  1
  Li  Li38  1  0.17538337  0.83283516  0.18087893  1
  Li  Li39  1  0.10292801  0.11537930  0.19768024  1
  Li  Li40  1  0.12982773  0.63638685  0.18978262  1
  Li  Li41  1  0.14606547  0.31577569  0.18772510  1
  Li  Li42  1  0.81131204  0.34750141  0.20733861  1
  Li  Li43  1  0.20927495  0.42914067  0.23158992  1
  Li  Li44  1  0.23493542  0.94345841  0.22616070  1
  Li  Li45  1  0.78614837  0.83071274  0.21346254  1
  Li  Li46  1  0.26047707  0.05312095  0.27976331  1
  Li  Li47  1  0.25103475  0.37069720  0.28240534  1
  Li  Li48  1  0.22441185  0.85354795  0.28884815  1
  Li  Li49  1  0.28702603  0.57231662  0.27303557  1
  Li  Li50  1  0.91823603  0.65919998  0.24243719  1
  Li  Li51  1  0.84864667  0.94163485  0.25822450  1
  Li  Li52  1  0.87517725  0.45918553  0.25159089  1
  Li  Li53  1  0.89077306  0.14023717  0.24928839  1
  Li  Li54  1  0.55660179  0.17071108  0.26866714  1
  Li  Li55  1  0.95439413  0.25314436  0.29313062  1
  Li  Li56  1  0.97972591  0.77058105  0.28727917  1
  Li  Li57  1  0.53237229  0.65547627  0.27459736  1
  Li  Li58  1  0.00702098  0.87915251  0.34109512  1
  Li  Li59  1  0.99771988  0.19609797  0.34356907  1
  Li  Li60  1  0.96777816  0.67924431  0.35060790  1
  Li  Li61  1  0.03356276  0.39784371  0.33385827  1
  Li  Li62  1  0.66244619  0.48422116  0.30355046  1
  Li  Li63  1  0.59377970  0.76638144  0.31973864  1
  Li  Li64  1  0.61982659  0.28460661  0.31254905  1
  Li  Li65  1  0.63604100  0.96437049  0.31091175  1
  Li  Li66  1  0.30192408  0.99532955  0.33093051  1
  Li  Li67  1  0.70225000  0.07689137  0.35501718  1
  Li  Li68  1  0.72355684  0.59616835  0.34856570  1
  Li  Li69  1  0.27706519  0.48263615  0.33523634  1
  Li  Li70  1  0.74867495  0.70568851  0.40403550  1
  Li  Li71  1  0.73933235  0.01629401  0.40626342  1
  Li  Li72  1  0.71332745  0.50774350  0.41091661  1
  Li  Li73  1  0.77623760  0.22350287  0.39312966  1
  Li  Li74  1  0.40618976  0.31039835  0.36409756  1
  Li  Li75  1  0.33793107  0.59198530  0.38067267  1
  Li  Li76  1  0.36793463  0.10741393  0.37419453  1
  Li  Li77  1  0.38477593  0.79024183  0.37277310  1
  Li  Li78  1  0.05349692  0.82193360  0.39191962  1
  Li  Li79  1  0.45599244  0.90081469  0.42016170  1
  Li  Li80  1  0.46857750  0.42100394  0.40852813  1
  Li  Li81  1  0.02409490  0.30270810  0.39605839  1
  Li  Li82  1  0.47523565  0.52553904  0.46101748  1
  Li  Li83  1  0.41388375  0.83427875  0.50355362  1
  Li  Li84  1  0.47017977  0.31949666  0.46928277  1
  Li  Li85  1  0.54576508  0.04873312  0.46164916  1
  Li  Li86  1  0.17115047  0.12991968  0.42618945  1
  Li  Li87  1  0.08938454  0.41895657  0.43924985  1
  Li  Li88  1  0.12537957  0.93432297  0.43738605  1
  Li  Li89  1  0.10811087  0.62567160  0.43209150  1
  Li  Li90  1  0.74369614  0.68340333  0.45674121  1
  Li  Li91  1  0.16830631  0.72731617  0.48029535  1
  Li  Li92  1  0.22207215  0.24271710  0.47054581  1
  Li  Li93  1  0.80648574  0.14836401  0.44361020  1
  Li  Li94  1  0.84788195  0.16918522  0.49245113  1
  Li  Li95  1  0.84004852  0.47749750  0.47937258  1
  Li  Li96  1  0.92161116  0.96695499  0.48415604  1
  Li  Li97  1  0.99558035  0.60645950  0.53492998  1
  Li  Li98  1  0.03347008  0.09865788  0.53905697  1
  Li  Li99  1  0.93810586  0.44084236  0.53684961  1
  Li  Li100  1  0.28023285  0.36881416  0.50915902  1
  Li  Li101  1  0.37757049  0.53457892  0.51035088  1
  Li  Li102  1  0.71845261  0.79909798  0.52387450  1
  Li  Li103  1  0.24398760  0.76355140  0.54858146  1
  Li  Li104  1  0.23521537  0.20238190  0.53844302  1
  Li  Li105  1  0.67044407  0.32777440  0.53290308  1
  Li  Li106  1  0.24446078  0.09368700  0.59369226  1
  Li  Li107  1  0.26398871  0.77657940  0.59979402  1
  Li  Li108  1  0.28047868  0.29571966  0.60644806  1
  Li  Li109  1  0.21429662  0.58273195  0.59023828  1
  Li  Li110  1  0.59147120  0.49713252  0.55991168  1
  Li  Li111  1  0.63617476  0.20431987  0.57270296  1
  Li  Li112  1  0.64533507  0.68766347  0.56803717  1
  Li  Li113  1  0.61211444  0.00397029  0.56137782  1
  Li  Li114  1  0.95971999  0.96997979  0.58158692  1
  Li  Li115  1  0.55617426  0.89494865  0.60915523  1
  Li  Li116  1  0.53115667  0.38097377  0.60559649  1
  Li  Li117  1  0.96880220  0.49523716  0.59377681  1
  Li  Li118  1  0.50525841  0.26863743  0.65694689  1
  Li  Li119  1  0.51313724  0.95333392  0.65967429  1
  Li  Li120  1  0.53829061  0.47097535  0.66691589  1
  Li  Li121  1  0.47505952  0.75449073  0.65104770  1
  Li  Li122  1  0.84549035  0.66727315  0.62060176  1
  Li  Li123  1  0.91211617  0.38016874  0.63517439  1
  Li  Li124  1  0.88980980  0.86526554  0.62867728  1
  Li  Li125  1  0.86959513  0.18004233  0.62516086  1
  Li  Li126  1  0.20711490  0.15010352  0.64536198  1
  Li  Li127  1  0.80621344  0.07103904  0.66986961  1
  Li  Li128  1  0.78238521  0.55453839  0.66495521  1
  Li  Li129  1  0.23212521  0.66866284  0.65291473  1
  Li  Li130  1  0.76009677  0.44505313  0.71771453  1
  Li  Li131  1  0.76990847  0.12775195  0.72102299  1
  Li  Li132  1  0.79666635  0.64717865  0.72792327  1
  Li  Li133  1  0.73207186  0.92799614  0.71179120  1
  Li  Li134  1  0.09951892  0.84195155  0.68100446  1
  Li  Li135  1  0.17133714  0.55913126  0.69779714  1
  Li  Li136  1  0.14308698  0.03981869  0.68995040  1
  Li  Li137  1  0.12966033  0.35796390  0.68762885  1
  Li  Li138  1  0.46348009  0.32751967  0.70745406  1
  Li  Li139  1  0.06510286  0.24562123  0.73162696  1
  Li  Li140  1  0.04074253  0.73127070  0.72637087  1
  Li  Li141  1  0.48750591  0.84479952  0.71343993  1
  Li  Li142  1  0.01551939  0.62161549  0.77958923  1
  Li  Li143  1  0.02364477  0.30415891  0.78244573  1
  Li  Li144  1  0.05191580  0.82191225  0.78893877  1
  Li  Li145  1  0.98825138  0.10275974  0.77304293  1
  Li  Li146  1  0.35767039  0.01584013  0.74260582  1
  Li  Li147  1  0.42714001  0.73376851  0.75832996  1
  Li  Li148  1  0.40068522  0.21466886  0.75163639  1
  Li  Li149  1  0.38454689  0.53430328  0.74931137  1
  Li  Li150  1  0.71874800  0.50373891  0.76861075  1
  Li  Li151  1  0.32065726  0.42108600  0.79299549  1
  Li  Li152  1  0.29731312  0.90444388  0.78758789  1
  Li  Li153  1  0.74441697  0.01888132  0.77478135  1
  Li  Li154  1  0.26984422  0.79569795  0.84125563  1
  Li  Li155  1  0.27576478  0.47988210  0.84346232  1
  Li  Li156  1  0.30859584  0.99562614  0.85066887  1
  Li  Li157  1  0.24251395  0.27661769  0.83370676  1
  Li  Li158  1  0.61405071  0.19047231  0.80362039  1
  Li  Li159  1  0.68200458  0.90834071  0.82000284  1
  Li  Li160  1  0.65407677  0.39141531  0.81260673  1
  Li  Li161  1  0.63979879  0.71002088  0.81091584  1
  Li  Li162  1  0.97362920  0.68013585  0.83065386  1
  Li  Li163  1  0.57475926  0.59791222  0.85498378  1
  Li  Li164  1  0.55255572  0.07923642  0.84860549  1
  Li  Li165  1  0.99955766  0.19179074  0.83532949  1
  Li  Li166  1  0.52689323  0.97008174  0.90427569  1
  Li  Li167  1  0.53379164  0.65911620  0.90610346  1
  Li  Li168  1  0.56309279  0.16775770  0.91077924  1
  Li  Li169  1  0.50217338  0.45205805  0.89258573  1
  Li  Li170  1  0.87113159  0.36487547  0.86408106  1
  Li  Li171  1  0.93813968  0.08350941  0.88070426  1
  Li  Li172  1  0.90702125  0.56894894  0.87420191  1
  Li  Li173  1  0.89001237  0.88455464  0.87277146  1
  Li  Li174  1  0.22006280  0.85506049  0.89181407  1
  Li  Li175  1  0.81793346  0.77467937  0.92019586  1
  Li  Li176  1  0.80733748  0.25410045  0.90853148  1
  Li  Li177  1  0.25375593  0.37266681  0.89614455  1
  Li  Li178  1  0.79909168  0.14977702  0.96113981  1
  Li  Li179  1  0.86057531  0.84044952  0.00326614  1
  Li  Li180  1  0.80585450  0.35698509  0.96911356  1
  Li  Li181  1  0.72871256  0.62597045  0.96116506  1
  Li  Li182  1  0.10771532  0.54579916  0.92626187  1
  Li  Li183  1  0.18818990  0.25755178  0.93940148  1
  Li  Li184  1  0.14983093  0.74195862  0.93725272  1
  Li  Li185  1  0.16661438  0.05038696  0.93197600  1
  Li  Li186  1  0.53071515  0.99224639  0.95700491  1
  Li  Li187  1  0.10620648  0.94768828  0.98024322  1
  Li  Li188  1  0.05367846  0.43488523  0.97082466  1
  Li  Li189  1  0.47355325  0.52501484  0.94316348  1
  Li  Li190  1  0.43102504  0.50531803  0.99223531  1
  Li  Li191  1  0.43351684  0.19842448  0.97942016  1
  P  P192  1  0.70126092  0.03667859  0.01114384  1
  P  P193  1  0.70002592  0.52390107  0.01405709  1
  P  P194  1  0.98395043  0.27188825  0.05643784  1
  P  P195  1  0.91150934  0.76575238  0.05928673  1
  P  P196  1  0.36641935  0.89282868  0.07335335  1
  P  P197  1  0.34966991  0.37876113  0.07869139  1
  P  P198  1  0.70565675  0.10274479  0.11376714  1
  P  P199  1  0.67431946  0.58420922  0.11906405  1
  P  P200  1  0.11350554  0.71827838  0.13434234  1
  P  P201  1  0.08596895  0.19788217  0.14307337  1
  P  P202  1  0.44920712  0.92735734  0.17475034  1
  P  P203  1  0.41858011  0.40898272  0.18116320  1
  P  P204  1  0.85805823  0.54310337  0.19614919  1
  P  P205  1  0.82907654  0.02245005  0.20361587  1
  P  P206  1  0.19335581  0.75244000  0.23579658  1
  P  P207  1  0.16402674  0.23248260  0.24293332  1
  P  P208  1  0.60221867  0.36783025  0.25742293  1
  P  P209  1  0.57369257  0.84785345  0.26485197  1
  P  P210  1  0.93811981  0.57796852  0.29713423  1
  P  P211  1  0.90893605  0.05739055  0.30442062  1
  P  P212  1  0.34831192  0.19212830  0.31895854  1
  P  P213  1  0.31787443  0.67376460  0.32606295  1
  P  P214  1  0.68261379  0.40386036  0.35790959  1
  P  P215  1  0.65551086  0.88193658  0.36638105  1
  P  P216  1  0.09542449  0.01730427  0.38089882  1
  P  P217  1  0.06128919  0.49848867  0.38699087  1
  P  P218  1  0.42958641  0.22883590  0.41867890  1
  P  P219  1  0.39490536  0.70734933  0.42801311  1
  P  P220  1  0.84464832  0.85193869  0.44245435  1
  P  P221  1  0.81007067  0.32491779  0.44748099  1
  P  P222  1  0.17852700  0.05681530  0.47959860  1
  P  P223  1  0.10399095  0.53509088  0.48551559  1
  P  P224  1  0.57202682  0.63854465  0.51131511  1
  P  P225  1  0.57568760  0.15128929  0.51410505  1
  P  P226  1  0.28855941  0.40216424  0.55640128  1
  P  P227  1  0.36274566  0.90860377  0.55966782  1
  P  P228  1  0.90877080  0.78108782  0.57358171  1
  P  P229  1  0.92313500  0.29586649  0.57884579  1
  P  P230  1  0.56824000  0.57179109  0.61401867  1
  P  P231  1  0.59891135  0.09031500  0.61921639  1
  P  P232  1  0.15996735  0.95677420  0.63449227  1
  P  P233  1  0.18776046  0.47662391  0.64315677  1
  P  P234  1  0.82596939  0.74740898  0.67487953  1
  P  P235  1  0.85527542  0.26606021  0.68123506  1
  P  P236  1  0.41658856  0.13166565  0.69619151  1
  P  P237  1  0.44561791  0.65230734  0.70373436  1
  P  P238  1  0.08195326  0.92274224  0.73591683  1
  P  P239  1  0.11117139  0.44199947  0.74290566  1
  P  P240  1  0.67279616  0.30692656  0.75748702  1
  P  P241  1  0.70200867  0.82706782  0.76500112  1
  P  P242  1  0.33757617  0.09703573  0.79716523  1
  P  P243  1  0.36666298  0.61756345  0.80437908  1
  P  P244  1  0.92712586  0.48296260  0.81889906  1
  P  P245  1  0.95821040  0.00112582  0.82620426  1
  P  P246  1  0.59323568  0.27185499  0.85785064  1
  P  P247  1  0.61932587  0.79345964  0.86643242  1
  P  P248  1  0.17976420  0.65850639  0.88085248  1
  P  P249  1  0.21489091  0.17672429  0.88695223  1
  P  P250  1  0.84821274  0.44686594  0.91861111  1
  P  P251  1  0.87929211  0.96851598  0.92798985  1
  P  P252  1  0.42982966  0.82411556  0.94251725  1
  P  P253  1  0.46699963  0.35012187  0.94732036  1
  P  P254  1  0.10227894  0.61837226  0.97929275  1
  P  P255  1  0.17017414  0.14068041  0.98552594  1
  O  O256  1  0.61505379  0.08389268  0.03833360  1
  O  O257  1  0.58157278  0.60774665  0.99433139  1
  O  O258  1  0.85574525  0.24356985  0.03733019  1
  O  O259  1  0.78411677  0.56042248  0.03659491  1
  O  O260  1  0.91548671  0.96543573  0.01435536  1
  O  O261  1  0.79713045  0.78572210  0.03380313  1
  O  O262  1  0.60837272  0.97247087  0.99859977  1
  O  O263  1  0.85655732  0.43775506  0.99740376  1
  O  O264  1  0.68126772  0.12868255  0.99309141  1
  O  O265  1  0.56649822  0.47970834  0.02685581  1
  O  O266  1  0.07121831  0.33337315  0.04162534  1
  O  O267  1  0.12596981  0.70533260  0.05486320  1
  O  O268  1  0.14874228  0.95425986  0.07603200  1
  O  O269  1  0.19856873  0.47959069  0.06686768  1
  O  O270  1  0.14861640  0.16910978  0.06486992  1
  O  O271  1  0.55969021  0.07582208  0.09916900  1
  O  O272  1  0.49233605  0.40351915  0.09464654  1
  O  O273  1  0.45813940  0.88692529  0.10084513  1
  O  O274  1  0.58184545  0.59323849  0.09156637  1
  O  O275  1  0.41318589  0.78649350  0.06195917  1
  O  O276  1  0.87488122  0.87242064  0.07148918  1
  O  O277  1  0.86374847  0.33770864  0.07908382  1
  O  O278  1  0.45615452  0.30460673  0.05546362  1
  O  O279  1  0.84477759  0.70558444  0.07890381  1
  O  O280  1  0.43543465  0.95250592  0.05391036  1
  O  O281  1  0.26240435  0.32500960  0.09736795  1
  O  O282  1  0.78741244  0.15480817  0.09381838  1
  O  O283  1  0.89144092  0.52035954  0.11671959  1
  O  O284  1  0.89735959  0.78239708  0.13712196  1
  O  O285  1  0.92268808  0.29784466  0.13290029  1
  O  O286  1  0.86785810  0.00436482  0.12474831  1
  O  O287  1  0.30595452  0.90006950  0.15943127  1
  O  O288  1  0.23277649  0.22571013  0.15715241  1
  O  O289  1  0.20649318  0.70953614  0.16191162  1
  O  O290  1  0.32830766  0.41759708  0.15343046  1
  O  O291  1  0.15657709  0.60978898  0.12384562  1
  O  O292  1  0.62982858  0.69191806  0.13033576  1
  O  O293  1  0.60731661  0.17861181  0.13655077  1
  O  O294  1  0.18220102  0.12513502  0.11966776  1
  O  O295  1  0.59696433  0.52781327  0.13845963  1
  O  O296  1  0.19298318  0.77318535  0.11503644  1
  O  O297  1  0.00593232  0.14359372  0.16247818  1
  O  O298  1  0.53009265  0.98273949  0.15569314  1
  O  O299  1  0.63495160  0.34480626  0.17908133  1
  O  O300  1  0.64159267  0.60676044  0.19829743  1
  O  O301  1  0.66697787  0.12250567  0.19298541  1
  O  O302  1  0.61295198  0.82742060  0.18499284  1
  O  O303  1  0.04874414  0.72531782  0.22082366  1
  O  O304  1  0.97286256  0.04954655  0.21880198  1
  O  O305  1  0.94898934  0.53487579  0.22378198  1
  O  O306  1  0.07206732  0.24109394  0.21536450  1
  O  O307  1  0.90260694  0.43436094  0.18565391  1
  O  O308  1  0.37439110  0.51749798  0.19171469  1
  O  O309  1  0.35020503  0.99859880  0.19828449  1
  O  O310  1  0.92832866  0.94998688  0.18030671  1
  O  O311  1  0.33827635  0.35375319  0.20034074  1
  O  O312  1  0.93794616  0.59814895  0.17687924  1
  O  O313  1  0.74632794  0.96868539  0.22280480  1
  O  O314  1  0.27482475  0.80630214  0.21639895  1
  O  O315  1  0.38031642  0.16881642  0.24052652  1
  O  O316  1  0.38594566  0.43168422  0.25975563  1
  O  O317  1  0.40926300  0.94744705  0.25451444  1
  O  O318  1  0.35661298  0.65263313  0.24625501  1
  O  O319  1  0.79389415  0.55051222  0.28215218  1
  O  O320  1  0.71748807  0.87564318  0.27981147  1
  O  O321  1  0.69442274  0.35937378  0.28497683  1
  O  O322  1  0.81745586  0.06575944  0.27681497  1
  O  O323  1  0.64675036  0.25922208  0.24683069  1
  O  O324  1  0.11949563  0.34111902  0.25347945  1
  O  O325  1  0.09575964  0.82498955  0.25918896  1
  O  O326  1  0.67139165  0.77598798  0.24134079  1
  O  O327  1  0.08479645  0.17701222  0.26216636  1
  O  O328  1  0.68174203  0.42329926  0.23822300  1
  O  O329  1  0.49380937  0.79300775  0.28417970  1
  O  O330  1  0.01783874  0.63310840  0.27786986  1
  O  O331  1  0.12525722  0.99357818  0.30219413  1
  O  O332  1  0.13191472  0.25667321  0.32116975  1
  O  O333  1  0.15467918  0.77339293  0.31556115  1
  O  O334  1  0.10266085  0.47795390  0.30723815  1
  O  O335  1  0.53891112  0.37643603  0.34283770  1
  O  O336  1  0.46199205  0.70089570  0.34114627  1
  O  O337  1  0.44001859  0.18443189  0.34648801  1
  O  O338  1  0.56307785  0.88966791  0.33878847  1
  O  O339  1  0.39205536  0.08336998  0.30861628  1
  O  O340  1  0.86440443  0.16625070  0.31485548  1
  O  O341  1  0.84112521  0.64924906  0.32075495  1
  O  O342  1  0.41588835  0.60121084  0.30265157  1
  O  O343  1  0.82904398  0.00237074  0.32366304  1
  O  O344  1  0.42794726  0.24701022  0.29957195  1
  O  O345  1  0.23662306  0.61939392  0.34534644  1
  O  O346  1  0.76442682  0.45836167  0.33884852  1
  O  O347  1  0.87213680  0.81874713  0.36384491  1
  O  O348  1  0.87845739  0.08074710  0.38325777  1
  O  O349  1  0.89642121  0.59942509  0.37753460  1
  O  O350  1  0.84622117  0.30367831  0.36821545  1
  O  O351  1  0.28709304  0.19939002  0.40408884  1
  O  O352  1  0.20335357  0.52475363  0.40304635  1
  O  O353  1  0.18867842  0.00947121  0.40825033  1
  O  O354  1  0.31080568  0.71104521  0.39989969  1
  O  O355  1  0.14109313  0.90906723  0.36992155  1
  O  O356  1  0.61125736  0.99123651  0.37638907  1
  O  O357  1  0.58431621  0.47548851  0.38141232  1
  O  O358  1  0.16144882  0.42948390  0.36318610  1
  O  O359  1  0.57677639  0.82757681  0.38594621  1
  O  O360  1  0.17164791  0.07396500  0.36143076  1
  O  O361  1  0.98163460  0.44022280  0.40522514  1
  O  O362  1  0.50822554  0.28377234  0.39914759  1
  O  O363  1  0.61276316  0.64165966  0.42707188  1
  O  O364  1  0.63367106  0.92295846  0.44344875  1
  O  O365  1  0.64594243  0.42387285  0.43702525  1
  O  O366  1  0.59606602  0.13272713  0.42984035  1
  O  O367  1  0.00192428  0.05847033  0.46432894  1
  O  O368  1  0.95816679  0.35234292  0.46101644  1
  O  O369  1  0.94178858  0.84397296  0.46958445  1
  O  O370  1  0.99454537  0.55536940  0.45938818  1
  O  O371  1  0.87257175  0.74369347  0.43304172  1
  O  O372  1  0.35628806  0.81449479  0.43760709  1
  O  O373  1  0.32809629  0.30253670  0.44165699  1
  O  O374  1  0.90238215  0.24668907  0.42469803  1
  O  O375  1  0.30740352  0.65428445  0.44713500  1
  O  O376  1  0.93690752  0.89803393  0.42226772  1
  O  O377  1  0.72941189  0.27323046  0.46738150  1
  O  O378  1  0.27311287  0.10774726  0.46140522  1
  O  O379  1  0.31505069  0.46010182  0.48072011  1
  O  O380  1  0.30148863  0.94594546  0.48491504  1
  O  O381  1  0.10461428  0.62819291  0.50009623  1
  O  O382  1  0.10043633  0.12621065  0.50447008  1
  O  O383  1  0.01909130  0.48181809  0.50452896  1
  O  O384  1  0.65697802  0.59096317  0.53851859  1
  O  O385  1  0.69163438  0.06701703  0.49432089  1
  O  O386  1  0.41720759  0.43026679  0.53730304  1
  O  O387  1  0.49136443  0.11540680  0.53676269  1
  O  O388  1  0.35806862  0.71075042  0.51442184  1
  O  O389  1  0.47780283  0.88812876  0.53424542  1
  O  O390  1  0.66703303  0.70196281  0.49892635  1
  O  O391  1  0.42025900  0.23812753  0.49751071  1
  O  O392  1  0.59160073  0.54680311  0.49315664  1
  O  O393  1  0.71168571  0.19390822  0.52684082  1
  O  O394  1  0.20076269  0.34107153  0.54150289  1
  O  O395  1  0.14827532  0.96853028  0.55505156  1
  O  O396  1  0.12637984  0.71996866  0.57631279  1
  O  O397  1  0.07480019  0.19528087  0.56697430  1
  O  O398  1  0.12437721  0.50509750  0.56486305  1
  O  O399  1  0.71404744  0.59844932  0.59929340  1
  O  O400  1  0.78029107  0.27068061  0.59462552  1
  O  O401  1  0.81657867  0.78738611  0.60106150  1
  O  O402  1  0.69179074  0.08103589  0.59173498  1
  O  O403  1  0.86130064  0.88744645  0.56209692  1
  O  O404  1  0.39984106  0.80213004  0.57200641  1
  O  O405  1  0.40879318  0.33624891  0.57903741  1
  O  O406  1  0.81651455  0.37037157  0.55567360  1
  O  O407  1  0.42843734  0.96961609  0.57915126  1
  O  O408  1  0.84028193  0.72102600  0.55417394  1
  O  O409  1  0.00992225  0.34965216  0.59759575  1
  O  O410  1  0.48571006  0.51964989  0.59420222  1
  O  O411  1  0.38190210  0.15428319  0.61680960  1
  O  O412  1  0.37616571  0.89284759  0.63728080  1
  O  O413  1  0.35066782  0.37650107  0.63296888  1
  O  O414  1  0.40692571  0.67042258  0.62501310  1
  O  O415  1  0.96945649  0.77456195  0.65960432  1
  O  O416  1  0.04107358  0.44896781  0.65732629  1
  O  O417  1  0.06688875  0.96569755  0.66205912  1
  O  O418  1  0.94503731  0.25711359  0.65347019  1
  O  O419  1  0.11638229  0.06515834  0.62389287  1
  O  O420  1  0.64383325  0.98265927  0.63052379  1
  O  O421  1  0.66685660  0.49623219  0.63682320  1
  O  O422  1  0.09141719  0.54909192  0.61972093  1
  O  O423  1  0.67598324  0.14682637  0.63862427  1
  O  O424  1  0.08098629  0.90148477  0.61522851  1
  O  O425  1  0.26832857  0.53079800  0.66251078  1
  O  O426  1  0.74500443  0.69210023  0.65581279  1
  O  O427  1  0.63895014  0.33044100  0.67921050  1
  O  O428  1  0.63293134  0.06759081  0.69836641  1
  O  O429  1  0.60781868  0.55233685  0.69309948  1
  O  O430  1  0.66190689  0.84740271  0.68505610  1
  O  O431  1  0.22581527  0.95022077  0.72086468  1
  O  O432  1  0.30195851  0.62506304  0.71888968  1
  O  O433  1  0.32572561  0.14006824  0.72383087  1
  O  O434  1  0.20329828  0.43326796  0.71535059  1
  O  O435  1  0.37282836  0.24027669  0.68571056  1
  O  O436  1  0.89892414  0.15774591  0.69187704  1
  O  O437  1  0.92464186  0.67623023  0.69842411  1
  O  O438  1  0.34647968  0.72470426  0.68040648  1
  O  O439  1  0.93633831  0.32105095  0.70035884  1
  O  O440  1  0.33579323  0.07706082  0.67692051  1
  O  O441  1  0.52794296  0.70641485  0.72288771  1
  O  O442  1  0.00092799  0.86840370  0.71659356  1
  O  O443  1  0.89492754  0.50586843  0.74047223  1
  O  O444  1  0.88909707  0.24311027  0.75981151  1
  O  O445  1  0.86588347  0.72744534  0.75457827  1
  O  O446  1  0.91831337  0.02239511  0.74635424  1
  O  O447  1  0.48213257  0.12424656  0.78220180  1
  O  O448  1  0.55825524  0.79934661  0.77999397  1
  O  O449  1  0.58076825  0.31553307  0.78504063  1
  O  O450  1  0.45847399  0.60905242  0.77679705  1
  O  O451  1  0.62837579  0.41547828  0.74685692  1
  O  O452  1  0.15562446  0.33345377  0.75351417  1
  O  O453  1  0.18019450  0.85052309  0.75933106  1
  O  O454  1  0.60404102  0.89894226  0.74150545  1
  O  O455  1  0.19053213  0.49753046  0.76210656  1
  O  O456  1  0.59325805  0.25142348  0.73830135  1
  O  O457  1  0.78238984  0.88165526  0.78432812  1
  O  O458  1  0.25771901  0.04188822  0.77793239  1
  O  O459  1  0.15039183  0.68166742  0.80208901  1
  O  O460  1  0.14339865  0.41817849  0.82112145  1
  O  O461  1  0.12145101  0.90145243  0.81574274  1
  O  O462  1  0.17293349  0.19706479  0.80721549  1
  O  O463  1  0.73733442  0.29898595  0.84279894  1
  O  O464  1  0.81372294  0.97420927  0.84124281  1
  O  O465  1  0.83538729  0.49109042  0.84645717  1
  O  O466  1  0.71238143  0.78543586  0.83887116  1
  O  O467  1  0.88389573  0.59163760  0.80854069  1
  O  O468  1  0.41022146  0.50882922  0.81479693  1
  O  O469  1  0.43447086  0.02587075  0.82081383  1
  O  O470  1  0.86038014  0.07359093  0.80276028  1
  O  O471  1  0.44673810  0.67236633  0.82366958  1
  O  O472  1  0.84697431  0.42818310  0.79957148  1
  O  O473  1  0.03939244  0.05560265  0.84546115  1
  O  O474  1  0.51152777  0.21713196  0.83883445  1
  O  O475  1  0.40287674  0.85672282  0.86381755  1
  O  O476  1  0.39679995  0.59486797  0.88322968  1
  O  O477  1  0.38010272  0.07583716  0.87755618  1
  O  O478  1  0.42967181  0.37221070  0.86806863  1
  O  O479  1  0.99074811  0.47612098  0.90400700  1
  O  O480  1  0.07256805  0.15041563  0.90292777  1
  O  O481  1  0.08620562  0.66651237  0.90816967  1
  O  O482  1  0.96305635  0.96485729  0.89985127  1
  O  O483  1  0.13455007  0.76672856  0.86992182  1
  O  O484  1  0.66321643  0.68418255  0.87641144  1
  O  O485  1  0.69132856  0.20038255  0.88138854  1
  O  O486  1  0.11497331  0.24538241  0.86308495  1
  O  O487  1  0.69778040  0.84780954  0.88603286  1
  O  O488  1  0.10336146  0.60206887  0.86133690  1
  O  O489  1  0.29407593  0.23522665  0.90519436  1
  O  O490  1  0.76954320  0.39151897  0.89919561  1
  O  O491  1  0.66156319  0.03429268  0.92711349  1
  O  O492  1  0.64094811  0.75343135  0.94378534  1
  O  O493  1  0.63016448  0.25081067  0.93689238  1
  O  O494  1  0.68134590  0.54325174  0.92962555  1
  O  O495  1  0.27830230  0.61402500  0.96345105  1
  O  O496  1  0.31812392  0.32363299  0.96097008  1
  O  O497  1  0.33172675  0.83155390  0.96954102  1
  O  O498  1  0.27975641  0.12063255  0.95941585  1
  O  O499  1  0.40207928  0.93242407  0.93318177  1
  O  O500  1  0.91774697  0.86133560  0.93751982  1
  O  O501  1  0.94904026  0.37392359  0.94173886  1
  O  O502  1  0.37554332  0.42818229  0.92447986  1
  O  O503  1  0.96735077  0.02134579  0.94709544  1
  O  O504  1  0.33858683  0.77820669  0.92211881  1
  O  O505  1  0.54863096  0.40139387  0.96717424  1
  O  O506  1  0.00007724  0.57079522  0.96142981  1
  O  O507  1  0.95880593  0.21525393  0.98075110  1
  O  O508  1  0.98980130  0.73015966  0.98509871  1
  O  O509  1  0.17045939  0.04734343  0.00013080  1
  O  O510  1  0.17908201  0.54800586  0.00400602  1
  O  O511  1  0.25425180  0.19452883  0.00448186  1
