# generated using pymatgen
data_Li3PO4
_symmetry_space_group_name_H-M   'P 1'
_cell_length_a   7.91303400
_cell_length_b   14.50933148
_cell_length_c   50.87415159
_cell_angle_alpha   90.00000000
_cell_angle_beta   90.00000000
_cell_angle_gamma   64.42826301
_symmetry_Int_Tables_number   1
_chemical_formula_structural   Li3PO4
_chemical_formula_sum   'Li192 P64 O256'
_cell_volume   5268.85304930
_cell_formula_units_Z   64
loop_
 _symmetry_equiv_pos_site_id
 _symmetry_equiv_pos_as_xyz
  1  'x, y, z'
loop_
 _atom_site_type_symbol
 _atom_site_label
 _atom_site_symmetry_multiplicity
 _atom_site_fract_x
 _atom_site_fract_y
 _atom_site_fract_z
 _atom_site_occupancy
  Li  Li0  1  0.37048425  0.66528466  0.99653303  1
  Li  Li1  1  0.31349102  0.97361276  0.03907551  1
  Li  Li2  1  0.32042180  0.18053211  0.03081047  1
  Li  Li3  1  0.94369656  0.32966502  0.00780374  1
  Li  Li4  1  0.94831933  0.02240169  0.02052312  1
  Li  Li5  1  0.61787295  0.77161313  0.01962302  1
  Li  Li6  1  0.98509001  0.35041142  0.05695309  1
  Li  Li7  1  0.56848037  0.25789444  0.02936959  1
  Li  Li8  1  0.05043708  0.48379018  0.09369565  1
  Li  Li9  1  0.04124128  0.79437993  0.09597253  1
  Li  Li10  1  0.24421452  0.45021820  0.03854219  1
  Li  Li11  1  0.07666253  0.99197811  0.08921121  1
  Li  Li12  1  0.70163669  0.08096277  0.06077171  1
  Li  Li13  1  0.61954908  0.37004420  0.07381388  1
  Li  Li14  1  0.68108669  0.87394413  0.06796372  1
  Li  Li15  1  0.66348913  0.56612913  0.06260024  1
  Li  Li16  1  0.33025144  0.59954909  0.07945862  1
  Li  Li17  1  0.04544686  0.81645150  0.04317111  1
  Li  Li18  1  0.76652454  0.19717883  0.10396044  1
  Li  Li19  1  0.32101776  0.07901454  0.09148080  1
  Li  Li20  1  0.78959257  0.30454015  0.15649557  1
  Li  Li21  1  0.78190821  0.62047373  0.15901418  1
  Li  Li22  1  0.01372619  0.27577208  0.10728732  1
  Li  Li23  1  0.82157342  0.82044570  0.14951845  1
  Li  Li24  1  0.45228747  0.90814716  0.11933316  1
  Li  Li25  1  0.38366927  0.18933834  0.13595957  1
  Li  Li26  1  0.40405397  0.70966956  0.12717525  1
  Li  Li27  1  0.42116472  0.39216838  0.12604649  1
  Li  Li28  1  0.08599881  0.42358661  0.14488597  1
  Li  Li29  1  0.73586874  0.67782924  0.10825316  1
  Li  Li30  1  0.51219803  0.01665532  0.16475151  1
  Li  Li31  1  0.06651981  0.90362898  0.15155494  1
  Li  Li32  1  0.53703695  0.12851650  0.21745600  1
  Li  Li33  1  0.52692148  0.44636523  0.22039749  1
  Li  Li34  1  0.75579208  0.10163770  0.16619401  1
  Li  Li35  1  0.56526226  0.64678175  0.21110561  1
  Li  Li36  1  0.19603526  0.73284519  0.18019308  1
  Li  Li37  1  0.12573828  0.01519218  0.19654064  1
  Li  Li38  1  0.15186978  0.53491241  0.18902167  1
  Li  Li39  1  0.16883591  0.21518806  0.18735682  1
  Li  Li40  1  0.83302267  0.24685819  0.20696722  1
  Li  Li41  1  0.48738519  0.50480482  0.16923553  1
  Li  Li42  1  0.25711571  0.84407269  0.22544423  1
  Li  Li43  1  0.80950445  0.72980737  0.21271688  1
  Li  Li44  1  0.28279875  0.95256129  0.27884033  1
  Li  Li45  1  0.27245148  0.26991078  0.28214522  1
  Li  Li46  1  0.50045316  0.92797858  0.22696662  1
  Li  Li47  1  0.30891393  0.47137713  0.27201721  1
  Li  Li48  1  0.94071056  0.55836469  0.24179567  1
  Li  Li49  1  0.87077329  0.84090498  0.25752421  1
  Li  Li50  1  0.89573300  0.35969120  0.25090457  1
  Li  Li51  1  0.91270930  0.04021953  0.24836883  1
  Li  Li52  1  0.57717316  0.07100158  0.26816572  1
  Li  Li53  1  0.23136141  0.32795489  0.23131533  1
  Li  Li54  1  0.00017965  0.66909616  0.28676943  1
  Li  Li55  1  0.55124609  0.55680201  0.27389555  1
  Li  Li56  1  0.02592179  0.77779582  0.34051120  1
  Li  Li57  1  0.01908886  0.09255291  0.34314593  1
  Li  Li58  1  0.24376852  0.75224181  0.28838597  1
  Li  Li59  1  0.05076788  0.29549726  0.33295958  1
  Li  Li60  1  0.68177379  0.38288928  0.30214257  1
  Li  Li61  1  0.61271402  0.66664504  0.31914100  1
  Li  Li62  1  0.64141695  0.18286880  0.31202978  1
  Li  Li63  1  0.65704331  0.86419154  0.31016395  1
  Li  Li64  1  0.32149354  0.89447191  0.33027418  1
  Li  Li65  1  0.97766077  0.15151117  0.29274205  1
  Li  Li66  1  0.74327620  0.49348172  0.34682247  1
  Li  Li67  1  0.29568876  0.37830341  0.33504758  1
  Li  Li68  1  0.77859693  0.60087590  0.40029440  1
  Li  Li69  1  0.75961410  0.91723399  0.40624138  1
  Li  Li70  1  0.98791224  0.57851625  0.34907088  1
  Li  Li71  1  0.79493351  0.11988344  0.39361714  1
  Li  Li72  1  0.42773430  0.20375114  0.36492272  1
  Li  Li73  1  0.35760491  0.49198985  0.37934127  1
  Li  Li74  1  0.38640327  0.00404755  0.37463399  1
  Li  Li75  1  0.40324641  0.68953226  0.37146838  1
  Li  Li76  1  0.07085505  0.71861207  0.39088130  1
  Li  Li77  1  0.72168844  0.97513247  0.35445767  1
  Li  Li78  1  0.48489987  0.31974673  0.40612143  1
  Li  Li79  1  0.04598016  0.20541247  0.39421410  1
  Li  Li80  1  0.51510843  0.43100950  0.46439249  1
  Li  Li81  1  0.43310234  0.79146860  0.51577889  1
  Li  Li82  1  0.72782222  0.40836906  0.40941803  1
  Li  Li83  1  0.54741294  0.92268704  0.46096632  1
  Li  Li84  1  0.14900965  0.02923635  0.42725116  1
  Li  Li85  1  0.10445818  0.32148500  0.43995011  1
  Li  Li86  1  0.12487790  0.82753128  0.43888999  1
  Li  Li87  1  0.15878780  0.51122708  0.43217567  1
  Li  Li88  1  0.76062335  0.58669124  0.45142094  1
  Li  Li89  1  0.47311507  0.79437151  0.41858280  1
  Li  Li90  1  0.18323464  0.15246192  0.46703469  1
  Li  Li91  1  0.74678232  0.02839644  0.46084520  1
  Li  Li92  1  0.45096095  0.26607294  0.46289052  1
  Li  Li93  1  0.79059052  0.19308186  0.49060898  1
  Li  Li94  1  0.89034004  0.35774093  0.48971848  1
  Li  Li95  1  0.23311087  0.62300570  0.47611352  1
  Li  Li96  1  0.92705452  0.66020495  0.49617121  1
  Li  Li97  1  0.98581260  0.35153870  0.53894834  1
  Li  Li98  1  0.97955069  0.14375702  0.53035596  1
  Li  Li99  1  0.35458796  0.99474648  0.50755976  1
  Li  Li100  1  0.35164227  0.30256333  0.52015450  1
  Li  Li101  1  0.68100260  0.55308677  0.51936054  1
  Li  Li102  1  0.31343478  0.97571610  0.55668455  1
  Li  Li103  1  0.73252935  0.06618757  0.52930635  1
  Li  Li104  1  0.24744264  0.84129242  0.59364819  1
  Li  Li105  1  0.25778795  0.53139251  0.59577404  1
  Li  Li106  1  0.05471970  0.87481152  0.53882527  1
  Li  Li107  1  0.22220488  0.33359470  0.58910458  1
  Li  Li108  1  0.59852821  0.24412975  0.56060986  1
  Li  Li109  1  0.67982621  0.95521608  0.57372640  1
  Li  Li110  1  0.61789061  0.45117409  0.56772941  1
  Li  Li111  1  0.63406650  0.75988527  0.56277220  1
  Li  Li112  1  0.96734050  0.72615937  0.57966822  1
  Li  Li113  1  0.25534993  0.50839308  0.54292187  1
  Li  Li114  1  0.53247906  0.12914599  0.60370894  1
  Li  Li115  1  0.97875930  0.24667582  0.59144180  1
  Li  Li116  1  0.50857108  0.02207263  0.65642259  1
  Li  Li117  1  0.51726490  0.70455278  0.65882763  1
  Li  Li118  1  0.28527087  0.04847503  0.60711212  1
  Li  Li119  1  0.47683318  0.50615348  0.64938689  1
  Li  Li120  1  0.84690102  0.41757012  0.61905574  1
  Li  Li121  1  0.91693645  0.13611143  0.63596975  1
  Li  Li122  1  0.89558521  0.61583497  0.62718251  1
  Li  Li123  1  0.87807827  0.93349710  0.62601251  1
  Li  Li124  1  0.21397561  0.90189639  0.64491122  1
  Li  Li125  1  0.56404069  0.64756864  0.60829534  1
  Li  Li126  1  0.78718401  0.30888047  0.66460657  1
  Li  Li127  1  0.23430304  0.42192957  0.65121901  1
  Li  Li128  1  0.76223690  0.19709648  0.71751525  1
  Li  Li129  1  0.77415308  0.87850626  0.72044782  1
  Li  Li130  1  0.54468781  0.22382148  0.66600397  1
  Li  Li131  1  0.73595001  0.67851271  0.71103020  1
  Li  Li132  1  0.10330156  0.59224443  0.68005098  1
  Li  Li133  1  0.17325919  0.31007152  0.69628988  1
  Li  Li134  1  0.14752937  0.79101738  0.68917622  1
  Li  Li135  1  0.13288782  0.10877420  0.68739572  1
  Li  Li136  1  0.46755592  0.07904575  0.70701211  1
  Li  Li137  1  0.81213111  0.82067649  0.66921021  1
  Li  Li138  1  0.04303759  0.48130432  0.72521255  1
  Li  Li139  1  0.49016516  0.59573540  0.71242285  1
  Li  Li140  1  0.01863616  0.37302776  0.77914210  1
  Li  Li141  1  0.02812245  0.05553220  0.78229117  1
  Li  Li142  1  0.79840742  0.39783011  0.72712949  1
  Li  Li143  1  0.99092608  0.85345812  0.77211807  1
  Li  Li144  1  0.36067660  0.76701248  0.74165784  1
  Li  Li145  1  0.42971499  0.48451366  0.75770026  1
  Li  Li146  1  0.40401865  0.96581486  0.75077668  1
  Li  Li147  1  0.38627178  0.28568850  0.74842748  1
  Li  Li148  1  0.72228796  0.25407178  0.76842517  1
  Li  Li149  1  0.06846396  0.99708007  0.73149196  1
  Li  Li150  1  0.29972697  0.65583189  0.78651653  1
  Li  Li151  1  0.74683106  0.76948189  0.77391273  1
  Li  Li152  1  0.27543920  0.54719007  0.84039153  1
  Li  Li153  1  0.28227381  0.23161328  0.84343080  1
  Li  Li154  1  0.05546012  0.57237240  0.78830336  1
  Li  Li155  1  0.24807146  0.03023980  0.83319945  1
  Li  Li156  1  0.61733291  0.94155248  0.80232075  1
  Li  Li157  1  0.68950595  0.65847591  0.81911576  1
  Li  Li158  1  0.65881772  0.14262453  0.81245764  1
  Li  Li159  1  0.64485699  0.46117043  0.81023770  1
  Li  Li160  1  0.98006789  0.42962333  0.83068989  1
  Li  Li161  1  0.32400963  0.17351586  0.79279248  1
  Li  Li162  1  0.55709567  0.83224484  0.84717931  1
  Li  Li163  1  0.00479280  0.94658704  0.83516175  1
  Li  Li164  1  0.52204140  0.72370727  0.90038076  1
  Li  Li165  1  0.54137237  0.40643301  0.90690763  1
  Li  Li166  1  0.31291185  0.74696442  0.84923655  1
  Li  Li167  1  0.50607105  0.20466608  0.89406106  1
  Li  Li168  1  0.87314719  0.12109227  0.86537327  1
  Li  Li169  1  0.94292233  0.83275297  0.87959944  1
  Li  Li170  1  0.91300108  0.32037941  0.87495867  1
  Li  Li171  1  0.89862197  0.63525917  0.87152020  1
  Li  Li172  1  0.23045710  0.60540742  0.89093231  1
  Li  Li173  1  0.57758593  0.35063138  0.85493397  1
  Li  Li174  1  0.81651351  0.00517036  0.90634885  1
  Li  Li175  1  0.25485966  0.11872893  0.89474084  1
  Li  Li176  1  0.78480172  0.89333970  0.96468248  1
  Li  Li177  1  0.86544383  0.53289507  0.01573445  1
  Li  Li178  1  0.57308006  0.91672949  0.90962202  1
  Li  Li179  1  0.75514219  0.40102973  0.96109025  1
  Li  Li180  1  0.15294671  0.29588945  0.92749841  1
  Li  Li181  1  0.19676481  0.00188885  0.94044218  1
  Li  Li182  1  0.17389381  0.49617859  0.93872777  1
  Li  Li183  1  0.14095634  0.81248195  0.93229167  1
  Li  Li184  1  0.54481745  0.73477574  0.95169593  1
  Li  Li185  1  0.82699222  0.53010723  0.91855178  1
  Li  Li186  1  0.11771750  0.17121081  0.96720962  1
  Li  Li187  1  0.55357004  0.29672191  0.96164702  1
  Li  Li188  1  0.84945569  0.05797188  0.96328465  1
  Li  Li189  1  0.50891507  0.13102034  0.99100671  1
  Li  Li190  1  0.40970685  0.96600317  0.98996572  1
  Li  Li191  1  0.06693975  0.70124521  0.97640344  1
  P  P192  1  0.68437854  0.96458487  0.01457539  1
  P  P193  1  0.61425613  0.44268652  0.02052331  1
  P  P194  1  0.94391465  0.64813603  0.05741171  1
  P  P195  1  0.39380196  0.79250631  0.07208288  1
  P  P196  1  0.36113043  0.27105616  0.08138436  1
  P  P197  1  0.98051160  0.17439978  0.05264606  1
  P  P198  1  0.69343848  0.48266606  0.11909955  1
  P  P199  1  0.13351238  0.61787076  0.13364366  1
  P  P200  1  0.10668927  0.09607391  0.14216390  1
  P  P201  1  0.72850809  0.00120548  0.11307848  1
  P  P202  1  0.44013933  0.30756950  0.18108237  1
  P  P203  1  0.87947597  0.44238112  0.19565719  1
  P  P204  1  0.85080209  0.92173760  0.20290350  1
  P  P205  1  0.47123298  0.82606545  0.17395016  1
  P  P206  1  0.18523697  0.13191300  0.24248066  1
  P  P207  1  0.62388654  0.26654040  0.25700729  1
  P  P208  1  0.59513763  0.74738162  0.26421645  1
  P  P209  1  0.21479406  0.65181211  0.23511661  1
  P  P210  1  0.93007581  0.95625462  0.30380935  1
  P  P211  1  0.36935129  0.09028220  0.31872243  1
  P  P212  1  0.33819178  0.57186695  0.32517835  1
  P  P213  1  0.95775517  0.47692848  0.29635504  1
  P  P214  1  0.67430062  0.78094460  0.36560558  1
  P  P215  1  0.11382219  0.91447954  0.38089860  1
  P  P216  1  0.08221550  0.39596714  0.38591539  1
  P  P217  1  0.70109937  0.30124040  0.35666528  1
  P  P218  1  0.42229039  0.60558360  0.42643251  1
  P  P219  1  0.87736973  0.73277698  0.44037107  1
  P  P220  1  0.80290115  0.22710384  0.44336269  1
  P  P221  1  0.43685607  0.12031371  0.42101200  1
  P  P222  1  0.08345767  0.46382536  0.48867006  1
  P  P223  1  0.08503846  0.97584619  0.48574104  1
  P  P224  1  0.61550304  0.35990774  0.51421485  1
  P  P225  1  0.68425066  0.88192793  0.52044850  1
  P  P226  1  0.35522705  0.67675052  0.55747747  1
  P  P227  1  0.90472289  0.53303260  0.57192959  1
  P  P228  1  0.93828929  0.05435703  0.58129061  1
  P  P229  1  0.31873846  0.15093089  0.55246400  1
  P  P230  1  0.60607209  0.84260331  0.61911520  1
  P  P231  1  0.16527935  0.70767387  0.63366130  1
  P  P232  1  0.19273882  0.22945549  0.64203714  1
  P  P233  1  0.57104015  0.32466885  0.61291974  1
  P  P234  1  0.85991889  0.01786136  0.68108816  1
  P  P235  1  0.42101979  0.88295228  0.69563354  1
  P  P236  1  0.44883802  0.40358698  0.70281665  1
  P  P237  1  0.82832073  0.49933761  0.67377117  1
  P  P238  1  0.11478323  0.19345965  0.74254086  1
  P  P239  1  0.67621803  0.05853947  0.75714348  1
  P  P240  1  0.70573295  0.57770485  0.76415573  1
  P  P241  1  0.08559657  0.67328310  0.73514137  1
  P  P242  1  0.37111517  0.36878468  0.80400524  1
  P  P243  1  0.93176489  0.23473639  0.81893715  1
  P  P244  1  0.96258107  0.75320085  0.82527624  1
  P  P245  1  0.34224861  0.84821666  0.79643615  1
  P  P246  1  0.62663924  0.54395238  0.86577311  1
  P  P247  1  0.18719831  0.40991975  0.88105894  1
  P  P248  1  0.21851946  0.92873748  0.88620753  1
  P  P249  1  0.59930545  0.02381461  0.85701502  1
  P  P250  1  0.87786935  0.71877478  0.92659890  1
  P  P251  1  0.42278560  0.59131922  0.94054228  1
  P  P252  1  0.49790900  0.09741807  0.94371457  1
  P  P253  1  0.86387472  0.20388598  0.92143620  1
  P  P254  1  0.21586365  0.86083731  0.98884490  1
  P  P255  1  0.21370537  0.34838697  0.98590202  1
  O  O256  1  0.47337689  0.03976091  0.01942420  1
  O  O257  1  0.49723262  0.55406773  0.01481019  1
  O  O258  1  0.83218442  0.14747375  0.03897428  1
  O  O259  1  0.79061744  0.43950835  0.03610335  1
  O  O260  1  0.79411560  0.94427242  0.04066921  1
  O  O261  1  0.84603670  0.65605123  0.03035066  1
  O  O262  1  0.68271092  0.87174396  0.99995860  1
  O  O263  1  0.69139642  0.37246513  0.99578011  1
  O  O264  1  0.76891944  0.01804940  0.99556532  1
  O  O265  1  0.51558229  0.39366539  0.03858804  1
  O  O266  1  0.06206131  0.22593621  0.03286371  1
  O  O267  1  0.15488342  0.57701089  0.05620870  1
  O  O268  1  0.17608672  0.85844162  0.07301699  1
  O  O269  1  0.19498567  0.36735126  0.07021733  1
  O  O270  1  0.14385353  0.07523619  0.06311891  1
  O  O271  1  0.58653932  0.97491847  0.09699949  1
  O  O272  1  0.50343531  0.30039260  0.09604978  1
  O  O273  1  0.47796458  0.78874571  0.10019711  1
  O  O274  1  0.60011744  0.49073133  0.09175930  1
  O  O275  1  0.43165568  0.68550930  0.06244591  1
  O  O276  1  0.91715566  0.75612102  0.06685986  1
  O  O277  1  0.88804536  0.25252680  0.07545295  1
  O  O278  1  0.46278579  0.19755197  0.05837580  1
  O  O279  1  0.85230380  0.60216021  0.07773626  1
  O  O280  1  0.48183013  0.84523339  0.05294691  1
  O  O281  1  0.28167932  0.21622517  0.10083461  1
  O  O282  1  0.80818533  0.05957086  0.09488387  1
  O  O283  1  0.91042822  0.41894572  0.11671652  1
  O  O284  1  0.91694929  0.68102171  0.13625725  1
  O  O285  1  0.94287756  0.19635977  0.13195385  1
  O  O286  1  0.89340569  0.90031809  0.12255836  1
  O  O287  1  0.32726955  0.79879076  0.15888417  1
  O  O288  1  0.25071360  0.12339216  0.15717311  1
  O  O289  1  0.22621503  0.61000495  0.16122172  1
  O  O290  1  0.34817089  0.31550267  0.15355925  1
  O  O291  1  0.17758970  0.50857013  0.12364428  1
  O  O292  1  0.64840288  0.59079095  0.13012431  1
  O  O293  1  0.62796677  0.07007663  0.13688852  1
  O  O294  1  0.20498395  0.02462927  0.11862900  1
  O  O295  1  0.61693732  0.42622780  0.13861572  1
  O  O296  1  0.21195639  0.67219362  0.11402824  1
  O  O297  1  0.02516573  0.04139981  0.16121463  1
  O  O298  1  0.55269524  0.88033196  0.15465973  1
  O  O299  1  0.65650594  0.24302382  0.17882906  1
  O  O300  1  0.66319703  0.50633676  0.19791044  1
  O  O301  1  0.68658415  0.02172308  0.19273692  1
  O  O302  1  0.63444896  0.72652030  0.18447916  1
  O  O303  1  0.07096451  0.62433680  0.22005758  1
  O  O304  1  0.99517475  0.94901362  0.21790191  1
  O  O305  1  0.97111815  0.43395245  0.22325650  1
  O  O306  1  0.09313131  0.14036224  0.21494223  1
  O  O307  1  0.92372963  0.33356786  0.18521737  1
  O  O308  1  0.39643688  0.41628155  0.19145617  1
  O  O309  1  0.37301844  0.89873184  0.19733355  1
  O  O310  1  0.94816211  0.85027840  0.17932987  1
  O  O311  1  0.36061017  0.25248859  0.20042706  1
  O  O312  1  0.95941486  0.49727432  0.17636538  1
  O  O313  1  0.77027089  0.86708485  0.22218351  1
  O  O314  1  0.29545443  0.70655539  0.21587395  1
  O  O315  1  0.40155191  0.06821508  0.24011430  1
  O  O316  1  0.40764417  0.33022908  0.25950455  1
  O  O317  1  0.43215602  0.84715039  0.25368218  1
  O  O318  1  0.37837941  0.55205080  0.24552321  1
  O  O319  1  0.81349063  0.44995481  0.28128072  1
  O  O320  1  0.73913854  0.77460685  0.27930644  1
  O  O321  1  0.71642654  0.25737509  0.28454937  1
  O  O322  1  0.83847147  0.96510792  0.27620339  1
  O  O323  1  0.66829883  0.15813116  0.24634075  1
  O  O324  1  0.14049737  0.24047951  0.25311367  1
  O  O325  1  0.11679555  0.72352664  0.25864758  1
  O  O326  1  0.69341082  0.67496420  0.24083512  1
  O  O327  1  0.10614270  0.07626435  0.26168900  1
  O  O328  1  0.70274863  0.32242503  0.23786306  1
  O  O329  1  0.51318328  0.69347383  0.28354850  1
  O  O330  1  0.04054431  0.53072091  0.27717893  1
  O  O331  1  0.14639862  0.89243283  0.30155728  1
  O  O332  1  0.15303501  0.15441214  0.32088431  1
  O  O333  1  0.17429664  0.67197405  0.31504160  1
  O  O334  1  0.11997129  0.37683094  0.30693424  1
  O  O335  1  0.55448120  0.27349051  0.34250889  1
  O  O336  1  0.48196388  0.59891721  0.34041434  1
  O  O337  1  0.46028044  0.08144695  0.34641103  1
  O  O338  1  0.58097946  0.78988181  0.33805714  1
  O  O339  1  0.41317773  0.98188286  0.30815556  1
  O  O340  1  0.88575160  0.06479680  0.31441754  1
  O  O341  1  0.85913471  0.54952117  0.31967437  1
  O  O342  1  0.43636938  0.50078411  0.30159012  1
  O  O343  1  0.85017271  0.90112214  0.32305967  1
  O  O344  1  0.44902821  0.14561348  0.29947950  1
  O  O345  1  0.25745858  0.51642415  0.34421713  1
  O  O346  1  0.78147692  0.35527789  0.33725216  1
  O  O347  1  0.89039305  0.71674877  0.36279842  1
  O  O348  1  0.89672207  0.97855051  0.38322143  1
  O  O349  1  0.92050292  0.49455279  0.37495286  1
  O  O350  1  0.86382322  0.20122298  0.36692680  1
  O  O351  1  0.29433976  0.09539101  0.40510649  1
  O  O352  1  0.22814953  0.42259312  0.40062681  1
  O  O353  1  0.20611989  0.90537568  0.40841223  1
  O  O354  1  0.33093081  0.61162917  0.39890918  1
  O  O355  1  0.15848519  0.80680385  0.36961150  1
  O  O356  1  0.63155828  0.88936291  0.37608708  1
  O  O357  1  0.60482672  0.37410948  0.38004251  1
  O  O358  1  0.18059166  0.32019889  0.36313301  1
  O  O359  1  0.59511633  0.72587336  0.38490173  1
  O  O360  1  0.19127052  0.97079235  0.36148281  1
  O  O361  1  0.99945359  0.34403992  0.40575763  1
  O  O362  1  0.52463939  0.17398664  0.40237706  1
  O  O363  1  0.64009995  0.54463378  0.42379560  1
  O  O364  1  0.66305537  0.79241718  0.44502851  1
  O  O365  1  0.63943654  0.33016457  0.43485466  1
  O  O366  1  0.58796968  0.01942667  0.43284592  1
  O  O367  1  0.00072696  0.93951738  0.46317532  1
  O  O368  1  0.93093401  0.25509410  0.46255659  1
  O  O369  1  0.99307426  0.71328792  0.46573531  1
  O  O370  1  0.86990728  0.53667942  0.48567311  1
  O  O371  1  0.91494894  0.62603966  0.42815516  1
  O  O372  1  0.37424472  0.71194602  0.43791796  1
  O  O373  1  0.33023000  0.19472886  0.44420593  1
  O  O374  1  0.92346589  0.16097610  0.42079516  1
  O  O375  1  0.35375206  0.54528215  0.44576211  1
  O  O376  1  0.94259709  0.79350267  0.42074468  1
  O  O377  1  0.71379887  0.16634010  0.45811100  1
  O  O378  1  0.21941870  0.01934427  0.47289537  1
  O  O379  1  0.16722937  0.41612709  0.46141247  1
  O  O380  1  0.20240168  0.89192409  0.50549219  1
  O  O381  1  0.17956977  0.52673468  0.50102851  1
  O  O382  1  0.92915488  0.06238731  0.50238932  1
  O  O383  1  0.10268357  0.37210477  0.50680213  1
  O  O384  1  0.82624438  0.28455580  0.51907273  1
  O  O385  1  0.80058950  0.77058626  0.51463593  1
  O  O386  1  0.46728743  0.17792919  0.53889050  1
  O  O387  1  0.50799736  0.88532796  0.53610216  1
  O  O388  1  0.50554583  0.38053990  0.54029581  1
  O  O389  1  0.45309763  0.66862462  0.53041167  1
  O  O390  1  0.61767423  0.45267385  0.49961292  1
  O  O391  1  0.60673999  0.95220453  0.49573055  1
  O  O392  1  0.53081506  0.30665742  0.49514024  1
  O  O393  1  0.78381584  0.93065051  0.53847423  1
  O  O394  1  0.23754346  0.09954826  0.53254712  1
  O  O395  1  0.14420890  0.74793455  0.55634250  1
  O  O396  1  0.12258757  0.46729941  0.57283421  1
  O  O397  1  0.10444689  0.95791040  0.57017192  1
  O  O398  1  0.15530691  0.24992572  0.56300906  1
  O  O399  1  0.71298603  0.35086990  0.59682059  1
  O  O400  1  0.79563023  0.02521859  0.59592873  1
  O  O401  1  0.82092088  0.53660813  0.60006418  1
  O  O402  1  0.69940759  0.83467888  0.59177644  1
  O  O403  1  0.86599684  0.64025655  0.56240507  1
  O  O404  1  0.38210405  0.56866756  0.56684412  1
  O  O405  1  0.41092959  0.07254207  0.57523830  1
  O  O406  1  0.83738338  0.12749321  0.55819049  1
  O  O407  1  0.44654552  0.72279439  0.57781850  1
  O  O408  1  0.81714994  0.48006716  0.55278545  1
  O  O409  1  0.01750729  0.10929541  0.60074329  1
  O  O410  1  0.49105636  0.26648203  0.59470184  1
  O  O411  1  0.38899847  0.90578684  0.61667956  1
  O  O412  1  0.38191903  0.64481885  0.63624311  1
  O  O413  1  0.35609908  0.12914597  0.63171856  1
  O  O414  1  0.40617135  0.42552195  0.62240547  1
  O  O415  1  0.97282708  0.52631208  0.65874016  1
  O  O416  1  0.04935836  0.20207253  0.65721199  1
  O  O417  1  0.07294414  0.71532915  0.66125044  1
  O  O418  1  0.95215817  0.00994490  0.65357514  1
  O  O419  1  0.12083004  0.81700468  0.62366960  1
  O  O420  1  0.65179942  0.73437162  0.63012902  1
  O  O421  1  0.67185421  0.25561291  0.63669262  1
  O  O422  1  0.09387025  0.30097094  0.61853639  1
  O  O423  1  0.68190259  0.89937117  0.63861134  1
  O  O424  1  0.08723541  0.65321521  0.61403587  1
  O  O425  1  0.27508917  0.28406666  0.66097305  1
  O  O426  1  0.74642832  0.44539416  0.65446154  1
  O  O427  1  0.64363764  0.08258092  0.67877880  1
  O  O428  1  0.63721094  0.81890186  0.69794580  1
  O  O429  1  0.61317125  0.30369149  0.69262808  1
  O  O430  1  0.66538588  0.59906515  0.68429197  1
  O  O431  1  0.22923158  0.70110667  0.72014486  1
  O  O432  1  0.30454589  0.37609763  0.71776570  1
  O  O433  1  0.32892725  0.89154845  0.72320750  1
  O  O434  1  0.20697101  0.18487984  0.71498718  1
  O  O435  1  0.37719341  0.99167741  0.68518335  1
  O  O436  1  0.90335202  0.90912314  0.69140498  1
  O  O437  1  0.92591104  0.42673867  0.69720077  1
  O  O438  1  0.35168624  0.47518118  0.67923928  1
  O  O439  1  0.93963436  0.07257982  0.70050801  1
  O  O440  1  0.34097652  0.82808801  0.67635015  1
  O  O441  1  0.52896614  0.45832285  0.72214786  1
  O  O442  1  0.00503889  0.61876400  0.71581451  1
  O  O443  1  0.89836823  0.25695497  0.74016659  1
  O  O444  1  0.89259787  0.99493613  0.75961762  1
  O  O445  1  0.86938104  0.47796868  0.75373261  1
  O  O446  1  0.92189189  0.77293419  0.74560074  1
  O  O447  1  0.48601020  0.87540405  0.78126500  1
  O  O448  1  0.56179658  0.55026155  0.77921059  1
  O  O449  1  0.58416155  0.06744205  0.78471135  1
  O  O450  1  0.46180037  0.36007081  0.77633246  1
  O  O451  1  0.63116560  0.16707489  0.74647855  1
  O  O452  1  0.15981212  0.08484423  0.75319991  1
  O  O453  1  0.18346021  0.60134150  0.75862967  1
  O  O454  1  0.60769967  0.64990131  0.74073008  1
  O  O455  1  0.19377202  0.24914306  0.76177157  1
  O  O456  1  0.59770123  0.00260524  0.73793668  1
  O  O457  1  0.78682882  0.63195226  0.78351034  1
  O  O458  1  0.25984104  0.79422778  0.77723926  1
  O  O459  1  0.15476347  0.43292454  0.80189803  1
  O  O460  1  0.14810982  0.17045675  0.82102707  1
  O  O461  1  0.12617574  0.65317405  0.81503756  1
  O  O462  1  0.18010512  0.94826907  0.80705246  1
  O  O463  1  0.74574090  0.05184480  0.84291959  1
  O  O464  1  0.81895087  0.72612020  0.84055764  1
  O  O465  1  0.84107180  0.24356694  0.84665344  1
  O  O466  1  0.72017216  0.53486209  0.83823487  1
  O  O467  1  0.88842074  0.34305481  0.80834152  1
  O  O468  1  0.41490636  0.26024289  0.81457355  1
  O  O469  1  0.44169980  0.77584739  0.81975712  1
  O  O470  1  0.86359237  0.82454631  0.80176118  1
  O  O471  1  0.45212667  0.42346985  0.82321237  1
  O  O472  1  0.85147612  0.17957805  0.79972539  1
  O  O473  1  0.04355745  0.80846702  0.84435113  1
  O  O474  1  0.51863139  0.97010068  0.83753857  1
  O  O475  1  0.41056081  0.60816749  0.86292312  1
  O  O476  1  0.40422511  0.34581122  0.88353985  1
  O  O477  1  0.38036680  0.83037217  0.87516999  1
  O  O478  1  0.43655911  0.12356181  0.86739938  1
  O  O479  1  0.00602651  0.22912703  0.90553232  1
  O  O480  1  0.07283567  0.90177010  0.90088037  1
  O  O481  1  0.09431032  0.41969126  0.90856087  1
  O  O482  1  0.97034987  0.71257114  0.89914973  1
  O  O483  1  0.14315665  0.51728466  0.86959353  1
  O  O484  1  0.66898322  0.43574754  0.87642411  1
  O  O485  1  0.69618831  0.95050736  0.88030324  1
  O  O486  1  0.11986949  0.00468336  0.86346472  1
  O  O487  1  0.70602607  0.59911499  0.88501239  1
  O  O488  1  0.10979613  0.35322458  0.86177680  1
  O  O489  1  0.30109253  0.98053041  0.90611961  1
  O  O490  1  0.77595459  0.15053285  0.90271408  1
  O  O491  1  0.66026873  0.77991618  0.92385844  1
  O  O492  1  0.63730352  0.53129682  0.94513301  1
  O  O493  1  0.66144496  0.99453786  0.93510346  1
  O  O494  1  0.71275043  0.30454309  0.93336537  1
  O  O495  1  0.29756293  0.38409167  0.96314038  1
  O  O496  1  0.37012086  0.06891922  0.96286328  1
  O  O497  1  0.30734834  0.61128129  0.96594163  1
  O  O498  1  0.42966092  0.78846923  0.98573902  1
  O  O499  1  0.38626486  0.69784146  0.92830229  1
  O  O500  1  0.92482417  0.61253690  0.93811335  1
  O  O501  1  0.97063470  0.12902291  0.94452966  1
  O  O502  1  0.37715290  0.16381168  0.92119550  1
  O  O503  1  0.94611996  0.77887864  0.94603415  1
  O  O504  1  0.35698135  0.53069406  0.92095968  1
  O  O505  1  0.58664298  0.15816325  0.95854336  1
  O  O506  1  0.07872803  0.30484029  0.97327902  1
  O  O507  1  0.13066072  0.90836515  0.96165892  1
  O  O508  1  0.09705062  0.43290268  0.00557414  1
  O  O509  1  0.12093527  0.79755830  0.00136146  1
  O  O510  1  0.36993987  0.26212603  0.00256457  1
  O  O511  1  0.19652773  0.95265245  0.00696512  1
