# generated using pymatgen
data_Li3PO4
_symmetry_space_group_name_H-M   'P 1'
_cell_length_a   7.91303400
_cell_length_b   14.50933148
_cell_length_c   47.72475416
_cell_angle_alpha   90.00000000
_cell_angle_beta   90.00000000
_cell_angle_gamma   64.42826301
_symmetry_Int_Tables_number   1
_chemical_formula_structural   Li3PO4
_chemical_formula_sum   'Li168 P56 O224'
_cell_volume   4942.68127536
_cell_formula_units_Z   56
loop_
 _symmetry_equiv_pos_site_id
 _symmetry_equiv_pos_as_xyz
  1  'x, y, z'
loop_
 _atom_site_type_symbol
 _atom_site_label
 _atom_site_symmetry_multiplicity
 _atom_site_fract_x
 _atom_site_fract_y
 _atom_site_fract_z
 _atom_site_occupancy
  Li  Li0  1  0.23155645  0.56655477  0.03223547  1
  Li  Li1  1  0.37141744  0.26191332  0.02226682  1
  Li  Li2  1  0.77450545  0.21896210  0.04698195  1
  Li  Li3  1  0.74098239  0.67784794  0.05585251  1
  Li  Li4  1  0.64965069  0.85220758  0.01590064  1
  Li  Li5  1  0.35632720  0.76650237  0.01750064  1
  Li  Li6  1  0.12033189  0.57355420  0.08643032  1
  Li  Li7  1  0.10352287  0.89964907  0.08587328  1
  Li  Li8  1  0.07124212  0.37672730  0.09466485  1
  Li  Li9  1  0.15150568  0.10030851  0.07368246  1
  Li  Li10  1  0.51418784  0.01002824  0.11089392  1
  Li  Li11  1  0.70385419  0.45970486  0.06723056  1
  Li  Li12  1  0.72636746  0.96957738  0.06116874  1
  Li  Li13  1  0.48781689  0.48809997  0.11884077  1
  Li  Li14  1  0.40392985  0.70047207  0.07200375  1
  Li  Li15  1  0.82187006  0.77488723  0.09987721  1
  Li  Li16  1  0.83898145  0.28831120  0.09576162  1
  Li  Li17  1  0.38938434  0.18491307  0.07946447  1
  Li  Li18  1  0.85905152  0.40463644  0.15017488  1
  Li  Li19  1  0.84920239  0.72091828  0.15362910  1
  Li  Li20  1  0.82607324  0.20329017  0.16006108  1
  Li  Li21  1  0.88787559  0.92136842  0.14284449  1
  Li  Li22  1  0.26290036  0.83518706  0.17605079  1
  Li  Li23  1  0.44890429  0.29147789  0.12806224  1
  Li  Li24  1  0.47397262  0.81066293  0.11988393  1
  Li  Li25  1  0.23619087  0.31564565  0.18311512  1
  Li  Li26  1  0.15451653  0.51965113  0.13942775  1
  Li  Li27  1  0.55301145  0.60350393  0.16463636  1
  Li  Li28  1  0.58284908  0.11921384  0.15799460  1
  Li  Li29  1  0.13095012  0.00529059  0.14417786  1
  Li  Li30  1  0.60736495  0.22894687  0.21525615  1
  Li  Li31  1  0.59350004  0.54752746  0.21908599  1
  Li  Li32  1  0.56689261  0.02874981  0.22568306  1
  Li  Li33  1  0.63054003  0.74796487  0.20862507  1
  Li  Li34  1  0.00642265  0.65904790  0.24190639  1
  Li  Li35  1  0.19374490  0.11727696  0.19259895  1
  Li  Li36  1  0.21889103  0.63561996  0.18608895  1
  Li  Li37  1  0.98115101  0.14191209  0.24816980  1
  Li  Li38  1  0.90010579  0.34826526  0.20423908  1
  Li  Li39  1  0.29779968  0.42819225  0.23060489  1
  Li  Li40  1  0.32289283  0.94531945  0.22381358  1
  Li  Li41  1  0.87627264  0.83115454  0.21028807  1
  Li  Li42  1  0.34970609  0.05449884  0.28097674  1
  Li  Li43  1  0.33745720  0.37269845  0.28469374  1
  Li  Li44  1  0.31232019  0.85377312  0.29128894  1
  Li  Li45  1  0.37579024  0.57211003  0.27462243  1
  Li  Li46  1  0.74771973  0.48421311  0.30740149  1
  Li  Li47  1  0.93685248  0.94226229  0.25815682  1
  Li  Li48  1  0.96214991  0.46025730  0.25182872  1
  Li  Li49  1  0.72351342  0.96510937  0.31414848  1
  Li  Li50  1  0.64507193  0.17262851  0.26923949  1
  Li  Li51  1  0.04353423  0.25429405  0.29562571  1
  Li  Li52  1  0.06796444  0.77016156  0.28967708  1
  Li  Li53  1  0.61974220  0.65596308  0.27634820  1
  Li  Li54  1  0.09425318  0.88022685  0.34635070  1
  Li  Li55  1  0.08505944  0.19644077  0.34983533  1
  Li  Li56  1  0.05632335  0.67857007  0.35727927  1
  Li  Li57  1  0.11758245  0.39785581  0.33994776  1
  Li  Li58  1  0.49497153  0.30930069  0.37209587  1
  Li  Li59  1  0.68074125  0.76609849  0.32397106  1
  Li  Li60  1  0.70739626  0.28546252  0.31703173  1
  Li  Li61  1  0.46995217  0.79044265  0.38003328  1
  Li  Li62  1  0.38986643  0.99727721  0.33527832  1
  Li  Li63  1  0.79089088  0.08167012  0.36039764  1
  Li  Li64  1  0.81081391  0.59589838  0.35580207  1
  Li  Li65  1  0.36171144  0.48123140  0.34211832  1
  Li  Li66  1  0.84005485  0.70177123  0.41431913  1
  Li  Li67  1  0.82531362  0.02746517  0.41333137  1
  Li  Li68  1  0.79247513  0.50013931  0.42644272  1
  Li  Li69  1  0.87324046  0.22527329  0.40515847  1
  Li  Li70  1  0.24136471  0.14172055  0.43244417  1
  Li  Li71  1  0.42970328  0.59216861  0.38925451  1
  Li  Li72  1  0.45832601  0.11280305  0.38106299  1
  Li  Li73  1  0.21643950  0.63062039  0.43926401  1
  Li  Li74  1  0.12227168  0.82666958  0.40014513  1
  Li  Li75  1  0.54138054  0.89946179  0.42807100  1
  Li  Li76  1  0.55472545  0.41703965  0.42078282  1
  Li  Li77  1  0.10702411  0.31336242  0.40402907  1
  Li  Li78  1  0.57446676  0.33644479  0.47775433  1
  Li  Li79  1  0.71290721  0.03489440  0.46742109  1
  Li  Li80  1  0.16999929  0.38029835  0.45301264  1
  Li  Li81  1  0.20412718  0.92405517  0.44409571  1
  Li  Li82  1  0.59057900  0.83392060  0.48238452  1
  Li  Li83  1  0.29592900  0.74876477  0.48403369  1
  Li  Li84  1  0.21602760  0.53451759  0.53290061  1
  Li  Li85  1  0.07732586  0.83937704  0.52254688  1
  Li  Li86  1  0.67523975  0.88089991  0.54716202  1
  Li  Li87  1  0.70588382  0.42392758  0.55583256  1
  Li  Li88  1  0.79730442  0.24783537  0.51591903  1
  Li  Li89  1  0.09089500  0.33428055  0.51770999  1
  Li  Li90  1  0.32911213  0.52679869  0.58686855  1
  Li  Li91  1  0.34420567  0.20077145  0.58593506  1
  Li  Li92  1  0.37941644  0.72344188  0.59465469  1
  Li  Li93  1  0.29896595  0.00007087  0.57402735  1
  Li  Li94  1  0.93494278  0.09100389  0.61084593  1
  Li  Li95  1  0.74794125  0.64054399  0.56779007  1
  Li  Li96  1  0.72065058  0.13039114  0.56109355  1
  Li  Li97  1  0.96278835  0.61166625  0.61908508  1
  Li  Li98  1  0.04541227  0.39916006  0.57208885  1
  Li  Li99  1  0.62829527  0.32471514  0.59986280  1
  Li  Li100  1  0.61209515  0.81159924  0.59584114  1
  Li  Li101  1  0.06196671  0.91615892  0.57966046  1
  Li  Li102  1  0.59228235  0.69552049  0.65028948  1
  Li  Li103  1  0.60037614  0.37852672  0.65361591  1
  Li  Li104  1  0.62522350  0.89695990  0.66017170  1
  Li  Li105  1  0.56211270  0.17800378  0.64286129  1
  Li  Li106  1  0.18769941  0.26488683  0.67621827  1
  Li  Li107  1  0.00292763  0.80851222  0.62832603  1
  Li  Li108  1  0.97523528  0.29037695  0.62015686  1
  Li  Li109  1  0.21445741  0.78416754  0.68315307  1
  Li  Li110  1  0.29695863  0.58041672  0.63970198  1
  Li  Li111  1  0.89774080  0.49594743  0.66473307  1
  Li  Li112  1  0.86841371  0.98030573  0.65806035  1
  Li  Li113  1  0.31853949  0.09464749  0.64430563  1
  Li  Li114  1  0.84552669  0.87086968  0.71543384  1
  Li  Li115  1  0.85733834  0.55240329  0.71906256  1
  Li  Li116  1  0.88340589  0.07131921  0.72565116  1
  Li  Li117  1  0.81931561  0.35294684  0.70866898  1
  Li  Li118  1  0.44465645  0.44073433  0.74166425  1
  Li  Li119  1  0.25760218  0.98344921  0.69278687  1
  Li  Li120  1  0.23168381  0.46400901  0.68607661  1
  Li  Li121  1  0.47053544  0.95900852  0.74820160  1
  Li  Li122  1  0.55110807  0.75189477  0.70429819  1
  Li  Li123  1  0.15400975  0.67127068  0.73075511  1
  Li  Li124  1  0.12632617  0.15496534  0.72370250  1
  Li  Li125  1  0.57483457  0.26903543  0.71014529  1
  Li  Li126  1  0.10014709  0.04585460  0.78082357  1
  Li  Li127  1  0.11360364  0.72699198  0.78468517  1
  Li  Li128  1  0.13774658  0.24606472  0.79116142  1
  Li  Li129  1  0.07512319  0.52671233  0.77433723  1
  Li  Li130  1  0.70262495  0.61516267  0.80737788  1
  Li  Li131  1  0.51342395  0.15843586  0.75811240  1
  Li  Li132  1  0.48782816  0.64093170  0.75184954  1
  Li  Li133  1  0.72540251  0.13445569  0.81385846  1
  Li  Li134  1  0.80537265  0.92767723  0.76950701  1
  Li  Li135  1  0.40712663  0.84638831  0.79556798  1
  Li  Li136  1  0.38258126  0.33049089  0.78950233  1
  Li  Li137  1  0.82998442  0.44444612  0.77608840  1
  Li  Li138  1  0.35561921  0.22016258  0.84628689  1
  Li  Li139  1  0.36609749  0.90287381  0.84966323  1
  Li  Li140  1  0.39376824  0.42096017  0.85695982  1
  Li  Li141  1  0.33263090  0.70172899  0.83978405  1
  Li  Li142  1  0.95417540  0.79091275  0.87208850  1
  Li  Li143  1  0.76980401  0.33313390  0.82368328  1
  Li  Li144  1  0.74313490  0.81380378  0.81682820  1
  Li  Li145  1  0.97932677  0.30885467  0.87981916  1
  Li  Li146  1  0.06024029  0.10171608  0.83508845  1
  Li  Li147  1  0.66001232  0.01813911  0.86025820  1
  Li  Li148  1  0.63844613  0.50296122  0.85574364  1
  Li  Li149  1  0.08866198  0.61808125  0.84210992  1
  Li  Li150  1  0.60913690  0.39793532  0.91392504  1
  Li  Li151  1  0.62502099  0.07210961  0.91341595  1
  Li  Li152  1  0.65746126  0.59834388  0.92625367  1
  Li  Li153  1  0.57590347  0.87507458  0.90518091  1
  Li  Li154  1  0.20835283  0.95826608  0.93185839  1
  Li  Li155  1  0.01849131  0.50782977  0.88915673  1
  Li  Li156  1  0.99173197  0.98778371  0.88105080  1
  Li  Li157  1  0.23209878  0.46954044  0.93891186  1
  Li  Li158  1  0.32624887  0.27467660  0.90008006  1
  Li  Li159  1  0.90876200  0.19916457  0.92777280  1
  Li  Li160  1  0.89313204  0.68352933  0.92057607  1
  Li  Li161  1  0.34367793  0.78605261  0.90394613  1
  Li  Li162  1  0.87483772  0.76217573  0.97768384  1
  Li  Li163  1  0.73382172  0.06551712  0.96775222  1
  Li  Li164  1  0.27965414  0.71894678  0.95296706  1
  Li  Li165  1  0.24562510  0.17538242  0.94398851  1
  Li  Li166  1  0.85906904  0.26546527  0.98217801  1
  Li  Li167  1  0.15421637  0.35059542  0.98377770  1
  P  P168  1  0.01589366  0.75637061  0.04503046  1
  P  P169  1  0.04505450  0.28614098  0.03819054  1
  P  P170  1  0.76163708  0.58261295  0.11078438  1
  P  P171  1  0.45949369  0.89700415  0.06208117  1
  P  P172  1  0.42948475  0.37286380  0.07123500  1
  P  P173  1  0.79644317  0.10222203  0.10307420  1
  P  P174  1  0.50725057  0.40795492  0.17722421  1
  P  P175  1  0.20367345  0.71693183  0.12699224  1
  P  P176  1  0.17586854  0.19721355  0.13447147  1
  P  P177  1  0.53781614  0.92754129  0.16894241  1
  P  P178  1  0.25259887  0.23331588  0.24212702  1
  P  P179  1  0.94544056  0.54332397  0.19249319  1
  P  P180  1  0.91793013  0.02326707  0.19955125  1
  P  P181  1  0.28144574  0.75306747  0.23479212  1
  P  P182  1  0.99794621  0.05796695  0.30742666  1
  P  P183  1  0.69055116  0.36821186  0.25784556  1
  P  P184  1  0.66179537  0.84835979  0.26528641  1
  P  P185  1  0.02511959  0.57793511  0.30054613  1
  P  P186  1  0.74094914  0.88397193  0.37305310  1
  P  P187  1  0.43652247  0.19332596  0.32277920  1
  P  P188  1  0.40552120  0.67349330  0.33110665  1
  P  P189  1  0.76788322  0.40409937  0.36559957  1
  P  P190  1  0.48457771  0.70413709  0.43787934  1
  P  P191  1  0.18341870  0.01862490  0.38910234  1
  P  P192  1  0.14715057  0.49904476  0.39702607  1
  P  P193  1  0.51550421  0.22830749  0.42867489  1
  P  P194  1  0.92982438  0.84477123  0.45512700  1
  P  P195  1  0.90025674  0.31378644  0.46173725  1
  P  P196  1  0.43205529  0.34412236  0.54508475  1
  P  P197  1  0.40499600  0.81404042  0.53839932  1
  P  P198  1  0.68823423  0.51761445  0.61101106  1
  P  P199  1  0.98825893  0.20371085  0.56219450  1
  P  P200  1  0.02080484  0.72813303  0.57155229  1
  P  P201  1  0.65390489  0.99798157  0.60317757  1
  P  P202  1  0.94372631  0.69194464  0.67731675  1
  P  P203  1  0.24659857  0.38299586  0.62710559  1
  P  P204  1  0.27515277  0.90283645  0.63461192  1
  P  P205  1  0.91267760  0.17233400  0.66896006  1
  P  P206  1  0.19873727  0.86690309  0.74216834  1
  P  P207  1  0.50506220  0.55667915  0.69256792  1
  P  P208  1  0.53298285  0.07684896  0.69960120  1
  P  P209  1  0.16880428  0.34703143  0.73471817  1
  P  P210  1  0.45268428  0.04197200  0.80734993  1
  P  P211  1  0.76037724  0.73168661  0.75784764  1
  P  P212  1  0.78854016  0.25197640  0.76516335  1
  P  P213  1  0.42509155  0.52199592  0.80037722  1
  P  P214  1  0.70872706  0.21585382  0.87285716  1
  P  P215  1  0.01395951  0.90640908  0.82275582  1
  P  P216  1  0.04448474  0.42610320  0.83094771  1
  P  P217  1  0.68175260  0.69544467  0.86548207  1
  P  P218  1  0.96451283  0.39529455  0.93773755  1
  P  P219  1  0.26724635  0.08121426  0.88885743  1
  P  P220  1  0.30194295  0.60089490  0.89690692  1
  P  P221  1  0.93382465  0.87170216  0.92872439  1
  P  P222  1  0.51963160  0.25510874  0.95483905  1
  P  P223  1  0.54878539  0.78592562  0.96157669  1
  O  O224  1  0.23382771  0.69605674  0.03993906  1
  O  O225  1  0.22334569  0.19292107  0.04870800  1
  O  O226  1  0.91867441  0.24969500  0.02059151  1
  O  O227  1  0.91356247  0.75708856  0.01741856  1
  O  O228  1  0.50322543  0.78916633  0.04818039  1
  O  O229  1  0.51950746  0.29670785  0.04704319  1
  O  O230  1  0.53749907  0.95320352  0.04224217  1
  O  O231  1  0.10642310  0.35518735  0.02062362  1
  O  O232  1  0.97691605  0.51751706  0.10859016  1
  O  O233  1  0.24922506  0.95631486  0.06724716  1
  O  O234  1  0.28546356  0.47742072  0.06012268  1
  O  O235  1  0.95522131  0.00151223  0.11445351  1
  O  O236  1  0.64830480  0.07654907  0.08762247  1
  O  O237  1  0.58147733  0.39240509  0.08789647  1
  O  O238  1  0.56809999  0.87828258  0.09071744  1
  O  O239  1  0.67148045  0.59199770  0.08076249  1
  O  O240  1  0.24708811  0.60742276  0.11656274  1
  O  O241  1  0.96718883  0.86315760  0.05694330  1
  O  O242  1  0.93087171  0.34646348  0.06437242  1
  O  O243  1  0.27131125  0.12794021  0.10897418  1
  O  O244  1  0.95738469  0.69328751  0.06665921  1
  O  O245  1  0.28136008  0.77099354  0.10572958  1
  O  O246  1  0.33469161  0.32619208  0.09183790  1
  O  O247  1  0.87943519  0.15430384  0.08210633  1
  O  O248  1  0.72355730  0.34433655  0.17449503  1
  O  O249  1  0.98740009  0.78036472  0.12970362  1
  O  O250  1  0.01010424  0.29787245  0.12427211  1
  O  O251  1  0.70099485  0.82762904  0.18008372  1
  O  O252  1  0.39430513  0.90006272  0.15276581  1
  O  O253  1  0.32052118  0.22369851  0.15074091  1
  O  O254  1  0.29645469  0.71036163  0.15622284  1
  O  O255  1  0.41383244  0.41585310  0.14804353  1
  O  O256  1  0.99063617  0.43487474  0.18096447  1
  O  O257  1  0.71887648  0.69069759  0.12196513  1
  O  O258  1  0.70023926  0.17628602  0.12789937  1
  O  O259  1  0.01588890  0.95086633  0.17461927  1
  O  O260  1  0.67926422  0.52793092  0.13089408  1
  O  O261  1  0.02606727  0.59853417  0.17211030  1
  O  O262  1  0.09589953  0.14152593  0.15482693  1
  O  O263  1  0.61878154  0.98209627  0.14841664  1
  O  O264  1  0.46883892  0.16953863  0.23953306  1
  O  O265  1  0.72894898  0.60712764  0.19459641  1
  O  O266  1  0.75459114  0.12302414  0.18834431  1
  O  O267  1  0.44506802  0.65340923  0.24594015  1
  O  O268  1  0.13749094  0.72526018  0.21885795  1
  O  O269  1  0.06164056  0.05104367  0.21554498  1
  O  O270  1  0.03591132  0.53472672  0.22197280  1
  O  O271  1  0.16023297  0.24204468  0.21275327  1
  O  O272  1  0.73596969  0.25978021  0.24634740  1
  O  O273  1  0.46295274  0.51685746  0.18824369  1
  O  O274  1  0.43967520  0.99918528  0.19400493  1
  O  O275  1  0.75963190  0.77638746  0.24026764  1
  O  O276  1  0.42819436  0.35277656  0.19780682  1
  O  O277  1  0.76995139  0.42388644  0.23741872  1
  O  O278  1  0.83685859  0.96914586  0.22024437  1
  O  O279  1  0.36159775  0.80752346  0.21407404  1
  O  O280  1  0.21445408  0.99416844  0.30529150  1
  O  O281  1  0.47426264  0.43194868  0.26040998  1
  O  O282  1  0.49800655  0.94812731  0.25420169  1
  O  O283  1  0.18883387  0.47810907  0.31167169  1
  O  O284  1  0.88125015  0.55033479  0.28452502  1
  O  O285  1  0.80582043  0.87594088  0.28126242  1
  O  O286  1  0.78256478  0.35939214  0.28725249  1
  O  O287  1  0.90745649  0.06685819  0.27794622  1
  O  O288  1  0.48040808  0.08436800  0.31184991  1
  O  O289  1  0.20722005  0.34177898  0.25362073  1
  O  O290  1  0.18342306  0.82524272  0.25976927  1
  O  O291  1  0.50340642  0.60191096  0.30602752  1
  O  O292  1  0.17339253  0.17769262  0.26260764  1
  O  O293  1  0.51527139  0.24830839  0.30208414  1
  O  O294  1  0.58153957  0.79382211  0.28597113  1
  O  O295  1  0.10617312  0.63213027  0.27986659  1
  O  O296  1  0.95708234  0.82014866  0.37033270  1
  O  O297  1  0.22030788  0.25695873  0.32561439  1
  O  O298  1  0.24248632  0.77345190  0.31997924  1
  O  O299  1  0.93426544  0.30353043  0.37568309  1
  O  O300  1  0.62309228  0.37739189  0.34943493  1
  O  O301  1  0.54920530  0.70093083  0.34723694  1
  O  O302  1  0.53090435  0.18544213  0.35189363  1
  O  O303  1  0.64763492  0.89064154  0.34385773  1
  O  O304  1  0.22530964  0.91067279  0.37789823  1
  O  O305  1  0.95309754  0.16624783  0.31907461  1
  O  O306  1  0.92738085  0.65005360  0.32552391  1
  O  O307  1  0.24344330  0.42476903  0.37222735  1
  O  O308  1  0.91768280  0.00240105  0.32776439  1
  O  O309  1  0.26627940  0.07315762  0.36904419  1
  O  O310  1  0.32514789  0.61872171  0.35163691  1
  O  O311  1  0.84709537  0.45979987  0.34512537  1
  O  O312  1  0.69489793  0.64458095  0.43278830  1
  O  O313  1  0.96812858  0.08404386  0.39122982  1
  O  O314  1  0.98798073  0.59949251  0.38562075  1
  O  O315  1  0.66005166  0.12357116  0.43953361  1
  O  O316  1  0.36385037  0.20897294  0.41185824  1
  O  O317  1  0.29523805  0.52496010  0.41242092  1
  O  O318  1  0.27354644  0.00906525  0.41913176  1
  O  O319  1  0.37649282  0.72338051  0.40920807  1
  O  O320  1  0.97729009  0.73819183  0.44314650  1
  O  O321  1  0.69865327  0.99336993  0.38341318  1
  O  O322  1  0.67293264  0.47333683  0.39113247  1
  O  O323  1  0.01484123  0.25497731  0.43541818  1
  O  O324  1  0.66261690  0.83022048  0.39431534  1
  O  O325  1  0.98820213  0.90796131  0.43349522  1
  O  O326  1  0.06477417  0.44688624  0.41807956  1
  O  O327  1  0.60951550  0.27607844  0.40829790  1
  O  O328  1  0.71176640  0.90514138  0.46013287  1
  O  O329  1  0.72173109  0.40739084  0.45148758  1
  O  O330  1  0.02641003  0.34965816  0.47959725  1
  O  O331  1  0.03242583  0.84353998  0.48275687  1
  O  O332  1  0.44140115  0.81182332  0.45187354  1
  O  O333  1  0.42480773  0.30328135  0.45308833  1
  O  O334  1  0.40619781  0.64781643  0.45761132  1
  O  O335  1  0.83980828  0.24341345  0.47887634  1
  O  O336  1  0.21397712  0.40461191  0.54005466  1
  O  O337  1  0.22730647  0.90741149  0.54899849  1
  O  O338  1  0.53103522  0.85040235  0.52070565  1
  O  O339  1  0.53433019  0.34267594  0.51742098  1
  O  O340  1  0.94422268  0.31167051  0.54834769  1
  O  O341  1  0.93017299  0.80361122  0.54725252  1
  O  O342  1  0.90947792  0.14762703  0.54245039  1
  O  O343  1  0.34256074  0.74525381  0.52092382  1
  O  O344  1  0.47299752  0.58292167  0.60890452  1
  O  O345  1  0.19878302  0.14425638  0.56720226  1
  O  O346  1  0.16543759  0.62348692  0.56060892  1
  O  O347  1  0.49437494  0.09853462  0.61449595  1
  O  O348  1  0.80148209  0.02393216  0.58764549  1
  O  O349  1  0.86941710  0.70818504  0.58827451  1
  O  O350  1  0.88115978  0.22227158  0.59094652  1
  O  O351  1  0.77781096  0.50832379  0.58095222  1
  O  O352  1  0.20352568  0.49258266  0.61684124  1
  O  O353  1  0.48044826  0.23755088  0.55713251  1
  O  O354  1  0.52028540  0.75348012  0.56448959  1
  O  O355  1  0.17951518  0.97262563  0.60919739  1
  O  O356  1  0.49066381  0.40743790  0.56663591  1
  O  O357  1  0.16813976  0.32942000  0.60581594  1
  O  O358  1  0.11528233  0.77536053  0.59201212  1
  O  O359  1  0.57109803  0.94567711  0.58224840  1
  O  O360  1  0.72753123  0.75573510  0.67453479  1
  O  O361  1  0.46277828  0.31921082  0.62975107  1
  O  O362  1  0.44077691  0.80223139  0.62435626  1
  O  O363  1  0.74970057  0.27240383  0.68007394  1
  O  O364  1  0.05637938  0.19972470  0.65280592  1
  O  O365  1  0.13050458  0.87624920  0.65084850  1
  O  O366  1  0.15398431  0.38929702  0.65633308  1
  O  O367  1  0.03748536  0.68415140  0.64816958  1
  O  O368  1  0.45990287  0.66495652  0.68092661  1
  O  O369  1  0.73064651  0.40957558  0.62216777  1
  O  O370  1  0.75081030  0.92419097  0.62802675  1
  O  O371  1  0.43486797  0.14901969  0.67464543  1
  O  O372  1  0.77141253  0.57199384  0.63108462  1
  O  O373  1  0.42497387  0.50095616  0.67226122  1
  O  O374  1  0.35535202  0.95825985  0.65501889  1
  O  O375  1  0.83144936  0.11781183  0.64847931  1
  O  O376  1  0.98241527  0.93069874  0.73961968  1
  O  O377  1  0.72156263  0.49305921  0.69473259  1
  O  O378  1  0.69638558  0.97696671  0.68848725  1
  O  O379  1  0.00517356  0.44673933  0.74581830  1
  O  O380  1  0.31293151  0.37461876  0.71875749  1
  O  O381  1  0.38902898  0.04935593  0.71563555  1
  O  O382  1  0.41463343  0.56552365  0.72204740  1
  O  O383  1  0.29088802  0.85796810  0.71277957  1
  O  O384  1  0.71542945  0.84025182  0.74648748  1
  O  O385  1  0.98762524  0.58298770  0.68823475  1
  O  O386  1  0.01087122  0.10071837  0.69402834  1
  O  O387  1  0.69070018  0.32391698  0.74014557  1
  O  O388  1  0.02294712  0.74681348  0.69797257  1
  O  O389  1  0.68092243  0.67620586  0.73735516  1
  O  O390  1  0.61393199  0.13114765  0.72025398  1
  O  O391  1  0.08832377  0.29262196  0.71406047  1
  O  O392  1  0.23612345  0.10545016  0.80511516  1
  O  O393  1  0.97662396  0.66772383  0.76039863  1
  O  O394  1  0.95213747  0.15217479  0.75407760  1
  O  O395  1  0.26154589  0.62153459  0.81163699  1
  O  O396  1  0.56869800  0.54988418  0.78440669  1
  O  O397  1  0.64446146  0.22445074  0.78115588  1
  O  O398  1  0.66802576  0.74014956  0.78721785  1
  O  O399  1  0.54383627  0.03351052  0.77793435  1
  O  O400  1  0.96960608  0.01524680  0.81164157  1
  O  O401  1  0.24370148  0.75855320  0.75370765  1
  O  O402  1  0.26673219  0.27499397  0.75970838  1
  O  O403  1  0.94689579  0.49782994  0.80587149  1
  O  O404  1  0.27806379  0.92266930  0.76257317  1
  O  O405  1  0.93514876  0.85108524  0.80218439  1
  O  O406  1  0.86902697  0.30644520  0.78580235  1
  O  O407  1  0.34422757  0.46798065  0.77960388  1
  O  O408  1  0.49265897  0.27978319  0.87016337  1
  O  O409  1  0.23023292  0.84290309  0.82549862  1
  O  O410  1  0.20787787  0.32640943  0.81976108  1
  O  O411  1  0.51546715  0.79601094  0.87560089  1
  O  O412  1  0.82666340  0.72218251  0.84936676  1
  O  O413  1  0.90083313  0.39840189  0.84700246  1
  O  O414  1  0.91981883  0.91463019  0.85189057  1
  O  O415  1  0.80222797  0.20888322  0.84366637  1
  O  O416  1  0.22495181  0.18920374  0.87768260  1
  O  O417  1  0.49797703  0.93356974  0.81892931  1
  O  O418  1  0.52297574  0.44932892  0.82526301  1
  O  O419  1  0.20611146  0.67537620  0.87213070  1
  O  O420  1  0.53224604  0.09758078  0.82776794  1
  O  O421  1  0.18464869  0.02644490  0.86880873  1
  O  O422  1  0.12454086  0.48081853  0.85156574  1
  O  O423  1  0.60273655  0.63956045  0.84504389  1
  O  O424  1  0.75401400  0.45451640  0.93274744  1
  O  O425  1  0.48240591  0.01574883  0.89108708  1
  O  O426  1  0.46085809  0.50035081  0.88545124  1
  O  O427  1  0.78995999  0.97639908  0.93975549  1
  O  O428  1  0.08539683  0.89089554  0.91182791  1
  O  O429  1  0.15337124  0.57523626  0.91223708  1
  O  O430  1  0.17664216  0.09067806  0.91885611  1
  O  O431  1  0.07184659  0.37638977  0.90900167  1
  O  O432  1  0.47127066  0.36169276  0.94277942  1
  O  O433  1  0.75117201  0.10654328  0.88332292  1
  O  O434  1  0.77644398  0.62621478  0.89103250  1
  O  O435  1  0.43451597  0.84496691  0.93526032  1
  O  O436  1  0.78692343  0.26967346  0.89411297  1
  O  O437  1  0.46103836  0.19180649  0.93328497  1
  O  O438  1  0.38489082  0.65258822  0.91800278  1
  O  O439  1  0.83913029  0.82445266  0.90828498  1
  O  O440  1  0.73760557  0.19477327  0.95987000  1
  O  O441  1  0.72700195  0.69218944  0.95129347  1
  O  O442  1  0.42257505  0.75009857  0.97944325  1
  O  O443  1  0.41746415  0.25621021  0.98251353  1
  O  O444  1  0.00856921  0.28753372  0.95173180  1
  O  O445  1  0.02454538  0.79602113  0.95299717  1
  O  O446  1  0.04294636  0.45180180  0.95738446  1
  O  O447  1  0.60959953  0.85601811  0.97876481  1
