# generated using pymatgen
data_Li3PO4
_symmetry_space_group_name_H-M   'P 1'
_cell_length_a   7.91303400
_cell_length_b   14.50933148
_cell_length_c   50.87343826
_cell_angle_alpha   90.00000000
_cell_angle_beta   90.00000000
_cell_angle_gamma   64.42826301
_symmetry_Int_Tables_number   1
_chemical_formula_structural   Li3PO4
_chemical_formula_sum   'Li192 P64 O256'
_cell_volume   5268.77917199
_cell_formula_units_Z   64
loop_
 _symmetry_equiv_pos_site_id
 _symmetry_equiv_pos_as_xyz
  1  'x, y, z'
loop_
 _atom_site_type_symbol
 _atom_site_label
 _atom_site_symmetry_multiplicity
 _atom_site_fract_x
 _atom_site_fract_y
 _atom_site_fract_z
 _atom_site_occupancy
  Li  Li0  1  0.34536502  0.69474787  0.98395932  1
  Li  Li1  1  0.25856886  0.05567068  0.03570467  1
  Li  Li2  1  0.22656247  0.56438080  0.03912803  1
  Li  Li3  1  0.32464260  0.22109195  0.03685974  1
  Li  Li4  1  0.98545254  0.29378654  0.00921357  1
  Li  Li5  1  0.88423655  0.13041894  0.01010050  1
  Li  Li6  1  0.54436738  0.86433403  0.02337084  1
  Li  Li7  1  0.01814460  0.89960368  0.04834118  1
  Li  Li8  1  0.02893663  0.45916503  0.03870146  1
  Li  Li9  1  0.59337212  0.33394004  0.03294933  1
  Li  Li10  1  0.01561428  0.57033528  0.09365177  1
  Li  Li11  1  0.99791961  0.88620174  0.09954063  1
  Li  Li12  1  0.98000979  0.36797357  0.10616290  1
  Li  Li13  1  0.04982098  0.07996104  0.09039047  1
  Li  Li14  1  0.67167306  0.16505827  0.05988189  1
  Li  Li15  1  0.62567475  0.45828766  0.07261708  1
  Li  Li16  1  0.61763629  0.97532882  0.06763950  1
  Li  Li17  1  0.65014317  0.65918374  0.06126107  1
  Li  Li18  1  0.30234602  0.69328137  0.08150153  1
  Li  Li19  1  0.70549974  0.76790850  0.10925738  1
  Li  Li20  1  0.73118944  0.28136898  0.10542688  1
  Li  Li21  1  0.29510328  0.16740616  0.09379368  1
  Li  Li22  1  0.75857347  0.39353615  0.15660133  1
  Li  Li23  1  0.74767274  0.70923459  0.15967373  1
  Li  Li24  1  0.72354453  0.19169274  0.16680021  1
  Li  Li25  1  0.78646597  0.90859590  0.15091576  1
  Li  Li26  1  0.41912623  0.99533715  0.12043244  1
  Li  Li27  1  0.34851883  0.28302476  0.13501821  1
  Li  Li28  1  0.37116157  0.79779136  0.12848111  1
  Li  Li29  1  0.39066729  0.48230702  0.12528770  1
  Li  Li30  1  0.05361914  0.51244845  0.14549640  1
  Li  Li31  1  0.45448166  0.59164800  0.16975772  1
  Li  Li32  1  0.47983818  0.10789134  0.16484214  1
  Li  Li33  1  0.03234940  0.99349635  0.15303982  1
  Li  Li34  1  0.50397209  0.21742158  0.21777983  1
  Li  Li35  1  0.49320881  0.53541248  0.22109164  1
  Li  Li36  1  0.46632463  0.01598834  0.22792006  1
  Li  Li37  1  0.53020882  0.73496575  0.21174125  1
  Li  Li38  1  0.16166300  0.82053592  0.18080225  1
  Li  Li39  1  0.09243802  0.10433887  0.19766297  1
  Li  Li40  1  0.11823853  0.62298678  0.18992416  1
  Li  Li41  1  0.13430914  0.30442964  0.18781927  1
  Li  Li42  1  0.79941304  0.33507880  0.20748895  1
  Li  Li43  1  0.19811058  0.41685626  0.23166558  1
  Li  Li44  1  0.22179290  0.93073613  0.22611120  1
  Li  Li45  1  0.77435597  0.81776511  0.21354815  1
  Li  Li46  1  0.24787903  0.04169409  0.27952480  1
  Li  Li47  1  0.23861502  0.35920396  0.28244971  1
  Li  Li48  1  0.21056814  0.84119379  0.28913369  1
  Li  Li49  1  0.27466833  0.55952974  0.27317957  1
  Li  Li50  1  0.90511816  0.64665123  0.24238285  1
  Li  Li51  1  0.83516651  0.92959177  0.25819661  1
  Li  Li52  1  0.86249798  0.44828753  0.25155770  1
  Li  Li53  1  0.87981091  0.12853032  0.24903862  1
  Li  Li54  1  0.54390800  0.16016249  0.26860913  1
  Li  Li55  1  0.94358141  0.24121406  0.29318901  1
  Li  Li56  1  0.96579735  0.75819966  0.28724361  1
  Li  Li57  1  0.51720408  0.64410147  0.27503971  1
  Li  Li58  1  0.99292308  0.86757002  0.34103162  1
  Li  Li59  1  0.98379671  0.18301690  0.34370435  1
  Li  Li60  1  0.95210656  0.66754489  0.35057975  1
  Li  Li61  1  0.02014696  0.38585704  0.33384284  1
  Li  Li62  1  0.64946185  0.47196969  0.30368388  1
  Li  Li63  1  0.57841956  0.75481877  0.32008371  1
  Li  Li64  1  0.60886609  0.27236747  0.31256379  1
  Li  Li65  1  0.62411724  0.95211402  0.31088541  1
  Li  Li66  1  0.28854407  0.98355218  0.33057340  1
  Li  Li67  1  0.68985308  0.06443453  0.35483712  1
  Li  Li68  1  0.70873808  0.58374851  0.34863992  1
  Li  Li69  1  0.26307657  0.47092394  0.33528458  1
  Li  Li70  1  0.73367845  0.69368889  0.40407000  1
  Li  Li71  1  0.72592246  0.00573744  0.40607022  1
  Li  Li72  1  0.69681076  0.49570977  0.41091004  1
  Li  Li73  1  0.75958070  0.21221844  0.39286252  1
  Li  Li74  1  0.39135524  0.29869269  0.36387796  1
  Li  Li75  1  0.32211502  0.57986606  0.38068162  1
  Li  Li76  1  0.35476722  0.09547507  0.37388044  1
  Li  Li77  1  0.37061171  0.77901160  0.37307879  1
  Li  Li78  1  0.03804680  0.81059739  0.39156406  1
  Li  Li79  1  0.44308879  0.88891177  0.42071971  1
  Li  Li80  1  0.45200159  0.40877474  0.40857902  1
  Li  Li81  1  0.00934759  0.29043192  0.39611285  1
  Li  Li82  1  0.46025659  0.51306421  0.46114706  1
  Li  Li83  1  0.40225171  0.82244079  0.50347559  1
  Li  Li84  1  0.45502259  0.30578017  0.46919516  1
  Li  Li85  1  0.52934915  0.03757840  0.46135134  1
  Li  Li86  1  0.15459460  0.11815296  0.42622665  1
  Li  Li87  1  0.07252392  0.40594751  0.43922320  1
  Li  Li88  1  0.10923379  0.92157489  0.43731548  1
  Li  Li89  1  0.09324596  0.61422778  0.43192110  1
  Li  Li90  1  0.72968477  0.67172328  0.45684399  1
  Li  Li91  1  0.15714620  0.71531939  0.48013458  1
  Li  Li92  1  0.20552828  0.23087192  0.47070621  1
  Li  Li93  1  0.79083084  0.13691522  0.44338417  1
  Li  Li94  1  0.83213591  0.15747988  0.49227825  1
  Li  Li95  1  0.82543822  0.46601176  0.47935318  1
  Li  Li96  1  0.90718139  0.95472195  0.48421315  1
  Li  Li97  1  0.98961052  0.59392829  0.53519640  1
  Li  Li98  1  0.02087142  0.08604096  0.53905029  1
  Li  Li99  1  0.92692555  0.42861470  0.53663879  1
  Li  Li100  1  0.26915880  0.35651011  0.50931818  1
  Li  Li101  1  0.36409885  0.52207916  0.51011907  1
  Li  Li102  1  0.70823168  0.78663096  0.52342958  1
  Li  Li103  1  0.23425561  0.75118656  0.54855813  1
  Li  Li104  1  0.22060551  0.19091498  0.53838322  1
  Li  Li105  1  0.65877255  0.31502321  0.53292008  1
  Li  Li106  1  0.23509821  0.08116854  0.59353586  1
  Li  Li107  1  0.25220729  0.76359181  0.59963464  1
  Li  Li108  1  0.27037365  0.28283637  0.60627313  1
  Li  Li109  1  0.20229430  0.57075413  0.59030129  1
  Li  Li110  1  0.58179402  0.48505058  0.55985722  1
  Li  Li111  1  0.62283850  0.19160813  0.57271291  1
  Li  Li112  1  0.63432048  0.67484029  0.56772158  1
  Li  Li113  1  0.60084376  0.99193336  0.56142090  1
  Li  Li114  1  0.94994060  0.95677083  0.58153528  1
  Li  Li115  1  0.54382825  0.88176094  0.60900250  1
  Li  Li116  1  0.52032711  0.36872220  0.60546606  1
  Li  Li117  1  0.96022983  0.48140379  0.59372653  1
  Li  Li118  1  0.49364740  0.25533049  0.65688593  1
  Li  Li119  1  0.50369086  0.94041571  0.65963000  1
  Li  Li120  1  0.52625275  0.45740051  0.66705406  1
  Li  Li121  1  0.46394185  0.74078113  0.65091843  1
  Li  Li122  1  0.83285098  0.65431981  0.62036807  1
  Li  Li123  1  0.90290943  0.36720627  0.63504681  1
  Li  Li124  1  0.87793981  0.85130581  0.62847911  1
  Li  Li125  1  0.86115588  0.16720549  0.62515940  1
  Li  Li126  1  0.19766433  0.13687590  0.64515932  1
  Li  Li127  1  0.79808976  0.05805936  0.66982839  1
  Li  Li128  1  0.77024928  0.54145884  0.66494792  1
  Li  Li129  1  0.21931811  0.65546280  0.65294641  1
  Li  Li130  1  0.74683778  0.43208576  0.71783649  1
  Li  Li131  1  0.75694047  0.11515188  0.72100815  1
  Li  Li132  1  0.78238870  0.63419155  0.72790667  1
  Li  Li133  1  0.71813761  0.91591981  0.71165549  1
  Li  Li134  1  0.08873175  0.82922656  0.68113853  1
  Li  Li135  1  0.15611896  0.54688683  0.69772568  1
  Li  Li136  1  0.13339786  0.02622135  0.68991969  1
  Li  Li137  1  0.11638222  0.34549873  0.68769708  1
  Li  Li138  1  0.45162036  0.31464226  0.70746942  1
  Li  Li139  1  0.05283937  0.23299087  0.73151800  1
  Li  Li140  1  0.02549626  0.71859246  0.72616243  1
  Li  Li141  1  0.47413675  0.83198803  0.71352917  1
  Li  Li142  1  0.00080760  0.60822554  0.77963639  1
  Li  Li143  1  0.01117675  0.29047345  0.78249099  1
  Li  Li144  1  0.03868085  0.80903499  0.78917343  1
  Li  Li145  1  0.97482308  0.08962369  0.77292775  1
  Li  Li146  1  0.34494729  0.00251612  0.74260944  1
  Li  Li147  1  0.41259643  0.72049559  0.75837156  1
  Li  Li148  1  0.38737983  0.20159758  0.75161074  1
  Li  Li149  1  0.36954148  0.52117690  0.74913920  1
  Li  Li150  1  0.70394335  0.49052623  0.76852991  1
  Li  Li151  1  0.30647405  0.40865757  0.79305191  1
  Li  Li152  1  0.28324720  0.89226563  0.78768994  1
  Li  Li153  1  0.73176302  0.00571503  0.77466304  1
  Li  Li154  1  0.25542599  0.78313229  0.84115818  1
  Li  Li155  1  0.26373548  0.46617545  0.84348988  1
  Li  Li156  1  0.29507511  0.98181279  0.85063777  1
  Li  Li157  1  0.22977902  0.26444206  0.83406886  1
  Li  Li158  1  0.60009831  0.17772891  0.80358718  1
  Li  Li159  1  0.67002782  0.89562961  0.81978210  1
  Li  Li160  1  0.64050725  0.37898342  0.81255391  1
  Li  Li161  1  0.62711438  0.69722183  0.81083614  1
  Li  Li162  1  0.96075352  0.66710015  0.83078985  1
  Li  Li163  1  0.55950504  0.58579708  0.85503691  1
  Li  Li164  1  0.53963129  0.06569632  0.84872991  1
  Li  Li165  1  0.98663843  0.17936338  0.83525538  1
  Li  Li166  1  0.51469097  0.95664259  0.90418193  1
  Li  Li167  1  0.52426162  0.64676810  0.90637839  1
  Li  Li168  1  0.55200062  0.15481494  0.91110138  1
  Li  Li169  1  0.48806491  0.43962901  0.89271256  1
  Li  Li170  1  0.85729866  0.35152548  0.86383263  1
  Li  Li171  1  0.92563491  0.07061719  0.88086697  1
  Li  Li172  1  0.89457586  0.55478226  0.87400668  1
  Li  Li173  1  0.87604982  0.87221964  0.87277801  1
  Li  Li174  1  0.20760008  0.84029076  0.89170100  1
  Li  Li175  1  0.80524574  0.76157230  0.92020062  1
  Li  Li176  1  0.79580622  0.24151978  0.90857318  1
  Li  Li177  1  0.24141945  0.35882045  0.89610288  1
  Li  Li178  1  0.78968058  0.13611829  0.96094180  1
  Li  Li179  1  0.85089709  0.82702531  0.00334841  1
  Li  Li180  1  0.79466224  0.34374174  0.96952764  1
  Li  Li181  1  0.72258866  0.61176951  0.96104815  1
  Li  Li182  1  0.09495101  0.53136446  0.92593391  1
  Li  Li183  1  0.17575956  0.24283989  0.93924190  1
  Li  Li184  1  0.13745853  0.72782421  0.93744577  1
  Li  Li185  1  0.15624635  0.03608210  0.93219939  1
  Li  Li186  1  0.52107092  0.97857295  0.95699692  1
  Li  Li187  1  0.09459689  0.93490473  0.98051732  1
  Li  Li188  1  0.04437402  0.41876587  0.97054663  1
  Li  Li189  1  0.45897700  0.51297283  0.94348013  1
  Li  Li190  1  0.41910670  0.49254882  0.99265313  1
  Li  Li191  1  0.42626286  0.18336183  0.97945334  1
  P  P192  1  0.69383740  0.02283707  0.01106624  1
  P  P193  1  0.69030661  0.51086420  0.01421420  1
  P  P194  1  0.89877889  0.75466621  0.05953127  1
  P  P195  1  0.35392166  0.88156864  0.07340140  1
  P  P196  1  0.33899722  0.36668448  0.07882283  1
  P  P197  1  0.97371994  0.26029114  0.05649524  1
  P  P198  1  0.66176782  0.57269737  0.11910859  1
  P  P199  1  0.10099992  0.70600162  0.13442097  1
  P  P200  1  0.07533110  0.18587718  0.14311751  1
  P  P201  1  0.69480460  0.09094092  0.11388970  1
  P  P202  1  0.40708953  0.39678472  0.18126759  1
  P  P203  1  0.84565603  0.53091773  0.19614103  1
  P  P204  1  0.81675968  0.01020122  0.20357808  1
  P  P205  1  0.43684333  0.91506724  0.17484725  1
  P  P206  1  0.15198771  0.22102234  0.24295463  1
  P  P207  1  0.59072203  0.35585260  0.25749772  1
  P  P208  1  0.56004349  0.83588195  0.26493302  1
  P  P209  1  0.18039149  0.73980231  0.23589053  1
  P  P210  1  0.89626057  0.04542961  0.30425723  1
  P  P211  1  0.33556860  0.18012240  0.31891860  1
  P  P212  1  0.30361005  0.66184381  0.32626373  1
  P  P213  1  0.92399124  0.56601433  0.29716282  1
  P  P214  1  0.64186507  0.87031730  0.36641952  1
  P  P215  1  0.08178500  0.00529583  0.38091713  1
  P  P216  1  0.04571161  0.48662245  0.38692124  1
  P  P217  1  0.66828426  0.39165908  0.35793375  1
  P  P218  1  0.38053772  0.69523659  0.42795634  1
  P  P219  1  0.83049240  0.83987818  0.44245322  1
  P  P220  1  0.79391670  0.31321476  0.44743618  1
  P  P221  1  0.41354474  0.21671630  0.41858864  1
  P  P222  1  0.09064885  0.52243001  0.48540513  1
  P  P223  1  0.16231677  0.04481070  0.47949983  1
  P  P224  1  0.55862999  0.62688309  0.51108590  1
  P  P225  1  0.56106870  0.13890926  0.51415342  1
  P  P226  1  0.35245013  0.89597836  0.55950403  1
  P  P227  1  0.89712278  0.76868468  0.57333095  1
  P  P228  1  0.91201824  0.28314409  0.57874597  1
  P  P229  1  0.27772927  0.38972747  0.55640074  1
  P  P230  1  0.58921208  0.07727766  0.61917928  1
  P  P231  1  0.14984011  0.94362157  0.63443918  1
  P  P232  1  0.17636796  0.46390756  0.64313037  1
  P  P233  1  0.55707670  0.55860887  0.61392499  1
  P  P234  1  0.84448619  0.25290473  0.68119842  1
  P  P235  1  0.40489613  0.11880250  0.69610740  1
  P  P236  1  0.43245373  0.63950181  0.70370289  1
  P  P237  1  0.81328419  0.73454969  0.67480688  1
  P  P238  1  0.09781439  0.42901071  0.74291838  1
  P  P239  1  0.65955740  0.29398415  0.75749710  1
  P  P240  1  0.68848673  0.81417954  0.76486352  1
  P  P241  1  0.06865640  0.90983079  0.73594532  1
  P  P242  1  0.35275146  0.60475697  0.80434631  1
  P  P243  1  0.91365606  0.47000133  0.81889035  1
  P  P244  1  0.94456659  0.98860720  0.82622641  1
  P  P245  1  0.32499650  0.08408109  0.79722018  1
  P  P246  1  0.60688209  0.78033854  0.86633078  1
  P  P247  1  0.16668934  0.64534309  0.88087357  1
  P  P248  1  0.20287163  0.16321540  0.88702641  1
  P  P249  1  0.58095994  0.25847668  0.85790901  1
  P  P250  1  0.86847181  0.95493219  0.92802029  1
  P  P251  1  0.41824643  0.81045233  0.94245550  1
  P  P252  1  0.45559074  0.33690550  0.94749444  1
  P  P253  1  0.83524966  0.43329905  0.91856550  1
  P  P254  1  0.16048314  0.12728222  0.98565632  1
  P  P255  1  0.08782234  0.60481419  0.97937636  1
  O  O256  1  0.61064055  0.07013876  0.03835904  1
  O  O257  1  0.57368451  0.59463988  0.99439772  1
  O  O258  1  0.84590149  0.23175559  0.03737319  1
  O  O259  1  0.77402606  0.54727005  0.03684367  1
  O  O260  1  0.90743218  0.94970767  0.01397154  1
  O  O261  1  0.78451957  0.77451543  0.03404555  1
  O  O262  1  0.59743973  0.96034557  0.99856240  1
  O  O263  1  0.84643584  0.42427199  0.99762207  1
  O  O264  1  0.67430420  0.11490465  0.99304140  1
  O  O265  1  0.55561767  0.46741046  0.02699638  1
  O  O266  1  0.06246014  0.32097994  0.04166039  1
  O  O267  1  0.11327830  0.69438762  0.05505076  1
  O  O268  1  0.13620903  0.94322435  0.07602711  1
  O  O269  1  0.18774591  0.46746260  0.06696100  1
  O  O270  1  0.13765180  0.15749522  0.06507940  1
  O  O271  1  0.54929491  0.06424150  0.09907374  1
  O  O272  1  0.48187964  0.39164996  0.09464155  1
  O  O273  1  0.44527157  0.87547247  0.10093307  1
  O  O274  1  0.56927205  0.58201508  0.09159967  1
  O  O275  1  0.40061448  0.77526002  0.06197512  1
  O  O276  1  0.86210297  0.86125581  0.07173002  1
  O  O277  1  0.85259573  0.32669874  0.07897954  1
  O  O278  1  0.44565845  0.29192860  0.05567752  1
  O  O279  1  0.83227233  0.69427844  0.07911129  1
  O  O280  1  0.42313483  0.94134432  0.05398281  1
  O  O281  1  0.25136681  0.31328062  0.09755063  1
  O  O282  1  0.77764624  0.14301267  0.09411332  1
  O  O283  1  0.87890473  0.50890314  0.11674294  1
  O  O284  1  0.88487655  0.77003701  0.13726006  1
  O  O285  1  0.91278552  0.28579801  0.13275239  1
  O  O286  1  0.85587574  0.99237403  0.12494140  1
  O  O287  1  0.29333292  0.88784542  0.15960095  1
  O  O288  1  0.22135011  0.21369198  0.15741749  1
  O  O289  1  0.19429604  0.69698126  0.16197467  1
  O  O290  1  0.31642879  0.40559626  0.15354885  1
  O  O291  1  0.14431070  0.59759516  0.12385623  1
  O  O292  1  0.61666600  0.68034961  0.13044354  1
  O  O293  1  0.59522964  0.16658106  0.13665714  1
  O  O294  1  0.17277689  0.11312176  0.11977599  1
  O  O295  1  0.58504954  0.51595860  0.13849029  1
  O  O296  1  0.17998361  0.76131445  0.11514695  1
  O  O297  1  0.99408265  0.13192192  0.16243289  1
  O  O298  1  0.51781920  0.97019635  0.15571498  1
  O  O299  1  0.62346218  0.33261546  0.17911480  1
  O  O300  1  0.62931764  0.59480139  0.19835006  1
  O  O301  1  0.65440807  0.11015474  0.19295222  1
  O  O302  1  0.60059988  0.81519184  0.18510623  1
  O  O303  1  0.03627042  0.71236398  0.22087754  1
  O  O304  1  0.96059094  0.03755245  0.21866422  1
  O  O305  1  0.93701923  0.52249113  0.22375087  1
  O  O306  1  0.05955181  0.22959557  0.21542360  1
  O  O307  1  0.89026546  0.42227746  0.18559272  1
  O  O308  1  0.36284591  0.50517548  0.19190559  1
  O  O309  1  0.33810092  0.98659701  0.19833870  1
  O  O310  1  0.91582765  0.93769695  0.18026949  1
  O  O311  1  0.32708198  0.34143895  0.20045008  1
  O  O312  1  0.92570130  0.58597600  0.17689764  1
  O  O313  1  0.73450288  0.95628361  0.22279321  1
  O  O314  1  0.26167263  0.79364768  0.21644350  1
  O  O315  1  0.36824856  0.15726098  0.24049775  1
  O  O316  1  0.37435494  0.41935324  0.25989651  1
  O  O317  1  0.39621601  0.93537990  0.25443697  1
  O  O318  1  0.34362655  0.64025655  0.24646122  1
  O  O319  1  0.77977112  0.53858547  0.28218325  1
  O  O320  1  0.70404913  0.86371043  0.27982551  1
  O  O321  1  0.68294364  0.34706519  0.28505647  1
  O  O322  1  0.80475758  0.05413270  0.27664870  1
  O  O323  1  0.63554238  0.24737948  0.24675544  1
  O  O324  1  0.10740117  0.32963176  0.25349691  1
  O  O325  1  0.08228085  0.81256444  0.25922658  1
  O  O326  1  0.65789731  0.76370281  0.24147210  1
  O  O327  1  0.07287893  0.16552317  0.26218760  1
  O  O328  1  0.66976612  0.41162129  0.23832914  1
  O  O329  1  0.47982504  0.78147685  0.28434835  1
  O  O330  1  0.00435952  0.62078715  0.27788113  1
  O  O331  1  0.11256361  0.98162074  0.30204518  1
  O  O332  1  0.11920109  0.24448757  0.32128125  1
  O  O333  1  0.14099147  0.76149207  0.31564529  1
  O  O334  1  0.08869291  0.46605249  0.30728078  1
  O  O335  1  0.52479986  0.36447173  0.34272850  1
  O  O336  1  0.44741577  0.68896346  0.34143098  1
  O  O337  1  0.42791233  0.17214974  0.34641556  1
  O  O338  1  0.54912940  0.87796774  0.33884662  1
  O  O339  1  0.37930104  0.07143625  0.30850869  1
  O  O340  1  0.85193003  0.15409919  0.31481588  1
  O  O341  1  0.82640776  0.63737667  0.32074691  1
  O  O342  1  0.40225114  0.58912975  0.30289142  1
  O  O343  1  0.81636593  0.99028085  0.32347524  1
  O  O344  1  0.41485224  0.23531784  0.29956456  1
  O  O345  1  0.22135177  0.60759291  0.34541720  1
  O  O346  1  0.75081193  0.44611042  0.33897675  1
  O  O347  1  0.85831528  0.80680059  0.36377953  1
  O  O348  1  0.86472017  0.06924860  0.38316681  1
  O  O349  1  0.88092423  0.58751007  0.37743994  1
  O  O350  1  0.83157992  0.29135040  0.36821273  1
  O  O351  1  0.27151369  0.18711939  0.40395734  1
  O  O352  1  0.18750825  0.51301557  0.40300182  1
  O  O353  1  0.17415293  0.99738144  0.40831904  1
  O  O354  1  0.29582104  0.69920434  0.39987306  1
  O  O355  1  0.12667173  0.89714571  0.36993850  1
  O  O356  1  0.59853970  0.97964503  0.37628895  1
  O  O357  1  0.56899314  0.46314892  0.38141175  1
  O  O358  1  0.14682949  0.41773090  0.36313429  1
  O  O359  1  0.56301396  0.81635438  0.38608382  1
  O  O360  1  0.15887978  0.06139042  0.36139629  1
  O  O361  1  0.96584083  0.42827977  0.40509156  1
  O  O362  1  0.49221691  0.27171951  0.39907812  1
  O  O363  1  0.59838052  0.62977672  0.42693074  1
  O  O364  1  0.61962526  0.91065238  0.44386939  1
  O  O365  1  0.63002426  0.41208935  0.43694238  1
  O  O366  1  0.58027003  0.12074570  0.42978796  1
  O  O367  1  0.98571365  0.04684933  0.46415177  1
  O  O368  1  0.94188300  0.34064315  0.46102731  1
  O  O369  1  0.92990704  0.83162459  0.46941832  1
  O  O370  1  0.98044377  0.54294723  0.45934250  1
  O  O371  1  0.85759018  0.73177701  0.43305423  1
  O  O372  1  0.34182165  0.80232669  0.43762526  1
  O  O373  1  0.31182270  0.29026325  0.44159139  1
  O  O374  1  0.88652580  0.23495238  0.42466345  1
  O  O375  1  0.29351570  0.64185719  0.44706214  1
  O  O376  1  0.92100202  0.88618065  0.42205527  1
  O  O377  1  0.71341285  0.26139903  0.46730925  1
  O  O378  1  0.25751620  0.09556810  0.46134752  1
  O  O379  1  0.30170450  0.44737965  0.48057057  1
  O  O380  1  0.28399995  0.93388382  0.48495820  1
  O  O381  1  0.09226536  0.61541782  0.49998286  1
  O  O382  1  0.08452985  0.11445308  0.50433835  1
  O  O383  1  0.00635956  0.46904264  0.50447153  1
  O  O384  1  0.64368568  0.57939178  0.53830005  1
  O  O385  1  0.67682572  0.05462482  0.49437780  1
  O  O386  1  0.40557498  0.41768320  0.53711469  1
  O  O387  1  0.47682711  0.10332752  0.53688772  1
  O  O388  1  0.34482034  0.69928467  0.51421529  1
  O  O389  1  0.46760316  0.87557519  0.53408839  1
  O  O390  1  0.65362821  0.69007326  0.49855139  1
  O  O391  1  0.40510879  0.22557654  0.49756009  1
  O  O392  1  0.57767488  0.53507999  0.49300682  1
  O  O393  1  0.69698037  0.18178127  0.52680469  1
  O  O394  1  0.18879368  0.32900074  0.54161805  1
  O  O395  1  0.13792985  0.95555737  0.55488687  1
  O  O396  1  0.11484595  0.70758976  0.57606593  1
  O  O397  1  0.06325542  0.18246339  0.56686658  1
  O  O398  1  0.11435366  0.49281302  0.56493610  1
  O  O399  1  0.70321505  0.58501276  0.59917121  1
  O  O400  1  0.76927440  0.25815021  0.59457664  1
  O  O401  1  0.80524446  0.77432988  0.60081314  1
  O  O402  1  0.68177736  0.06811912  0.59167685  1
  O  O403  1  0.84967236  0.87519701  0.56199268  1
  O  O404  1  0.38961231  0.78955423  0.57192938  1
  O  O405  1  0.39839981  0.32366291  0.57897808  1
  O  O406  1  0.80575678  0.35781722  0.55557274  1
  O  O407  1  0.41767588  0.95708404  0.57901924  1
  O  O408  1  0.82903762  0.70866214  0.55385004  1
  O  O409  1  0.99972756  0.33651811  0.59749300  1
  O  O410  1  0.47443511  0.50673068  0.59404259  1
  O  O411  1  0.37213697  0.14160212  0.61675554  1
  O  O412  1  0.36597938  0.87953709  0.63718763  1
  O  O413  1  0.33946122  0.36395469  0.63290122  1
  O  O414  1  0.39545711  0.65723705  0.62488797  1
  O  O415  1  0.95730204  0.76155133  0.65963441  1
  O  O416  1  0.02966191  0.43608739  0.65724393  1
  O  O417  1  0.05717226  0.95279616  0.66205027  1
  O  O418  1  0.93478714  0.24412539  0.65346650  1
  O  O419  1  0.10664982  0.05191208  0.62375889  1
  O  O420  1  0.63327862  0.96958241  0.63037294  1
  O  O421  1  0.65527027  0.48299286  0.63674807  1
  O  O422  1  0.08005124  0.53661250  0.61972797  1
  O  O423  1  0.66653407  0.13357231  0.63859800  1
  O  O424  1  0.07012856  0.88832258  0.61526095  1
  O  O425  1  0.25636929  0.51799364  0.66259151  1
  O  O426  1  0.73285641  0.67919607  0.65565931  1
  O  O427  1  0.62798074  0.31676340  0.67915484  1
  O  O428  1  0.62140128  0.05514082  0.69826822  1
  O  O429  1  0.59498178  0.53949023  0.69313939  1
  O  O430  1  0.64937983  0.83448798  0.68501231  1
  O  O431  1  0.21299967  0.93707448  0.72092826  1
  O  O432  1  0.28808711  0.61245363  0.71874491  1
  O  O433  1  0.31375707  0.12677763  0.72371682  1
  O  O434  1  0.19016816  0.42070180  0.71538975  1
  O  O435  1  0.36025628  0.22761737  0.68568595  1
  O  O436  1  0.88896581  0.14455781  0.69189881  1
  O  O437  1  0.91094778  0.66319484  0.69837295  1
  O  O438  1  0.33431679  0.71186368  0.68032403  1
  O  O439  1  0.92405723  0.30850416  0.70036683  1
  O  O440  1  0.32515244  0.06387867  0.67678285  1
  O  O441  1  0.51425432  0.69361623  0.72293917  1
  O  O442  1  0.98745982  0.85571468  0.71658102  1
  O  O443  1  0.88149645  0.49263017  0.74049318  1
  O  O444  1  0.87591476  0.23046799  0.75981447  1
  O  O445  1  0.85197156  0.71440499  0.75444942  1
  O  O446  1  0.90521883  0.00966150  0.74634442  1
  O  O447  1  0.46958884  0.11110780  0.78220271  1
  O  O448  1  0.54441932  0.78674664  0.77986993  1
  O  O449  1  0.56733311  0.30296390  0.78505782  1
  O  O450  1  0.44425026  0.59592180  0.77671898  1
  O  O451  1  0.61437815  0.40247269  0.74672201  1
  O  O452  1  0.14292373  0.32032803  0.75347222  1
  O  O453  1  0.16637393  0.83779806  0.75940822  1
  O  O454  1  0.59086473  0.88619838  0.74137145  1
  O  O455  1  0.17647377  0.48467822  0.76219008  1
  O  O456  1  0.58026403  0.23820646  0.73836448  1
  O  O457  1  0.76929635  0.86864912  0.78417247  1
  O  O458  1  0.24424216  0.02946125  0.77794692  1
  O  O459  1  0.13645725  0.66872629  0.80210343  1
  O  O460  1  0.12997913  0.40541757  0.82121634  1
  O  O461  1  0.10789540  0.88888574  0.81578107  1
  O  O462  1  0.16111508  0.18427646  0.80735934  1
  O  O463  1  0.72438330  0.28585146  0.84275490  1
  O  O464  1  0.80022284  0.96148217  0.84123565  1
  O  O465  1  0.82128687  0.47799131  0.84638540  1
  O  O466  1  0.69949887  0.77276066  0.83875637  1
  O  O467  1  0.87042178  0.57870690  0.80857787  1
  O  O468  1  0.39676660  0.49604899  0.81485184  1
  O  O469  1  0.42184131  0.01254316  0.82080654  1
  O  O470  1  0.84715777  0.06090180  0.80275069  1
  O  O471  1  0.43293702  0.65979146  0.82354853  1
  O  O472  1  0.83420269  0.41513004  0.79947594  1
  O  O473  1  0.02594041  0.04293021  0.84549286  1
  O  O474  1  0.49902622  0.20369259  0.83895374  1
  O  O475  1  0.39023492  0.84311828  0.86377056  1
  O  O476  1  0.38379890  0.58234453  0.88326710  1
  O  O477  1  0.36704801  0.06216146  0.87751835  1
  O  O478  1  0.41724977  0.35883611  0.86813258  1
  O  O479  1  0.97796466  0.46246673  0.90394167  1
  O  O480  1  0.06086870  0.13723085  0.90318067  1
  O  O481  1  0.07357879  0.65308001  0.90821876  1
  O  O482  1  0.95156694  0.95140860  0.89984054  1
  O  O483  1  0.12042211  0.75360523  0.86984325  1
  O  O484  1  0.65149007  0.67095229  0.87629796  1
  O  O485  1  0.67945900  0.18721330  0.88146617  1
  O  O486  1  0.10208360  0.23230003  0.86325900  1
  O  O487  1  0.68491524  0.83477862  0.88596585  1
  O  O488  1  0.09097908  0.58849915  0.86137627  1
  O  O489  1  0.28349990  0.22127425  0.90518043  1
  O  O490  1  0.75581995  0.37879095  0.89901891  1
  O  O491  1  0.65074284  0.02112995  0.92722238  1
  O  O492  1  0.62892527  0.73845145  0.94331797  1
  O  O493  1  0.62002918  0.23812180  0.93703031  1
  O  O494  1  0.66910529  0.52956676  0.92977061  1
  O  O495  1  0.26398637  0.60370507  0.96413431  1
  O  O496  1  0.30804962  0.30889686  0.96099830  1
  O  O497  1  0.32168376  0.81855198  0.96963709  1
  O  O498  1  0.26970998  0.10639459  0.95951702  1
  O  O499  1  0.39229038  0.91845451  0.93317202  1
  O  O500  1  0.90608536  0.84784980  0.93753451  1
  O  O501  1  0.93635975  0.35954383  0.94157276  1
  O  O502  1  0.36318424  0.41508317  0.92468863  1
  O  O503  1  0.95740845  0.00732112  0.94711772  1
  O  O504  1  0.32472368  0.76526023  0.92222622  1
  O  O505  1  0.53564798  0.38880782  0.96743228  1
  O  O506  1  0.99433870  0.55316024  0.96120131  1
  O  O507  1  0.94946676  0.20255182  0.98081801  1
  O  O508  1  0.96306307  0.71555400  0.98458738  1
  O  O509  1  0.15838483  0.03470878  0.00036564  1
  O  O510  1  0.16586640  0.53589480  0.00432269  1
  O  O511  1  0.24550195  0.18079947  0.00455688  1
