# generated using pymatgen
data_Na3PS4
_symmetry_space_group_name_H-M   'P 1'
_cell_length_a   7.16981500
_cell_length_b   15.66667701
_cell_length_c   43.86756100
_cell_angle_alpha   90.00000000
_cell_angle_beta   90.00000000
_cell_angle_gamma   90.00193465
_symmetry_Int_Tables_number   1
_chemical_formula_structural   Na3PS4
_chemical_formula_sum   'Na39 P13 S52'
_cell_volume   4927.51923438
_cell_formula_units_Z   13
loop_
 _symmetry_equiv_pos_site_id
 _symmetry_equiv_pos_as_xyz
  1  'x, y, z'
loop_
 _atom_site_type_symbol
 _atom_site_label
 _atom_site_symmetry_multiplicity
 _atom_site_fract_x
 _atom_site_fract_y
 _atom_site_fract_z
 _atom_site_occupancy
  Na  Na0  1  0.54735498  0.11699114  0.09575768  1
  Na  Na1  1  0.07886101  0.10995269  0.09960755  1
  Na  Na2  1  0.13807554  0.72154065  0.02814648  1
  Na  Na3  1  0.97820028  0.92786967  0.05511646  1
  Na  Na4  1  0.98580495  0.33889680  0.12794671  1
  Na  Na5  1  0.48933592  0.66676805  0.08906237  1
  Na  Na6  1  0.54884469  0.44963707  0.06993765  1
  Na  Na7  1  0.41062820  0.83048776  0.13136181  1
  Na  Na8  1  0.91214788  0.82001073  0.12475113  1
  Na  Na9  1  0.58042693  0.91520055  0.23929588  1
  Na  Na10  1  0.59344537  0.52128224  0.16015179  1
  Na  Na11  1  0.07808070  0.91643116  0.23819610  1
  Na  Na12  1  0.09565473  0.52338039  0.16404965  1
  Na  Na13  1  0.99873810  0.72087781  0.19797966  1
  Na  Na14  1  0.99243279  0.11862330  0.27217348  1
  Na  Na15  1  0.49547482  0.01453064  0.16992890  1
  Na  Na16  1  0.49750619  0.42375673  0.23092427  1
  Na  Na17  1  0.40600136  0.21714769  0.20056158  1
  Na  Na18  1  0.41853827  0.61960668  0.27210665  1
  Na  Na19  1  0.91081868  0.21909179  0.19998011  1
  Na  Na20  1  0.91951762  0.61963302  0.27207735  1
  Na  Na21  1  0.59442344  0.71675046  0.38371726  1
  Na  Na22  1  0.58068540  0.32345973  0.30463913  1
  Na  Na23  1  0.09585263  0.71485264  0.37975683  1
  Na  Na24  1  0.07807511  0.32193535  0.30572002  1
  Na  Na25  1  0.99924119  0.51604601  0.34605139  1
  Na  Na26  1  0.98656575  0.89844473  0.41649142  1
  Na  Na27  1  0.49791755  0.81680891  0.31313962  1
  Na  Na28  1  0.49599075  0.22460419  0.37399229  1
  Na  Na29  1  0.40577531  0.02182672  0.34383773  1
  Na  Na30  1  0.41102892  0.40748665  0.41284848  1
  Na  Na31  1  0.91107505  0.01951493  0.34429565  1
  Na  Na32  1  0.91270052  0.41797005  0.41933240  1
  Na  Na33  1  0.54618865  0.12102494  0.44824883  1
  Na  Na34  1  0.13880382  0.51655967  0.51589192  1
  Na  Na35  1  0.07722515  0.12806659  0.44468013  1
  Na  Na36  1  0.97937077  0.31060049  0.48906216  1
  Na  Na37  1  0.49087383  0.57156835  0.45489561  1
  Na  Na38  1  0.54912001  0.78835582  0.47416267  1
  P  P39  1  0.48746345  0.92966102  0.05757217  1
  P  P40  1  0.49340646  0.31500772  0.12907828  1
  P  P41  1  0.01652043  0.61500284  0.09008595  1
  P  P42  1  0.50204530  0.71834709  0.19975330  1
  P  P43  1  0.49085885  0.11935982  0.27215439  1
  P  P44  1  0.99147694  0.01506285  0.16771807  1
  P  P45  1  0.99750338  0.42122136  0.23424294  1
  P  P46  1  0.50251773  0.51927893  0.34423586  1
  P  P47  1  0.49370278  0.92270740  0.41505725  1
  P  P48  1  0.99819391  0.81837621  0.30973872  1
  P  P49  1  0.99195471  0.22316269  0.37643191  1
  P  P50  1  0.48860710  0.30820685  0.48674957  1
  P  P51  1  0.01815699  0.62316493  0.45385452  1
  S  S52  1  0.66391640  0.28850686  0.09211730  1
  S  S53  1  0.64691756  0.90688344  0.02082469  1
  S  S54  1  0.16097724  0.97053521  0.13317460  1
  S  S55  1  0.20662604  0.57163097  0.05770925  1
  S  S56  1  0.31286629  0.21418385  0.13677769  1
  S  S57  1  0.30940281  0.82816509  0.06842968  1
  S  S58  1  0.85063994  0.70711696  0.07011976  1
  S  S59  1  0.31739844  0.03629669  0.05149695  1
  S  S60  1  0.33865686  0.42271171  0.12013893  1
  S  S61  1  0.84891275  0.51686546  0.10575506  1
  S  S62  1  0.65776237  0.94802861  0.09601350  1
  S  S63  1  0.15936676  0.66623386  0.12693621  1
  S  S64  1  0.65631917  0.09538081  0.23452019  1
  S  S65  1  0.66054884  0.69949627  0.16072961  1
  S  S66  1  0.16824500  0.77439904  0.27503009  1
  S  S67  1  0.15735416  0.37311618  0.19899920  1
  S  S68  1  0.32843158  0.01321642  0.28088643  1
  S  S69  1  0.33890504  0.61205526  0.20764613  1
  S  S70  1  0.82396375  0.11123143  0.15054237  1
  S  S71  1  0.83714380  0.52083474  0.21804396  1
  S  S72  1  0.33414305  0.82425825  0.19386713  1
  S  S73  1  0.32708642  0.22507877  0.26335952  1
  S  S74  1  0.83243803  0.91472529  0.18342489  1
  S  S75  1  0.82821685  0.32489942  0.25082454  1
  S  S76  1  0.67118250  0.73870035  0.23715142  1
  S  S77  1  0.65385340  0.33731490  0.16738419  1
  S  S78  1  0.15293892  0.06407679  0.20262679  1
  S  S79  1  0.16695850  0.46501366  0.26907425  1
  S  S80  1  0.65492232  0.90132949  0.37678514  1
  S  S81  1  0.67180544  0.49974772  0.30678051  1
  S  S82  1  0.16081397  0.57215736  0.41696987  1
  S  S83  1  0.15342035  0.17443050  0.34150906  1
  S  S84  1  0.34071526  0.81428374  0.42369921  1
  S  S85  1  0.33569624  0.41298013  0.35016804  1
  S  S86  1  0.82954698  0.91482863  0.29310487  1
  S  S87  1  0.83344815  0.32372963  0.36079665  1
  S  S88  1  0.33831946  0.62524165  0.33646516  1
  S  S89  1  0.31175681  0.02308653  0.40757704  1
  S  S90  1  0.83636724  0.71909251  0.32580914  1
  S  S91  1  0.82368315  0.12714051  0.39347636  1
  S  S92  1  0.66109568  0.53843276  0.38323211  1
  S  S93  1  0.65625592  0.14378048  0.30975609  1
  S  S94  1  0.15777352  0.86584059  0.34510441  1
  S  S95  1  0.16168850  0.26706909  0.41105638  1
  S  S96  1  0.65913844  0.28957052  0.44830604  1
  S  S97  1  0.31777408  0.20183047  0.49276211  1
  S  S98  1  0.85017631  0.72132667  0.43831041  1
  S  S99  1  0.31156547  0.41006266  0.47579611  1
  S  S100  1  0.85221206  0.53083744  0.47372504  1
  S  S101  1  0.64790751  0.33085001  0.52350697  1
  S  S102  1  0.66376163  0.94950467  0.45206080  1
  S  S103  1  0.20840611  0.66623847  0.48625339  1
