# generated using pymatgen
data_Na3PS4
_symmetry_space_group_name_H-M   'P 1'
_cell_length_a   7.00642000
_cell_length_b   15.96026505
_cell_length_c   44.06482300
_cell_angle_alpha   90.00000000
_cell_angle_beta   90.00000000
_cell_angle_gamma   90.00450892
_symmetry_Int_Tables_number   1
_chemical_formula_structural   Na3PS4
_chemical_formula_sum   'Na42 P14 S56'
_cell_volume   4927.51886355
_cell_formula_units_Z   14
loop_
 _symmetry_equiv_pos_site_id
 _symmetry_equiv_pos_as_xyz
  1  'x, y, z'
loop_
 _atom_site_type_symbol
 _atom_site_label
 _atom_site_symmetry_multiplicity
 _atom_site_fract_x
 _atom_site_fract_y
 _atom_site_fract_z
 _atom_site_occupancy
  Na  Na0  1  0.52553174  0.11979664  0.05880856  1
  Na  Na1  1  0.48837572  0.52604366  0.13056268  1
  Na  Na2  1  0.51784777  0.32309984  0.09661933  1
  Na  Na3  1  0.02523205  0.35993471  0.10208414  1
  Na  Na4  1  0.01277874  0.95036612  0.04475571  1
  Na  Na5  1  0.50059788  0.06092253  0.13517634  1
  Na  Na6  1  0.47882538  0.65192445  0.06321243  1
  Na  Na7  1  0.01628962  0.28752939  0.00933939  1
  Na  Na8  1  0.99251336  0.68170932  0.08131209  1
  Na  Na9  1  0.98390132  0.88318365  0.11556773  1
  Na  Na10  1  0.99408602  0.48653284  0.03294387  1
  Na  Na11  1  0.49939240  0.92932640  0.20656284  1
  Na  Na12  1  0.49502150  0.33807669  0.27430598  1
  Na  Na13  1  0.50707251  0.13095089  0.24170610  1
  Na  Na14  1  0.50033385  0.72653412  0.16885390  1
  Na  Na15  1  0.01129372  0.16261673  0.24906555  1
  Na  Na16  1  0.99685641  0.74952315  0.18481066  1
  Na  Na17  1  0.50949022  0.86720979  0.28470295  1
  Na  Na18  1  0.48851909  0.46852367  0.20742943  1
  Na  Na19  1  0.00151308  0.09572798  0.14768089  1
  Na  Na20  1  0.99007152  0.49560500  0.21961924  1
  Na  Na21  1  0.99478977  0.69302050  0.25903524  1
  Na  Na22  1  0.99832411  0.29550112  0.18196053  1
  Na  Na23  1  0.49793910  0.73438011  0.35158700  1
  Na  Na24  1  0.48421217  0.14746403  0.41783721  1
  Na  Na25  1  0.50143442  0.93511712  0.38544753  1
  Na  Na26  1  0.49176969  0.53437444  0.31371566  1
  Na  Na27  1  0.00017819  0.96947477  0.39804899  1
  Na  Na28  1  0.99105298  0.56186479  0.32566904  1
  Na  Na29  1  0.52549859  0.67024634  0.43139882  1
  Na  Na30  1  0.49684896  0.28084218  0.34844002  1
  Na  Na31  1  0.00567109  0.90020935  0.29163160  1
  Na  Na32  1  0.00065544  0.30418354  0.36462341  1
  Na  Na33  1  0.98780992  0.50536914  0.40258273  1
  Na  Na34  1  0.00020460  0.10150998  0.32701595  1
  Na  Na35  1  0.49106732  0.54466779  0.50029087  1
  Na  Na36  1  0.51645786  0.74410738  0.52361879  1
  Na  Na37  1  0.49340091  0.34876533  0.45210532  1
  Na  Na38  1  0.97926096  0.37928082  0.46944058  1
  Na  Na39  1  0.51361474  0.08024315  0.48852283  1
  Na  Na40  1  0.01754887  0.70773346  0.43644986  1
  Na  Na41  1  0.02686402  0.91092381  0.47438055  1
  P  P42  1  0.01979141  0.14939156  0.06985927  1
  P  P43  1  0.99130607  0.55735626  0.14277136  1
  P  P44  1  0.49714756  0.45837052  0.03034786  1
  P  P45  1  0.48648411  0.85076583  0.09819992  1
  P  P46  1  0.00207526  0.95975647  0.21321862  1
  P  P47  1  0.99682498  0.36502301  0.28469630  1
  P  P48  1  0.49930450  0.26038846  0.17543357  1
  P  P49  1  0.49612820  0.66482214  0.24877414  1
  P  P50  1  0.99864312  0.76996319  0.35783143  1
  P  P51  1  0.98700552  0.17892221  0.43511943  1
  P  P52  1  0.50351599  0.07115266  0.32003856  1
  P  P53  1  0.49059500  0.47254684  0.39046167  1
  P  P54  1  0.99449647  0.57311662  0.50260300  1
  P  P55  1  0.52128022  0.88160576  0.46318317  1
  S  S56  1  0.16819206  0.05017653  0.08898598  1
  S  S57  1  0.69258903  0.36416861  0.04093945  1
  S  S58  1  0.66202543  0.74965323  0.10751385  1
  S  S59  1  0.21238509  0.24314232  0.06019595  1
  S  S60  1  0.17501125  0.65667150  0.13477219  1
  S  S61  1  0.33799024  0.48592967  0.07003753  1
  S  S62  1  0.81548267  0.18932881  0.10056790  1
  S  S63  1  0.65393537  0.94690579  0.08210570  1
  S  S64  1  0.64629746  0.56386026  0.01730554  1
  S  S65  1  0.89442616  0.11304546  0.02948751  1
  S  S66  1  0.85408657  0.52568033  0.10304472  1
  S  S67  1  0.30533275  0.42353398  0.99790387  1
  S  S68  1  0.27701973  0.81460443  0.06672449  1
  S  S69  1  0.15522934  0.85899920  0.22960320  1
  S  S70  1  0.14978747  0.45704448  0.15835478  1
  S  S71  1  0.68592530  0.16336802  0.18501189  1
  S  S72  1  0.67718753  0.56591562  0.25788015  1
  S  S73  1  0.18985851  0.05482631  0.20229079  1
  S  S74  1  0.17811155  0.46372969  0.27534395  1
  S  S75  1  0.35825815  0.88594482  0.13845292  1
  S  S76  1  0.34991340  0.29043858  0.21454021  1
  S  S77  1  0.81257481  0.99914153  0.24623599  1
  S  S78  1  0.79163224  0.59245247  0.17500090  1
  S  S79  1  0.65428324  0.76573822  0.23328914  1
  S  S80  1  0.65055251  0.36271030  0.16001400  1
  S  S81  1  0.84848799  0.92560045  0.17487962  1
  S  S82  1  0.85355631  0.33227217  0.24546231  1
  S  S83  1  0.30865281  0.22466440  0.14226826  1
  S  S84  1  0.30085311  0.63076320  0.21578687  1
  S  S85  1  0.14982384  0.66757884  0.37334068  1
  S  S86  1  0.15529358  0.26451285  0.30048981  1
  S  S87  1  0.69158286  0.97615163  0.33101382  1
  S  S88  1  0.67446626  0.37325292  0.39840213  1
  S  S89  1  0.18556927  0.86691870  0.34818797  1
  S  S90  1  0.16387295  0.27970536  0.42589704  1
  S  S91  1  0.35306440  0.69690591  0.28809233  1
  S  S92  1  0.35003131  0.10482994  0.35843828  1
  S  S93  1  0.80832778  0.80578001  0.39101756  1
  S  S94  1  0.80149265  0.39968606  0.31760824  1
  S  S95  1  0.64898484  0.57307342  0.37507019  1
  S  S96  1  0.65613026  0.17198619  0.30365672  1
  S  S97  1  0.84892661  0.73974117  0.31877145  1
  S  S98  1  0.85883864  0.14439746  0.39483861  1
  S  S99  1  0.31402051  0.03142165  0.28706041  1
  S  S100  1  0.29160879  0.43760782  0.35818156  1
  S  S101  1  0.14280515  0.46745364  0.51562123  1
  S  S102  1  0.15357591  0.08259604  0.45126654  1
  S  S103  1  0.71420833  0.78809788  0.47286523  1
  S  S104  1  0.19033641  0.66727817  0.49214489  1
  S  S105  1  0.35318083  0.50392228  0.43022200  1
  S  S106  1  0.39581478  0.91765323  0.50360192  1
  S  S107  1  0.80255027  0.60756241  0.53508473  1
  S  S108  1  0.77766533  0.21554398  0.46654616  1
  S  S109  1  0.66900231  0.98095405  0.44409181  1
  S  S110  1  0.83569561  0.54593175  0.46288647  1
  S  S111  1  0.31738042  0.84119898  0.43249587  1
