# generated using pymatgen
data_Na3PS4
_symmetry_space_group_name_H-M   'P 1'
_cell_length_a   7.00642000
_cell_length_b   15.74106402
_cell_length_c   44.67844400
_cell_angle_alpha   90.00000000
_cell_angle_beta   90.00000000
_cell_angle_gamma   90.00322858
_symmetry_Int_Tables_number   1
_chemical_formula_structural   Na3PS4
_chemical_formula_sum   'Na36 P12 S48'
_cell_volume   4927.51882267
_cell_formula_units_Z   12
loop_
 _symmetry_equiv_pos_site_id
 _symmetry_equiv_pos_as_xyz
  1  'x, y, z'
loop_
 _atom_site_type_symbol
 _atom_site_label
 _atom_site_symmetry_multiplicity
 _atom_site_fract_x
 _atom_site_fract_y
 _atom_site_fract_z
 _atom_site_occupancy
  Na  Na0  1  0.50958872  0.42393127  0.12116437  1
  Na  Na1  1  0.53911941  0.88744861  0.05010585  1
  Na  Na2  1  0.51291797  0.93561738  0.12400850  1
  Na  Na3  1  0.98638500  0.32008533  0.07381144  1
  Na  Na4  1  0.01100618  0.92944360  0.13806072  1
  Na  Na5  1  0.49522616  0.69781390  0.09772086  1
  Na  Na6  1  0.00306788  0.65620643  0.10723134  1
  Na  Na7  1  0.01368656  0.04226394  0.04327757  1
  Na  Na8  1  0.97976127  0.14436920  0.11256906  1
  Na  Na9  1  0.49641652  0.63685563  0.26610857  1
  Na  Na10  1  0.49231202  0.03384490  0.19528984  1
  Na  Na11  1  0.50205003  0.53449812  0.19300327  1
  Na  Na12  1  0.48732667  0.13911357  0.26603810  1
  Na  Na13  1  0.01205023  0.54317280  0.20801219  1
  Na  Na14  1  0.98743318  0.15279993  0.27806730  1
  Na  Na15  1  0.47988337  0.25027630  0.16864348  1
  Na  Na16  1  0.49319312  0.85383306  0.24347427  1
  Na  Na17  1  0.99071153  0.86801491  0.25537288  1
  Na  Na18  1  0.98305008  0.26678342  0.18338206  1
  Na  Na19  1  0.99176411  0.75758785  0.18444123  1
  Na  Na20  1  0.99583778  0.36945289  0.25549095  1
  Na  Na21  1  0.48346794  0.86165639  0.40845941  1
  Na  Na22  1  0.49153039  0.24842367  0.33715827  1
  Na  Na23  1  0.48268285  0.74016897  0.33800344  1
  Na  Na24  1  0.50625001  0.35155378  0.41417826  1
  Na  Na25  1  0.97814135  0.75849691  0.35235775  1
  Na  Na26  1  0.99789883  0.30871177  0.42406506  1
  Na  Na27  1  0.51780510  0.46255669  0.31366892  1
  Na  Na28  1  0.52063032  0.07588469  0.38393111  1
  Na  Na29  1  0.01983946  0.07292788  0.39764415  1
  Na  Na30  1  0.00590572  0.47268432  0.32827942  1
  Na  Na31  1  0.99355324  0.97395389  0.32619340  1
  Na  Na32  1  0.01252513  0.58358754  0.39998133  1
  Na  Na33  1  0.51902521  0.96616878  0.47812786  1
  Na  Na34  1  0.48777884  0.68715812  0.44756934  1
  Na  Na35  1  0.04692455  0.11920099  0.47179953  1
  P  P36  1  0.00292025  0.44642790  0.13482565  1
  P  P37  1  0.02590804  0.83656175  0.06281556  1
  P  P38  1  0.47722952  0.14832581  0.09428961  1
  P  P39  1  0.99539618  0.65177847  0.27951150  1
  P  P40  1  0.99357583  0.04865230  0.20704485  1
  P  P41  1  0.49414967  0.35540792  0.24195906  1
  P  P42  1  0.49330855  0.75164475  0.17241696  1
  P  P43  1  0.98106499  0.85986164  0.42686736  1
  P  P44  1  0.99324320  0.25559587  0.34912808  1
  P  P45  1  0.50643162  0.56110178  0.38655811  1
  P  P46  1  0.49481813  0.95836703  0.31434118  1
  P  P47  1  0.53129711  0.17236638  0.45909097  1
  S  S48  1  0.15513523  0.33500165  0.12871132  1
  S  S49  1  0.18877879  0.73028471  0.05575003  1
  S  S50  1  0.66104290  0.05492357  0.07889922  1
  S  S51  1  0.19428047  0.93290907  0.08054824  1
  S  S52  1  0.34887364  0.10545501  0.13351362  1
  S  S53  1  0.81255533  0.81199289  0.09501463  1
  S  S54  1  0.64557708  0.25238675  0.10485966  1
  S  S55  1  0.86566696  0.48028596  0.09561167  1
  S  S56  1  0.90338314  0.87883489  0.02413787  1
  S  S57  1  0.26565136  0.17842260  0.06358251  1
  S  S58  1  0.29380403  0.78380563  0.14036234  1
  S  S59  1  0.15105521  0.54360269  0.27025480  1
  S  S60  1  0.14799888  0.93971891  0.19870143  1
  S  S61  1  0.67359559  0.65885339  0.15627829  1
  S  S62  1  0.67616895  0.25934275  0.22846369  1
  S  S63  1  0.19242404  0.54163890  0.14597087  1
  S  S64  1  0.17959869  0.14521845  0.21882384  1
  S  S65  1  0.34926807  0.70729641  0.20969015  1
  S  S66  1  0.34884398  0.31615689  0.27977177  1
  S  S67  1  0.80634935  0.42533653  0.16859249  1
  S  S68  1  0.80302050  0.02541539  0.24139556  1
  S  S69  1  0.65110078  0.46349267  0.25100790  1
  S  S70  1  0.65244463  0.85832381  0.18272782  1
  S  S71  1  0.84869582  0.69118450  0.24183917  1
  S  S72  1  0.84184250  0.08498794  0.16936177  1
  S  S73  1  0.30014900  0.38136444  0.20834212  1
  S  S74  1  0.30457799  0.98100914  0.27990303  1
  S  S75  1  0.14817039  0.75564106  0.41596233  1
  S  S76  1  0.15163533  0.14890577  0.33860810  1
  S  S77  1  0.68171382  0.86177857  0.30286639  1
  S  S78  1  0.69759202  0.46626406  0.37573926  1
  S  S79  1  0.17822100  0.74772670  0.29289025  1
  S  S80  1  0.17433690  0.34805754  0.36528518  1
  S  S81  1  0.34259154  0.92266782  0.35202526  1
  S  S82  1  0.36886919  0.52715253  0.42573643  1
  S  S83  1  0.80234810  0.62580021  0.31324675  1
  S  S84  1  0.79436208  0.22340331  0.38125488  1
  S  S85  1  0.65704160  0.67302391  0.39269399  1
  S  S86  1  0.64882859  0.06756441  0.32256655  1
  S  S87  1  0.85150599  0.90390658  0.38786412  1
  S  S88  1  0.84867554  0.30030352  0.31193590  1
  S  S89  1  0.31045313  0.58113963  0.35266062  1
  S  S90  1  0.31816905  0.19542964  0.42670446  1
  S  S91  1  0.70243228  0.07647830  0.44166100  1
  S  S92  1  0.16682159  0.95264457  0.44228161  1
  S  S93  1  0.40887198  0.12985160  0.49776561  1
  S  S94  1  0.77028008  0.82956147  0.45762912  1
  S  S95  1  0.69076104  0.27960120  0.46602338  1
