# generated using pymatgen
data_Na3PS4
_symmetry_space_group_name_H-M   'P 1'
_cell_length_a   7.00642000
_cell_length_b   10.02515603
_cell_length_c   40.08694400
_cell_angle_alpha   90.00000000
_cell_angle_beta   90.00000000
_cell_angle_gamma   90.00408065
_symmetry_Int_Tables_number   1
_chemical_formula_structural   Na3PS4
_chemical_formula_sum   'Na24 P8 S32'
_cell_volume   2815.72512605
_cell_formula_units_Z   8
loop_
 _symmetry_equiv_pos_site_id
 _symmetry_equiv_pos_as_xyz
  1  'x, y, z'
loop_
 _atom_site_type_symbol
 _atom_site_label
 _atom_site_symmetry_multiplicity
 _atom_site_fract_x
 _atom_site_fract_y
 _atom_site_fract_z
 _atom_site_occupancy
  Na  Na0  1  0.51550734  0.16122728  0.06161663  1
  Na  Na1  1  0.00074554  0.92714506  0.02711017  1
  Na  Na2  1  0.01198128  0.47519214  0.02946356  1
  Na  Na3  1  0.98262118  0.72723414  0.08953375  1
  Na  Na4  1  0.49454951  0.67344754  0.18779698  1
  Na  Na5  1  0.52057330  0.42122377  0.12438714  1
  Na  Na6  1  0.02381585  0.43529975  0.14334917  1
  Na  Na7  1  0.49671316  0.96640169  0.13269795  1
  Na  Na8  1  0.99540998  0.00052112  0.15077735  1
  Na  Na9  1  0.99806172  0.24820001  0.21455358  1
  Na  Na10  1  0.49805579  0.18692086  0.31403277  1
  Na  Na11  1  0.49729433  0.92443382  0.25242124  1
  Na  Na12  1  0.99883215  0.95481278  0.26765612  1
  Na  Na13  1  0.49906277  0.48043025  0.26096599  1
  Na  Na14  1  0.99752133  0.51019080  0.27632986  1
  Na  Na15  1  0.99420798  0.76079559  0.34080023  1
  Na  Na16  1  0.48132925  0.70732974  0.43901468  1
  Na  Na17  1  0.49580727  0.43368130  0.37788821  1
  Na  Na18  1  0.99757876  0.46809083  0.39572890  1
  Na  Na19  1  0.52027181  0.99966208  0.38522515  1
  Na  Na20  1  0.01790295  0.01314937  0.40412448  1
  Na  Na21  1  0.01344467  0.27282706  0.46696526  1
  Na  Na22  1  0.50894236  0.95863957  0.49908173  1
  Na  Na23  1  0.49833423  0.50736929  0.50129471  1
  P  P24  1  0.01130594  0.19570952  0.07737421  1
  P  P25  1  0.48442737  0.70475412  0.06838434  1
  P  P26  1  0.99829003  0.70635921  0.20204923  1
  P  P27  1  0.50040579  0.21336717  0.20046831  1
  P  P28  1  0.00056159  0.22103191  0.32805538  1
  P  P29  1  0.49811863  0.72772943  0.32682186  1
  P  P30  1  0.98191394  0.72994923  0.46003988  1
  P  P31  1  0.50898629  0.23852865  0.45124915  1
  S  S32  1  0.16256887  0.02138877  0.08467405  1
  S  S33  1  0.66470156  0.54394470  0.06368143  1
  S  S34  1  0.19921598  0.35295755  0.08003418  1
  S  S35  1  0.35733705  0.69631988  0.11537193  1
  S  S36  1  0.80371717  0.21047955  0.11397501  1
  S  S37  1  0.64868414  0.87633945  0.06554216  1
  S  S38  1  0.88845464  0.19659951  0.03037715  1
  S  S39  1  0.26847742  0.70385357  0.03262640  1
  S  S40  1  0.15628686  0.53321572  0.20691331  1
  S  S41  1  0.68227607  0.05123577  0.19805534  1
  S  S42  1  0.18138973  0.86760276  0.20345807  1
  S  S43  1  0.35483545  0.20715536  0.24538264  1
  S  S44  1  0.80332322  0.71784710  0.24064563  1
  S  S45  1  0.65656408  0.38756723  0.19680861  1
  S  S46  1  0.85188222  0.70617121  0.15716981  1
  S  S47  1  0.30741704  0.20626375  0.16166636  1
  S  S48  1  0.15634244  0.04660370  0.33161996  1
  S  S49  1  0.68196022  0.56686272  0.32531196  1
  S  S50  1  0.18316656  0.38272945  0.33041447  1
  S  S51  1  0.35093063  0.72690544  0.37158228  1
  S  S52  1  0.80820739  0.22824786  0.36694774  1
  S  S53  1  0.65548852  0.90118962  0.32205556  1
  S  S54  1  0.85444307  0.22755210  0.28320797  1
  S  S55  1  0.30339813  0.71655017  0.28814600  1
  S  S56  1  0.14668317  0.55855377  0.46278191  1
  S  S57  1  0.69540273  0.08047783  0.44834682  1
  S  S58  1  0.16139158  0.89111256  0.46475682  1
  S  S59  1  0.38666463  0.23743425  0.49830125  1
  S  S60  1  0.76583519  0.73057229  0.49582682  1
  S  S61  1  0.66149426  0.41231012  0.44400811  1
  S  S62  1  0.85494083  0.73810179  0.41302117  1
  S  S63  1  0.30093606  0.22488133  0.41470309  1
