# generated using pymatgen
data_Na3PS4
_symmetry_space_group_name_H-M   'P 1'
_cell_length_a   7.16981500
_cell_length_b   15.66667701
_cell_length_c   43.86756100
_cell_angle_alpha   90.00000000
_cell_angle_beta   90.00000000
_cell_angle_gamma   90.00193465
_symmetry_Int_Tables_number   1
_chemical_formula_structural   Na3PS4
_chemical_formula_sum   'Na39 P13 S52'
_cell_volume   4927.51923438
_cell_formula_units_Z   13
loop_
 _symmetry_equiv_pos_site_id
 _symmetry_equiv_pos_as_xyz
  1  'x, y, z'
loop_
 _atom_site_type_symbol
 _atom_site_label
 _atom_site_symmetry_multiplicity
 _atom_site_fract_x
 _atom_site_fract_y
 _atom_site_fract_z
 _atom_site_occupancy
  Na  Na0  1  0.54756578  0.10330032  0.10530958  1
  Na  Na1  1  0.07910177  0.09495234  0.10938851  1
  Na  Na2  1  0.13822864  0.70743872  0.03779170  1
  Na  Na3  1  0.97843128  0.91367937  0.06435036  1
  Na  Na4  1  0.98647678  0.32512273  0.13737508  1
  Na  Na5  1  0.49031026  0.65319151  0.09894456  1
  Na  Na6  1  0.54966211  0.43630962  0.07987418  1
  Na  Na7  1  0.41075559  0.81675818  0.14109343  1
  Na  Na8  1  0.91211741  0.80676087  0.13456155  1
  Na  Na9  1  0.57917417  0.90071049  0.24951280  1
  Na  Na10  1  0.59455858  0.50759830  0.17015261  1
  Na  Na11  1  0.07692976  0.90228369  0.24837403  1
  Na  Na12  1  0.09656626  0.50923497  0.17398296  1
  Na  Na13  1  0.99848163  0.70756248  0.20802963  1
  Na  Na14  1  0.99160521  0.10559954  0.28199355  1
  Na  Na15  1  0.49559998  0.00062829  0.18009985  1
  Na  Na16  1  0.49754060  0.40855229  0.24092995  1
  Na  Na17  1  0.40521321  0.20309003  0.21038779  1
  Na  Na18  1  0.41651097  0.60451337  0.28206279  1
  Na  Na19  1  0.91030283  0.20485052  0.20973610  1
  Na  Na20  1  0.91773175  0.60475387  0.28206109  1
  Na  Na21  1  0.59490439  0.70271649  0.39413004  1
  Na  Na22  1  0.57969421  0.30921733  0.31485052  1
  Na  Na23  1  0.09714416  0.70096550  0.39021202  1
  Na  Na24  1  0.07728071  0.30794279  0.31600759  1
  Na  Na25  1  0.99884977  0.50304225  0.35615693  1
  Na  Na26  1  0.98704020  0.88534713  0.42647732  1
  Na  Na27  1  0.49762718  0.79975529  0.32326774  1
  Na  Na28  1  0.49576955  0.20922860  0.38410904  1
  Na  Na29  1  0.40555810  0.00671648  0.35365863  1
  Na  Na30  1  0.41074700  0.39325673  0.42315769  1
  Na  Na31  1  0.91063799  0.00521544  0.35427895  1
  Na  Na32  1  0.91258380  0.40372845  0.42965142  1
  Na  Na33  1  0.54734383  0.10749855  0.45863815  1
  Na  Na34  1  0.13741842  0.50324617  0.52637187  1
  Na  Na35  1  0.07811192  0.11449934  0.45482682  1
  Na  Na36  1  0.97896781  0.29648793  0.49976084  1
  Na  Na37  1  0.49035492  0.55715282  0.46530744  1
  Na  Na38  1  0.55085459  0.77466323  0.48428078  1
  P  P39  1  0.48775452  0.91622139  0.06676933  1
  P  P40  1  0.49393826  0.30135903  0.13885850  1
  P  P41  1  0.01787446  0.60157380  0.09999937  1
  P  P42  1  0.50160298  0.70449128  0.20979462  1
  P  P43  1  0.48975516  0.10519763  0.28206208  1
  P  P44  1  0.99149066  0.00093425  0.17773554  1
  P  P45  1  0.99726070  0.40624008  0.24429502  1
  P  P46  1  0.50228363  0.50558579  0.35446023  1
  P  P47  1  0.49446931  0.90934709  0.42522758  1
  P  P48  1  0.99760549  0.80297328  0.31991402  1
  P  P49  1  0.99169930  0.20926011  0.38655825  1
  P  P50  1  0.48812604  0.29431391  0.49735008  1
  P  P51  1  0.01832418  0.60893275  0.46407025  1
  S  S52  1  0.66420352  0.27501061  0.10182175  1
  S  S53  1  0.64692761  0.89384655  0.02998244  1
  S  S54  1  0.16183486  0.95638035  0.14330251  1
  S  S55  1  0.20821901  0.55813087  0.06765688  1
  S  S56  1  0.31094016  0.81428638  0.07780620  1
  S  S57  1  0.85193783  0.69374719  0.08002498  1
  S  S58  1  0.31659141  0.02260068  0.06092146  1
  S  S59  1  0.33956232  0.40930727  0.13007818  1
  S  S60  1  0.84994029  0.50363977  0.11570031  1
  S  S61  1  0.65856955  0.93477511  0.10519320  1
  S  S62  1  0.16049897  0.65281928  0.13683040  1
  S  S63  1  0.65569604  0.08077766  0.24450124  1
  S  S64  1  0.66077523  0.68586452  0.17083309  1
  S  S65  1  0.16649071  0.75920604  0.28500803  1
  S  S66  1  0.15705785  0.35847363  0.20897111  1
  S  S67  1  0.31348641  0.20045863  0.14650003  1
  S  S68  1  0.33820680  0.59819287  0.21746103  1
  S  S69  1  0.82397947  0.09688838  0.16044669  1
  S  S70  1  0.83676253  0.50580332  0.22809948  1
  S  S71  1  0.33467833  0.81072417  0.20390001  1
  S  S72  1  0.32711111  0.21123555  0.27338095  1
  S  S73  1  0.83212967  0.90073528  0.19338200  1
  S  S74  1  0.82824821  0.30985815  0.26090104  1
  S  S75  1  0.67038145  0.72426286  0.24728143  1
  S  S76  1  0.65487311  0.32341708  0.17711962  1
  S  S77  1  0.15271565  0.05002444  0.21263080  1
  S  S78  1  0.16669984  0.45009640  0.27911897  1
  S  S79  1  0.65488054  0.88697371  0.38693006  1
  S  S80  1  0.67069094  0.48567937  0.31692443  1
  S  S81  1  0.16136525  0.55756747  0.42729394  1
  S  S82  1  0.15279643  0.16034439  0.35161610  1
  S  S83  1  0.32626506  0.99933266  0.29074711  1
  S  S84  1  0.33492717  0.39951252  0.36035211  1
  S  S85  1  0.82741797  0.89903406  0.30339555  1
  S  S86  1  0.83253299  0.30960877  0.37097621  1
  S  S87  1  0.33892475  0.61188300  0.34672381  1
  S  S88  1  0.31383727  0.01012823  0.41759556  1
  S  S89  1  0.83807246  0.70324658  0.33626132  1
  S  S90  1  0.82411470  0.11310284  0.40371989  1
  S  S91  1  0.66140786  0.52441730  0.39337993  1
  S  S92  1  0.65541374  0.12912876  0.31970070  1
  S  S93  1  0.15806969  0.85123749  0.35507754  1
  S  S94  1  0.16180488  0.25335542  0.42109244  1
  S  S95  1  0.65856606  0.27612862  0.45887577  1
  S  S96  1  0.34006761  0.80151112  0.43416525  1
  S  S97  1  0.31730462  0.18782233  0.50311378  1
  S  S98  1  0.85085544  0.70702748  0.44832782  1
  S  S99  1  0.31113923  0.39630950  0.48653622  1
  S  S100  1  0.85202201  0.51684724  0.48399362  1
  S  S101  1  0.64747310  0.31651799  0.53413943  1
  S  S102  1  0.66536642  0.93593177  0.46218763  1
  S  S103  1  0.20821405  0.65239100  0.49645920  1
