# generated using pymatgen
data_Na3PS4
_symmetry_space_group_name_H-M   'P 1'
_cell_length_a   7.00642000
_cell_length_b   7.00642000
_cell_length_c   50.18870300
_cell_angle_alpha   90.00000000
_cell_angle_beta   90.00000000
_cell_angle_gamma   89.99858527
_symmetry_Int_Tables_number   1
_chemical_formula_structural   Na3PS4
_chemical_formula_sum   'Na21 P7 S28'
_cell_volume   2463.75947622
_cell_formula_units_Z   7
loop_
 _symmetry_equiv_pos_site_id
 _symmetry_equiv_pos_as_xyz
  1  'x, y, z'
loop_
 _atom_site_type_symbol
 _atom_site_label
 _atom_site_symmetry_multiplicity
 _atom_site_fract_x
 _atom_site_fract_y
 _atom_site_fract_z
 _atom_site_occupancy
  Na  Na0  1  0.47140228  0.49210765  0.04119544  1
  Na  Na1  1  0.49390469  0.48634312  0.11239705  1
  Na  Na2  1  0.51345478  0.98282258  0.12373241  1
  Na  Na3  1  0.95423281  0.52473075  0.05940347  1
  Na  Na4  1  0.99471357  0.01042231  0.06046551  1
  Na  Na5  1  0.00787183  0.99882895  0.13660768  1
  Na  Na6  1  0.49679447  0.50096306  0.18433452  1
  Na  Na7  1  0.50204987  0.50549219  0.25567078  1
  Na  Na8  1  0.50580051  0.00510319  0.26781847  1
  Na  Na9  1  0.99178234  0.51238816  0.19669937  1
  Na  Na10  1  0.00230255  0.00951205  0.20824329  1
  Na  Na11  1  0.00305982  0.00454520  0.28002927  1
  Na  Na12  1  0.49264401  0.50151089  0.32765887  1
  Na  Na13  1  0.49757482  0.49343601  0.39986402  1
  Na  Na14  1  0.53894726  0.99396205  0.41186594  1
  Na  Na15  1  0.98753404  0.49291341  0.33897664  1
  Na  Na16  1  0.00563233  0.99508306  0.35146196  1
  Na  Na17  1  0.02743105  0.00266382  0.42339077  1
  Na  Na18  1  0.46325001  0.48654631  0.47771258  1
  Na  Na19  1  0.92527820  0.50713944  0.47660226  1
  Na  Na20  1  0.02398020  0.99906740  0.49475865  1
  P  P21  1  0.49449040  0.99537952  0.05047558  1
  P  P22  1  0.99634507  0.49924149  0.12582656  1
  P  P23  1  0.50285465  0.00281392  0.19609275  1
  P  P24  1  0.00178579  0.50528184  0.26780861  1
  P  P25  1  0.50473181  0.00061217  0.33951895  1
  P  P26  1  0.99679332  0.50500153  0.41000621  1
  P  P27  1  0.52184341  0.99136753  0.48582867  1
  S  S28  1  0.68063985  0.15678764  0.02828781  1
  S  S29  1  0.14867289  0.68676926  0.10204475  1
  S  S30  1  0.34396297  0.17670683  0.07605427  1
  S  S31  1  0.65337630  0.80064098  0.07342859  1
  S  S32  1  0.30134914  0.84595687  0.02790210  1
  S  S33  1  0.84779862  0.30460515  0.10252301  1
  S  S34  1  0.69054290  0.15253542  0.17229745  1
  S  S35  1  0.15219843  0.69469930  0.24427295  1
  S  S36  1  0.35382904  0.19192265  0.21989967  1
  S  S37  1  0.18374801  0.35143425  0.14979563  1
  S  S38  1  0.65426095  0.81342941  0.21962935  1
  S  S39  1  0.80279731  0.65378029  0.14815785  1
  S  S40  1  0.31227044  0.85171942  0.17270633  1
  S  S41  1  0.85145395  0.31458184  0.24436935  1
  S  S42  1  0.69307380  0.15622461  0.31632663  1
  S  S43  1  0.15648363  0.68259966  0.38610645  1
  S  S44  1  0.35426237  0.18435342  0.36401088  1
  S  S45  1  0.19138930  0.35423522  0.29135153  1
  S  S46  1  0.65495775  0.80644007  0.36226388  1
  S  S47  1  0.81137239  0.65490154  0.29129129  1
  S  S48  1  0.31463264  0.85516900  0.31546480  1
  S  S49  1  0.85133052  0.30404893  0.38772958  1
  S  S50  1  0.70648735  0.16014077  0.46285880  1
  S  S51  1  0.37144007  0.16458431  0.51089196  1
  S  S52  1  0.17708354  0.36389697  0.43623402  1
  S  S53  1  0.68130705  0.78953950  0.50612176  1
  S  S54  1  0.79990234  0.66679257  0.43083619  1
  S  S55  1  0.33322054  0.84834854  0.46050182  1
