# generated using pymatgen
data_Na3PS4
_symmetry_space_group_name_H-M   'P 1'
_cell_length_a   7.00642000
_cell_length_b   7.00642000
_cell_length_c   50.18870300
_cell_angle_alpha   90.00000000
_cell_angle_beta   90.00000000
_cell_angle_gamma   89.99858527
_symmetry_Int_Tables_number   1
_chemical_formula_structural   Na3PS4
_chemical_formula_sum   'Na21 P7 S28'
_cell_volume   2463.75947622
_cell_formula_units_Z   7
loop_
 _symmetry_equiv_pos_site_id
 _symmetry_equiv_pos_as_xyz
  1  'x, y, z'
loop_
 _atom_site_type_symbol
 _atom_site_label
 _atom_site_symmetry_multiplicity
 _atom_site_fract_x
 _atom_site_fract_y
 _atom_site_fract_z
 _atom_site_occupancy
  Na  Na0  1  0.50567813  0.48418383  0.05203781  1
  Na  Na1  1  0.50833972  0.49088425  0.12345195  1
  Na  Na2  1  0.48029665  0.98270713  0.13591826  1
  Na  Na3  1  0.01293219  0.58156069  0.07091982  1
  Na  Na4  1  0.99148349  0.04433841  0.06987966  1
  Na  Na5  1  0.50213275  0.50356051  0.19622282  1
  Na  Na6  1  0.49392280  0.50657085  0.26785925  1
  Na  Na7  1  0.49223252  0.00896057  0.27992693  1
  Na  Na8  1  0.00770960  0.50494856  0.20866523  1
  Na  Na9  1  0.99337672  0.00546894  0.21999867  1
  Na  Na10  1  0.98662723  0.00936254  0.14793327  1
  Na  Na11  1  0.47557241  0.49599330  0.33993241  1
  Na  Na12  1  0.49539694  0.49378006  0.41184901  1
  Na  Na13  1  0.55144664  0.99613847  0.42379056  1
  Na  Na14  1  0.96792993  0.48994786  0.35112225  1
  Na  Na15  1  0.00010847  0.99211844  0.36324430  1
  Na  Na16  1  0.98945324  0.00193087  0.29183838  1
  Na  Na17  1  0.47185374  0.48304615  0.48912559  1
  Na  Na18  1  0.93281290  0.50580671  0.48880390  1
  Na  Na19  1  0.03120173  0.99683195  0.50674453  1
  Na  Na20  1  0.03690524  0.99504490  0.43524707  1
  P  P21  1  0.49682133  0.98678622  0.06158029  1
  P  P22  1  0.00996016  0.50980762  0.13748572  1
  P  P23  1  0.49243937  0.00297954  0.20829801  1
  P  P24  1  0.99192766  0.50300373  0.27990762  1
  P  P25  1  0.49803460  0.99533581  0.35161757  1
  P  P26  1  0.99509438  0.49884054  0.42212169  1
  P  P27  1  0.52949750  0.98815789  0.49771301  1
  S  S28  1  0.67128263  0.13496812  0.03639806  1
  S  S29  1  0.16799784  0.71048137  0.11673969  1
  S  S30  1  0.35324670  0.17857027  0.08643984  1
  S  S31  1  0.66437500  0.80353830  0.08491388  1
  S  S32  1  0.29521687  0.82637880  0.04136648  1
  S  S33  1  0.86675466  0.33165934  0.11119815  1
  S  S34  1  0.67899740  0.15028486  0.18378207  1
  S  S35  1  0.14408203  0.69387643  0.25676398  1
  S  S36  1  0.34433671  0.19609611  0.23164932  1
  S  S37  1  0.19125479  0.34760326  0.16050384  1
  S  S38  1  0.64539774  0.81706088  0.23206723  1
  S  S39  1  0.81134860  0.65153269  0.16056839  1
  S  S40  1  0.30064856  0.85010734  0.18558464  1
  S  S41  1  0.84312075  0.31448374  0.25596598  1
  S  S42  1  0.68469796  0.15426285  0.32855143  1
  S  S43  1  0.15116105  0.67521422  0.39764875  1
  S  S44  1  0.35001368  0.17603036  0.37671555  1
  S  S45  1  0.17962192  0.34995924  0.30354084  1
  S  S46  1  0.65064852  0.79907595  0.37375978  1
  S  S47  1  0.80042977  0.65126625  0.30333272  1
  S  S48  1  0.30676857  0.85323106  0.32740246  1
  S  S49  1  0.84744199  0.29668009  0.40027403  1
  S  S50  1  0.71570341  0.15633377  0.47497259  1
  S  S51  1  0.37852667  0.16174105  0.52266566  1
  S  S52  1  0.17874155  0.35992720  0.44814380  1
  S  S53  1  0.68776555  0.78587072  0.51809684  1
  S  S54  1  0.80020216  0.66182776  0.44306861  1
  S  S55  1  0.34100188  0.84560857  0.47223083  1
