# generated using pymatgen
data_Na3PS4
_symmetry_space_group_name_H-M   'P 1'
_cell_length_a   7.00642000
_cell_length_b   15.96026505
_cell_length_c   44.06482300
_cell_angle_alpha   90.00000000
_cell_angle_beta   90.00000000
_cell_angle_gamma   90.00450892
_symmetry_Int_Tables_number   1
_chemical_formula_structural   Na3PS4
_chemical_formula_sum   'Na36 P12 S48'
_cell_volume   4927.51886355
_cell_formula_units_Z   12
loop_
 _symmetry_equiv_pos_site_id
 _symmetry_equiv_pos_as_xyz
  1  'x, y, z'
loop_
 _atom_site_type_symbol
 _atom_site_label
 _atom_site_symmetry_multiplicity
 _atom_site_fract_x
 _atom_site_fract_y
 _atom_site_fract_z
 _atom_site_occupancy
  Na  Na0  1  0.53491828  0.12508638  0.04830109  1
  Na  Na1  1  0.50702912  0.57298503  0.11797772  1
  Na  Na2  1  0.49364411  0.31208834  0.09228751  1
  Na  Na3  1  0.00301843  0.36502572  0.09870900  1
  Na  Na4  1  0.01303666  0.97411903  0.03868443  1
  Na  Na5  1  0.49078111  0.07226981  0.12608235  1
  Na  Na6  1  0.98985853  0.10330739  0.13724279  1
  Na  Na7  1  0.99444461  0.69901426  0.06963848  1
  Na  Na8  1  0.98186813  0.88547239  0.10709481  1
  Na  Na9  1  0.49265194  0.94585861  0.19526767  1
  Na  Na10  1  0.49843893  0.35565085  0.26535866  1
  Na  Na11  1  0.49582492  0.14437576  0.23300530  1
  Na  Na12  1  0.50454288  0.74799395  0.16023239  1
  Na  Na13  1  0.99771622  0.17194326  0.24312186  1
  Na  Na14  1  0.99988569  0.76061712  0.17550511  1
  Na  Na15  1  0.49655130  0.88356414  0.27155443  1
  Na  Na16  1  0.50071893  0.48341705  0.19465666  1
  Na  Na17  1  0.99492763  0.91132324  0.28142912  1
  Na  Na18  1  0.00389154  0.50690461  0.20980781  1
  Na  Na19  1  0.99885019  0.70033686  0.24925061  1
  Na  Na20  1  0.99890687  0.30309947  0.17561902  1
  Na  Na21  1  0.49954631  0.75302116  0.33912228  1
  Na  Na22  1  0.48088339  0.17133562  0.40726793  1
  Na  Na23  1  0.49034424  0.95276153  0.37717666  1
  Na  Na24  1  0.50288687  0.54939229  0.30484044  1
  Na  Na25  1  0.99116659  0.98398503  0.38800358  1
  Na  Na26  1  0.99890789  0.57224988  0.31996432  1
  Na  Na27  1  0.50441965  0.69054977  0.41591150  1
  Na  Na28  1  0.49904877  0.29510956  0.33907144  1
  Na  Na29  1  0.99514290  0.74341851  0.42216405  1
  Na  Na30  1  0.00339367  0.30870365  0.35429692  1
  Na  Na31  1  0.00610954  0.48240514  0.39684947  1
  Na  Na32  1  0.99254840  0.11044820  0.31919670  1
  Na  Na33  1  0.49347151  0.35704068  0.44502425  1
  Na  Na34  1  0.51320357  0.08174259  0.47556723  1
  Na  Na35  1  0.03531135  0.93087107  0.46583928  1
  P  P36  1  0.02491343  0.17639163  0.05898748  1
  P  P37  1  0.99892546  0.56891512  0.13103498  1
  P  P38  1  0.48080030  0.86541088  0.09048256  1
  P  P39  1  0.99639679  0.97138136  0.20422489  1
  P  P40  1  0.00003684  0.38025949  0.27659424  1
  P  P41  1  0.49941526  0.27117454  0.16798073  1
  P  P42  1  0.50054823  0.67554572  0.23803612  1
  P  P43  1  0.00031258  0.78433467  0.34641459  1
  P  P44  1  0.97974363  0.19087866  0.42379715  1
  P  P45  1  0.49639173  0.08423560  0.31022779  1
  P  P46  1  0.49764306  0.48704672  0.38350254  1
  P  P47  1  0.52583306  0.87946889  0.45524058  1
  S  S48  1  0.18372596  0.08051174  0.07872911  1
  S  S49  1  0.65368672  0.76286383  0.09861756  1
  S  S50  1  0.19837444  0.27736648  0.04999167  1
  S  S51  1  0.17038733  0.67235798  0.12376550  1
  S  S52  1  0.35227591  0.89947497  0.13128138  1
  S  S53  1  0.81453780  0.20852798  0.09082162  1
  S  S54  1  0.65634623  0.96270429  0.07651342  1
  S  S55  1  0.89940701  0.13337649  0.02022075  1
  S  S56  1  0.86697496  0.53606629  0.09070719  1
  S  S57  1  0.29691191  0.23276677  0.13693757  1
  S  S58  1  0.26742977  0.83930607  0.05914059  1
  S  S59  1  0.15551875  0.87192064  0.22056125  1
  S  S60  1  0.16979321  0.47108917  0.14524888  1
  S  S61  1  0.68300732  0.17325148  0.17721916  1
  S  S62  1  0.67853198  0.57564952  0.24694640  1
  S  S63  1  0.17683507  0.06915867  0.19365335  1
  S  S64  1  0.17766887  0.48030814  0.26772582  1
  S  S65  1  0.35849407  0.70859787  0.27733615  1
  S  S66  1  0.35662075  0.30711874  0.20689772  1
  S  S67  1  0.80209686  0.00832363  0.23700110  1
  S  S68  1  0.79900840  0.60005234  0.16387794  1
  S  S69  1  0.65895990  0.77601929  0.22246436  1
  S  S70  1  0.65217777  0.37045090  0.15025353  1
  S  S71  1  0.84738661  0.93590740  0.16571778  1
  S  S72  1  0.85847644  0.34695059  0.23726176  1
  S  S73  1  0.30231124  0.04717623  0.27744430  1
  S  S74  1  0.30381147  0.64258721  0.20493696  1
  S  S75  1  0.15251559  0.68492364  0.36414811  1
  S  S76  1  0.15897011  0.27994063  0.29225940  1
  S  S77  1  0.67734504  0.98658865  0.32082472  1
  S  S78  1  0.66853501  0.38347177  0.39089168  1
  S  S79  1  0.18410982  0.88210708  0.33693747  1
  S  S80  1  0.15244465  0.29363098  0.41588392  1
  S  S81  1  0.36603501  0.52028260  0.42385501  1
  S  S82  1  0.34688504  0.11928550  0.34877534  1
  S  S83  1  0.79912980  0.82322841  0.37758839  1
  S  S84  1  0.80222999  0.41288957  0.30959564  1
  S  S85  1  0.66924265  0.58459940  0.36924614  1
  S  S86  1  0.65490922  0.18389667  0.29393428  1
  S  S87  1  0.85618103  0.74832081  0.30762594  1
  S  S88  1  0.85131819  0.15711466  0.38297088  1
  S  S89  1  0.31595266  0.84699120  0.42341513  1
  S  S90  1  0.29798978  0.45586078  0.35064915  1
  S  S91  1  0.15534324  0.09347581  0.43767667  1
  S  S92  1  0.69935291  0.77856728  0.46436384  1
  S  S93  1  0.39973137  0.92253059  0.49395055  1
  S  S94  1  0.76665073  0.21678173  0.45522768  1
  S  S95  1  0.68440440  0.97550529  0.43556176  1
