# generated using pymatgen
data_Na3PS4
_symmetry_space_group_name_H-M   'P 1'
_cell_length_a   7.00642000
_cell_length_b   10.02515603
_cell_length_c   40.08694400
_cell_angle_alpha   90.00000000
_cell_angle_beta   90.00000000
_cell_angle_gamma   90.00408065
_symmetry_Int_Tables_number   1
_chemical_formula_structural   Na3PS4
_chemical_formula_sum   'Na24 P8 S32'
_cell_volume   2815.72512605
_cell_formula_units_Z   8
loop_
 _symmetry_equiv_pos_site_id
 _symmetry_equiv_pos_as_xyz
  1  'x, y, z'
loop_
 _atom_site_type_symbol
 _atom_site_label
 _atom_site_symmetry_multiplicity
 _atom_site_fract_x
 _atom_site_fract_y
 _atom_site_fract_z
 _atom_site_occupancy
  Na  Na0  1  0.51372620  0.07073928  0.08480271  1
  Na  Na1  1  0.99893175  0.83568641  0.05050780  1
  Na  Na2  1  0.00923756  0.38413264  0.05275795  1
  Na  Na3  1  0.98191033  0.63520467  0.11296112  1
  Na  Na4  1  0.49519540  0.58256671  0.21122225  1
  Na  Na5  1  0.51818181  0.33017680  0.14756160  1
  Na  Na6  1  0.02068655  0.34387085  0.16683999  1
  Na  Na7  1  0.49637396  0.87573224  0.15603840  1
  Na  Na8  1  0.99527138  0.90957113  0.17398308  1
  Na  Na9  1  0.99811976  0.15703869  0.23786456  1
  Na  Na10  1  0.49833916  0.09666463  0.33724797  1
  Na  Na11  1  0.49883481  0.83383538  0.27580843  1
  Na  Na12  1  0.00038746  0.86362145  0.29090461  1
  Na  Na13  1  0.50060558  0.38984459  0.28409087  1
  Na  Na14  1  0.99868403  0.41899631  0.29947757  1
  Na  Na15  1  0.99481103  0.66923915  0.36393881  1
  Na  Na16  1  0.48180648  0.61668184  0.46224630  1
  Na  Na17  1  0.49546268  0.34265144  0.40139437  1
  Na  Na18  1  0.99683754  0.37578512  0.41931907  1
  Na  Na19  1  0.51962742  0.90891267  0.40837069  1
  Na  Na20  1  0.01751771  0.92137770  0.42724991  1
  Na  Na21  1  0.01412099  0.18035216  0.49047919  1
  Na  Na22  1  0.50877516  0.86712226  0.52236037  1
  Na  Na23  1  0.49929486  0.41624171  0.52471005  1
  P  P24  1  0.00948322  0.10439457  0.10058390  1
  P  P25  1  0.48350313  0.61374882  0.09180226  1
  P  P26  1  0.99941841  0.61620460  0.22532454  1
  P  P27  1  0.50029172  0.12331203  0.22368945  1
  P  P28  1  0.00073275  0.12944123  0.35135018  1
  P  P29  1  0.49908868  0.63622605  0.35008583  1
  P  P30  1  0.98287369  0.63893178  0.48333755  1
  P  P31  1  0.50976209  0.14711293  0.47463670  1
  S  S32  1  0.16215364  0.93064367  0.10775135  1
  S  S33  1  0.66372046  0.45276949  0.08719757  1
  S  S34  1  0.19616067  0.26235505  0.10341942  1
  S  S35  1  0.64795637  0.78527959  0.08906565  1
  S  S36  1  0.88672084  0.10554191  0.05357224  1
  S  S37  1  0.26788242  0.61236762  0.05601678  1
  S  S38  1  0.15676351  0.44273661  0.23004967  1
  S  S39  1  0.68198907  0.96109260  0.22132956  1
  S  S40  1  0.18266614  0.77738081  0.22673759  1
  S  S41  1  0.35654163  0.60525172  0.13881521  1
  S  S42  1  0.80204969  0.11811801  0.13723056  1
  S  S43  1  0.65690805  0.29739534  0.21991721  1
  S  S44  1  0.85211647  0.61668080  0.18055953  1
  S  S45  1  0.30688287  0.11610122  0.18492694  1
  S  S46  1  0.15716379  0.95532797  0.35493375  1
  S  S47  1  0.68231698  0.47507850  0.34863719  1
  S  S48  1  0.18259708  0.29148209  0.35377100  1
  S  S49  1  0.35523371  0.11749766  0.26864252  1
  S  S50  1  0.80469874  0.62727360  0.26399048  1
  S  S51  1  0.65632016  0.80971232  0.34543650  1
  S  S52  1  0.85526340  0.13549457  0.30642938  1
  S  S53  1  0.30497616  0.62538408  0.31131956  1
  S  S54  1  0.14778250  0.46777045  0.48629779  1
  S  S55  1  0.69597794  0.98893830  0.47170934  1
  S  S56  1  0.16215528  0.80046742  0.48777386  1
  S  S57  1  0.35123165  0.63565669  0.39478693  1
  S  S58  1  0.80753362  0.13654309  0.39014944  1
  S  S59  1  0.66263380  0.32080948  0.46748998  1
  S  S60  1  0.85576099  0.64614503  0.43633943  1
  S  S61  1  0.30180812  0.13383631  0.43804552  1
  S  S62  1  0.38733448  0.14604531  0.52165195  1
  S  S63  1  0.76749951  0.63972184  0.51919804  1
