# generated using pymatgen
data_Na3PS4
_symmetry_space_group_name_H-M   'P 1'
_cell_length_a   7.00642000
_cell_length_b   15.96026505
_cell_length_c   44.06482300
_cell_angle_alpha   90.00000000
_cell_angle_beta   90.00000000
_cell_angle_gamma   90.00450892
_symmetry_Int_Tables_number   1
_chemical_formula_structural   Na3PS4
_chemical_formula_sum   'Na36 P12 S48'
_cell_volume   4927.51886355
_cell_formula_units_Z   12
loop_
 _symmetry_equiv_pos_site_id
 _symmetry_equiv_pos_as_xyz
  1  'x, y, z'
loop_
 _atom_site_type_symbol
 _atom_site_label
 _atom_site_symmetry_multiplicity
 _atom_site_fract_x
 _atom_site_fract_y
 _atom_site_fract_z
 _atom_site_occupancy
  Na  Na0  1  0.52760654  0.07698994  0.09110721  1
  Na  Na1  1  0.52170232  0.27773030  0.13101413  1
  Na  Na2  1  0.03126228  0.31068900  0.13912877  1
  Na  Na3  1  0.01517699  0.90421622  0.07815574  1
  Na  Na4  1  0.47863998  0.60514992  0.09802236  1
  Na  Na5  1  0.01936820  0.24326404  0.04323755  1
  Na  Na6  1  0.99171304  0.63260721  0.11590916  1
  Na  Na7  1  0.99576702  0.43802599  0.06928239  1
  Na  Na8  1  0.49510173  0.88688528  0.23604862  1
  Na  Na9  1  0.49120505  0.47774429  0.16598704  1
  Na  Na10  1  0.49722043  0.08413384  0.27454940  1
  Na  Na11  1  0.50261549  0.67913588  0.20296752  1
  Na  Na12  1  0.00012953  0.11398254  0.28623390  1
  Na  Na13  1  0.99888013  0.70288522  0.21899041  1
  Na  Na14  1  0.50137322  0.01851232  0.16664718  1
  Na  Na15  1  0.49944534  0.42092117  0.24347706  1
  Na  Na16  1  0.00109469  0.04978387  0.18113129  1
  Na  Na17  1  0.99742514  0.44995136  0.25531427  1
  Na  Na18  1  0.98661878  0.83590277  0.14872607  1
  Na  Na19  1  0.99706184  0.24796405  0.21829153  1
  Na  Na20  1  0.48266893  0.69878160  0.38103010  1
  Na  Na21  1  0.49576183  0.28700250  0.31153130  1
  Na  Na22  1  0.48868125  0.90200176  0.41371846  1
  Na  Na23  1  0.49980833  0.48530775  0.34858357  1
  Na  Na24  1  0.97516761  0.93132510  0.43135090  1
  Na  Na25  1  0.00080575  0.51650251  0.36327741  1
  Na  Na26  1  0.49733106  0.83192434  0.31087710  1
  Na  Na27  1  0.52834749  0.22523684  0.39033895  1
  Na  Na28  1  0.00054005  0.85543837  0.32679428  1
  Na  Na29  1  0.01873803  0.25727966  0.39901203  1
  Na  Na30  1  0.99338505  0.64748555  0.29378825  1
  Na  Na31  1  0.98821180  0.05792636  0.36376616  1
  Na  Na32  1  0.49027512  0.09880606  0.46030316  1
  Na  Na33  1  0.51511873  0.29332177  0.48670835  1
  Na  Na34  1  0.51133858  0.63136853  0.45152588  1
  Na  Na35  1  0.02300835  0.45755702  0.43865639  1
  P  P36  1  0.02133673  0.10358602  0.10337021  1
  P  P37  1  0.49947447  0.41201393  0.06525981  1
  P  P38  1  0.48814842  0.80465831  0.13199867  1
  P  P39  1  0.00021893  0.91333734  0.24644978  1
  P  P40  1  0.99406185  0.51021203  0.17806894  1
  P  P41  1  0.49814557  0.21472225  0.20974459  1
  P  P42  1  0.49865806  0.62120521  0.28319242  1
  P  P43  1  0.98435408  0.73001141  0.39772773  1
  P  P44  1  0.99732929  0.31997597  0.32037415  1
  P  P45  1  0.49147711  0.02509526  0.35168798  1
  P  P46  1  0.51686709  0.43225778  0.42623811  1
  P  P47  1  0.99375509  0.12446505  0.46469624  1
  S  S48  1  0.17062485  0.00438483  0.12230878  1
  S  S49  1  0.69226041  0.31626344  0.07507807  1
  S  S50  1  0.21224318  0.19827736  0.09438380  1
  S  S51  1  0.34274593  0.43833735  0.10529554  1
  S  S52  1  0.81502899  0.14212119  0.13406277  1
  S  S53  1  0.65445243  0.89996861  0.11503998  1
  S  S54  1  0.65132670  0.51719465  0.05272730  1
  S  S55  1  0.89848354  0.06763769  0.06274449  1
  S  S56  1  0.85707207  0.47709409  0.13846338  1
  S  S57  1  0.30525971  0.38027019  0.03275181  1
  S  S58  1  0.27605154  0.76733005  0.10116068  1
  S  S59  1  0.15754682  0.81381482  0.26314601  1
  S  S60  1  0.15264628  0.41089907  0.19420496  1
  S  S61  1  0.68076438  0.11575180  0.21850497  1
  S  S62  1  0.66354158  0.70366862  0.14176513  1
  S  S63  1  0.18353193  0.01019060  0.23590615  1
  S  S64  1  0.17614690  0.60986697  0.16953113  1
  S  S65  1  0.36020610  0.84149397  0.17204116  1
  S  S66  1  0.35291483  0.24509742  0.24918294  1
  S  S67  1  0.80619305  0.95073029  0.27903629  1
  S  S68  1  0.79405772  0.54578469  0.21018162  1
  S  S69  1  0.65706649  0.72067405  0.26669186  1
  S  S70  1  0.65396549  0.31602004  0.19451452  1
  S  S71  1  0.85209263  0.87759703  0.20782399  1
  S  S72  1  0.85303419  0.28927385  0.28090669  1
  S  S73  1  0.30537147  0.18121628  0.17645567  1
  S  S74  1  0.30463844  0.58415478  0.25060012  1
  S  S75  1  0.15074254  0.63444652  0.41442006  1
  S  S76  1  0.15222964  0.21859799  0.33576297  1
  S  S77  1  0.67475793  0.92589742  0.36025245  1
  S  S78  1  0.68107818  0.52397948  0.29366271  1
  S  S79  1  0.16013825  0.83091723  0.38793734  1
  S  S80  1  0.18062410  0.41868564  0.31146627  1
  S  S81  1  0.35059898  0.65690317  0.32184408  1
  S  S82  1  0.35468288  0.05802084  0.39133942  1
  S  S83  1  0.77375403  0.76761675  0.42880129  1
  S  S84  1  0.80388131  0.35397558  0.35349363  1
  S  S85  1  0.66721179  0.53113313  0.40735279  1
  S  S86  1  0.64984294  0.12437048  0.33545181  1
  S  S87  1  0.85558800  0.69367081  0.35767205  1
  S  S88  1  0.83811704  0.09851693  0.42446980  1
  S  S89  1  0.29151709  0.98894974  0.31965496  1
  S  S90  1  0.31081056  0.39375487  0.39550082  1
  S  S91  1  0.14618300  0.01919790  0.47691620  1
  S  S92  1  0.70679247  0.33728254  0.43530290  1
  S  S93  1  0.18617331  0.22061654  0.45524813  1
  S  S94  1  0.39338854  0.46825620  0.46680926  1
  S  S95  1  0.79903033  0.15541603  0.49724379  1
