# generated using pymatgen
data_Na3PS4
_symmetry_space_group_name_H-M   'P 1'
_cell_length_a   7.16981500
_cell_length_b   9.90845200
_cell_length_c   49.54348200
_cell_angle_alpha   90.00000000
_cell_angle_beta   90.00000000
_cell_angle_gamma   90.00000000
_symmetry_Int_Tables_number   1
_chemical_formula_structural   Na3PS4
_chemical_formula_sum   'Na24 P8 S32'
_cell_volume   3519.65654308
_cell_formula_units_Z   8
loop_
 _symmetry_equiv_pos_site_id
 _symmetry_equiv_pos_as_xyz
  1  'x, y, z'
loop_
 _atom_site_type_symbol
 _atom_site_label
 _atom_site_symmetry_multiplicity
 _atom_site_fract_x
 _atom_site_fract_y
 _atom_site_fract_z
 _atom_site_occupancy
  Na  Na0  1  0.98216456  0.25966219  0.06420722  1
  Na  Na1  1  0.00809898  0.71393394  0.06251012  1
  Na  Na2  1  0.55764572  0.73996060  0.15075518  1
  Na  Na3  1  0.05160698  0.77154677  0.15852386  1
  Na  Na4  1  0.02331016  0.51291953  0.11234966  1
  Na  Na5  1  0.47093589  0.94725045  0.09299363  1
  Na  Na6  1  0.43834354  0.22311692  0.14343318  1
  Na  Na7  1  0.91843246  0.23437488  0.15211545  1
  Na  Na8  1  0.60773591  0.25237749  0.25146733  1
  Na  Na9  1  0.10778644  0.25216347  0.25248413  1
  Na  Na10  1  0.00211669  0.01472856  0.20754983  1
  Na  Na11  1  0.49804861  0.46822729  0.19812639  1
  Na  Na12  1  0.42413707  0.73870647  0.25122435  1
  Na  Na13  1  0.92408977  0.73856283  0.25275330  1
  Na  Na14  1  0.55104464  0.77137688  0.34543164  1
  Na  Na15  1  0.05691200  0.73991514  0.35320504  1
  Na  Na16  1  0.99860777  0.46776721  0.30577480  1
  Na  Na17  1  0.50221413  0.01475062  0.29638188  1
  Na  Na18  1  0.42016591  0.23439773  0.35175399  1
  Na  Na19  1  0.93908127  0.22318076  0.36056411  1
  Na  Na20  1  0.48422071  0.26024261  0.43975775  1
  Na  Na21  1  0.97348634  0.94761277  0.41080563  1
  Na  Na22  1  0.52362978  0.51276876  0.39157379  1
  Na  Na23  1  0.51065422  0.71444652  0.44136625  1
  P  P24  1  0.52209843  0.48843154  0.09585083  1
  P  P25  1  0.97798427  0.98337781  0.10300835  1
  P  P26  1  0.50307987  0.99769175  0.20274916  1
  P  P27  1  0.99889035  0.49401629  0.20140065  1
  P  P28  1  0.49938819  0.49419494  0.30248520  1
  P  P29  1  0.00292490  0.99774461  0.30128239  1
  P  P30  1  0.47986756  0.98373140  0.40086220  1
  P  P31  1  0.02228551  0.48915848  0.40803070  1
  S  S32  1  0.73256182  0.49211888  0.06679913  1
  S  S33  1  0.11275247  0.98397779  0.06601138  1
  S  S34  1  0.34204795  0.32903472  0.09049452  1
  S  S35  1  0.77676080  0.13082072  0.10248759  1
  S  S36  1  0.67793316  0.00276795  0.16988331  1
  S  S37  1  0.16041900  0.48448867  0.16668085  1
  S  S38  1  0.32740945  0.83315228  0.19927060  1
  S  S39  1  0.81733995  0.65497245  0.19927692  1
  S  S40  1  0.36046616  0.66250784  0.09587176  1
  S  S41  1  0.84713426  0.80031504  0.10931409  1
  S  S42  1  0.64978490  0.47068501  0.13364738  1
  S  S43  1  0.16883342  0.01429577  0.13376520  1
  S  S44  1  0.67189570  0.51596719  0.26947650  1
  S  S45  1  0.15719674  0.97659303  0.26610656  1
  S  S46  1  0.34907255  0.31687257  0.29846072  1
  S  S47  1  0.84896644  0.17402716  0.29983313  1
  S  S48  1  0.34889345  0.17389235  0.20414722  1
  S  S49  1  0.84801784  0.31700558  0.20548035  1
  S  S50  1  0.65716788  0.97675515  0.23793501  1
  S  S51  1  0.17155295  0.51591824  0.23440353  1
  S  S52  1  0.67018136  0.01394344  0.37002193  1
  S  S53  1  0.15000541  0.47104869  0.37024143  1
  S  S54  1  0.34791491  0.80095684  0.39468063  1
  S  S55  1  0.86083412  0.66336773  0.40792160  1
  S  S56  1  0.31743427  0.65488715  0.30457203  1
  S  S57  1  0.82701999  0.83333621  0.30476072  1
  S  S58  1  0.66088220  0.48500697  0.33720373  1
  S  S59  1  0.17795070  0.00275681  0.33413904  1
  S  S60  1  0.27915853  0.13160604  0.40141904  1
  S  S61  1  0.84183966  0.32985514  0.41337507  1
  S  S62  1  0.61517343  0.98444070  0.43782619  1
  S  S63  1  0.23246486  0.49293668  0.43709888  1
