# generated using pymatgen
data_Na3PS4
_symmetry_space_group_name_H-M   'P 1'
_cell_length_a   7.00642000
_cell_length_b   15.96026505
_cell_length_c   44.06482300
_cell_angle_alpha   90.00000000
_cell_angle_beta   90.00000000
_cell_angle_gamma   90.00450892
_symmetry_Int_Tables_number   1
_chemical_formula_structural   Na3PS4
_chemical_formula_sum   'Na36 P12 S48'
_cell_volume   4927.51886355
_cell_formula_units_Z   12
loop_
 _symmetry_equiv_pos_site_id
 _symmetry_equiv_pos_as_xyz
  1  'x, y, z'
loop_
 _atom_site_type_symbol
 _atom_site_label
 _atom_site_symmetry_multiplicity
 _atom_site_fract_x
 _atom_site_fract_y
 _atom_site_fract_z
 _atom_site_occupancy
  Na  Na0  1  0.53484998  0.11655913  0.05516205  1
  Na  Na1  1  0.50738557  0.56621705  0.12381407  1
  Na  Na2  1  0.49597527  0.30439872  0.09854022  1
  Na  Na3  1  0.00563721  0.35654736  0.10479858  1
  Na  Na4  1  0.01252605  0.96567990  0.04510013  1
  Na  Na5  1  0.49189816  0.06242830  0.13282829  1
  Na  Na6  1  0.99452011  0.68996452  0.07581428  1
  Na  Na7  1  0.98179094  0.87584925  0.11357158  1
  Na  Na8  1  0.49364220  0.93632428  0.20180205  1
  Na  Na9  1  0.49750323  0.34595847  0.27147333  1
  Na  Na10  1  0.49621482  0.13516968  0.23919571  1
  Na  Na11  1  0.50440068  0.73862042  0.16682594  1
  Na  Na12  1  0.99816656  0.16384138  0.24905281  1
  Na  Na13  1  0.99970264  0.75134445  0.18215787  1
  Na  Na14  1  0.49632353  0.87549369  0.27818008  1
  Na  Na15  1  0.50013448  0.47498768  0.20093044  1
  Na  Na16  1  0.99167654  0.09431376  0.14356677  1
  Na  Na17  1  0.00290036  0.49843958  0.21628995  1
  Na  Na18  1  0.99961904  0.69189966  0.25599573  1
  Na  Na19  1  0.00032473  0.29451190  0.18147635  1
  Na  Na20  1  0.49997892  0.74434721  0.34573331  1
  Na  Na21  1  0.47997338  0.16277152  0.41377402  1
  Na  Na22  1  0.49097404  0.94433142  0.38364136  1
  Na  Na23  1  0.50072563  0.54010432  0.31128061  1
  Na  Na24  1  0.99094878  0.97591628  0.39434256  1
  Na  Na25  1  0.99730327  0.56353815  0.32648776  1
  Na  Na26  1  0.50495137  0.68183340  0.42248155  1
  Na  Na27  1  0.49734941  0.28705567  0.34529524  1
  Na  Na28  1  0.99490977  0.90323666  0.28797625  1
  Na  Na29  1  0.00194170  0.29979365  0.36067966  1
  Na  Na30  1  0.00612269  0.47178982  0.40383220  1
  Na  Na31  1  0.99174082  0.10227513  0.32547061  1
  Na  Na32  1  0.49356821  0.34848302  0.45157952  1
  Na  Na33  1  0.51279395  0.07258137  0.48210512  1
  Na  Na34  1  0.99538078  0.73429029  0.42847718  1
  Na  Na35  1  0.03528096  0.92158763  0.47211992  1
  P  P36  1  0.02518746  0.16781955  0.06551180  1
  P  P37  1  0.99861436  0.56000186  0.13728168  1
  P  P38  1  0.48061874  0.85599414  0.09705576  1
  P  P39  1  0.99718110  0.96249528  0.21066969  1
  P  P40  1  0.99883840  0.37163924  0.28293258  1
  P  P41  1  0.50123494  0.26246370  0.17420577  1
  P  P42  1  0.50052192  0.66733182  0.24461533  1
  P  P43  1  0.00074412  0.77630234  0.35289424  1
  P  P44  1  0.97935199  0.18234443  0.43036268  1
  P  P45  1  0.49573189  0.07633811  0.31651327  1
  P  P46  1  0.49639816  0.47838035  0.39009560  1
  P  P47  1  0.52592313  0.87036617  0.46180859  1
  S  S48  1  0.18354507  0.07153398  0.08510174  1
  S  S49  1  0.65343172  0.75327965  0.10507549  1
  S  S50  1  0.19983539  0.26830162  0.05637180  1
  S  S51  1  0.16854727  0.66398929  0.13015319  1
  S  S52  1  0.35170874  0.88988428  0.13782600  1
  S  S53  1  0.81600267  0.20032294  0.09742059  1
  S  S54  1  0.65661791  0.95328519  0.08319567  1
  S  S55  1  0.89815708  0.12507557  0.02682968  1
  S  S56  1  0.86734731  0.52713656  0.09687607  1
  S  S57  1  0.30064872  0.22333406  0.14295446  1
  S  S58  1  0.26775134  0.83036506  0.06557473  1
  S  S59  1  0.15585542  0.86315063  0.22715285  1
  S  S60  1  0.17077053  0.46251508  0.15138928  1
  S  S61  1  0.68606668  0.16514769  0.18379019  1
  S  S62  1  0.67744892  0.56711125  0.25349304  1
  S  S63  1  0.17783598  0.06016178  0.19997239  1
  S  S64  1  0.17738714  0.47138093  0.27417894  1
  S  S65  1  0.35958117  0.70078997  0.28394964  1
  S  S66  1  0.35630925  0.29822833  0.21298477  1
  S  S67  1  0.80278505  0.99989579  0.24336256  1
  S  S68  1  0.79829716  0.59056946  0.17012608  1
  S  S69  1  0.65957727  0.76739658  0.22883257  1
  S  S70  1  0.65277208  0.36217834  0.15656752  1
  S  S71  1  0.84830599  0.92693584  0.17216206  1
  S  S72  1  0.85833143  0.33858513  0.24348456  1
  S  S73  1  0.30120534  0.03919815  0.28381636  1
  S  S74  1  0.30270354  0.63437520  0.21160796  1
  S  S75  1  0.15204606  0.67660270  0.37052953  1
  S  S76  1  0.15678854  0.27120937  0.29869738  1
  S  S77  1  0.67676593  0.97871865  0.32713913  1
  S  S78  1  0.66710718  0.37468660  0.39726061  1
  S  S79  1  0.18542003  0.87379015  0.34339536  1
  S  S80  1  0.15253368  0.28500892  0.42239525  1
  S  S81  1  0.36636612  0.51152648  0.43056257  1
  S  S82  1  0.34655701  0.11163989  0.35504917  1
  S  S83  1  0.79974440  0.81538938  0.38407288  1
  S  S84  1  0.80077853  0.40449715  0.31587413  1
  S  S85  1  0.66779990  0.57586517  0.37574186  1
  S  S86  1  0.65450546  0.17568918  0.30008632  1
  S  S87  1  0.85589679  0.74058024  0.31414163  1
  S  S88  1  0.85014115  0.14869716  0.38957430  1
  S  S89  1  0.31689595  0.83778577  0.42985474  1
  S  S90  1  0.29555581  0.44724469  0.35742234  1
  S  S91  1  0.15513683  0.08483904  0.44409916  1
  S  S92  1  0.70062064  0.76987701  0.47095225  1
  S  S93  1  0.39881625  0.91328776  0.50045399  1
  S  S94  1  0.76698337  0.20827359  0.46186846  1
  S  S95  1  0.68407519  0.96657002  0.44213960  1
