# generated using pymatgen
data_Na3PS4
_symmetry_space_group_name_H-M   'P 1'
_cell_length_a   7.00642000
_cell_length_b   10.02515603
_cell_length_c   40.08694400
_cell_angle_alpha   90.00000000
_cell_angle_beta   90.00000000
_cell_angle_gamma   90.00408065
_symmetry_Int_Tables_number   1
_chemical_formula_structural   Na3PS4
_chemical_formula_sum   'Na24 P8 S32'
_cell_volume   2815.72512605
_cell_formula_units_Z   8
loop_
 _symmetry_equiv_pos_site_id
 _symmetry_equiv_pos_as_xyz
  1  'x, y, z'
loop_
 _atom_site_type_symbol
 _atom_site_label
 _atom_site_symmetry_multiplicity
 _atom_site_fract_x
 _atom_site_fract_y
 _atom_site_fract_z
 _atom_site_occupancy
  Na  Na0  1  0.51551047  0.19674035  0.05231863  1
  Na  Na1  1  0.52010682  0.45678129  0.11525058  1
  Na  Na2  1  0.00094187  0.96251524  0.01794459  1
  Na  Na3  1  0.01172111  0.51075064  0.02036043  1
  Na  Na4  1  0.98222487  0.76222981  0.08039283  1
  Na  Na5  1  0.49444868  0.70922382  0.17868969  1
  Na  Na6  1  0.49681913  0.96028605  0.24333158  1
  Na  Na7  1  0.02289802  0.47052417  0.13435982  1
  Na  Na8  1  0.49684566  0.00245430  0.12345656  1
  Na  Na9  1  0.99531265  0.03604906  0.14155838  1
  Na  Na10  1  0.99796033  0.28381220  0.20554382  1
  Na  Na11  1  0.49780001  0.22242107  0.30502459  1
  Na  Na12  1  0.49560084  0.46887852  0.36882673  1
  Na  Na13  1  0.99820032  0.99047446  0.25854835  1
  Na  Na14  1  0.50022917  0.51611225  0.25190788  1
  Na  Na15  1  0.99813803  0.54586167  0.26723620  1
  Na  Na16  1  0.99425111  0.79626694  0.33168405  1
  Na  Na17  1  0.48109135  0.74232582  0.42999236  1
  Na  Na18  1  0.50938015  0.99407196  0.48999986  1
  Na  Na19  1  0.99696101  0.50333625  0.38668882  1
  Na  Na20  1  0.52203946  0.03469583  0.37622065  1
  Na  Na21  1  0.01903987  0.04794733  0.39510719  1
  Na  Na22  1  0.01342556  0.30785446  0.45786108  1
  Na  Na23  1  0.49811618  0.54261183  0.49232336  1
  P  P24  1  0.01130881  0.23097338  0.06822987  1
  P  P25  1  0.48403419  0.74036696  0.05915980  1
  P  P26  1  0.99835097  0.74238351  0.19290004  1
  P  P27  1  0.50067007  0.24955614  0.19138415  1
  P  P28  1  0.00038480  0.25655679  0.31900867  1
  P  P29  1  0.49821346  0.76309326  0.31772625  1
  P  P30  1  0.98197514  0.76532822  0.45108941  1
  P  P31  1  0.50909914  0.27400605  0.44220937  1
  S  S32  1  0.16259335  0.05659707  0.07546075  1
  S  S33  1  0.66384706  0.57919559  0.05461864  1
  S  S34  1  0.19892278  0.38832405  0.07090453  1
  S  S35  1  0.35663909  0.73234738  0.10612728  1
  S  S36  1  0.80364066  0.24564159  0.10482178  1
  S  S37  1  0.64884781  0.91177096  0.05629171  1
  S  S38  1  0.88837016  0.23201849  0.02125846  1
  S  S39  1  0.26861688  0.73935839  0.02330291  1
  S  S40  1  0.15621254  0.56923212  0.19779968  1
  S  S41  1  0.68237308  0.08737673  0.18903052  1
  S  S42  1  0.18141739  0.90366401  0.19430434  1
  S  S43  1  0.35537164  0.24387512  0.23633354  1
  S  S44  1  0.80344952  0.75382023  0.23151085  1
  S  S45  1  0.65695705  0.42370276  0.18759941  1
  S  S46  1  0.85168886  0.74213725  0.14803575  1
  S  S47  1  0.30735078  0.24219457  0.15261465  1
  S  S48  1  0.15632424  0.08216865  0.32241154  1
  S  S49  1  0.68222146  0.60233795  0.31620800  1
  S  S50  1  0.18264691  0.41844196  0.32143207  1
  S  S51  1  0.35082386  0.76211347  0.36247342  1
  S  S52  1  0.80812676  0.26316716  0.35793322  1
  S  S53  1  0.65536824  0.93667218  0.31297405  1
  S  S54  1  0.85405878  0.26333911  0.27416968  1
  S  S55  1  0.30354835  0.75208334  0.27905265  1
  S  S56  1  0.14668120  0.59384782  0.45383169  1
  S  S57  1  0.69609100  0.11618439  0.43943322  1
  S  S58  1  0.16167678  0.92644307  0.45578821  1
  S  S59  1  0.38633337  0.27270778  0.48921017  1
  S  S60  1  0.76596382  0.76599342  0.48685412  1
  S  S61  1  0.66122244  0.44798195  0.43495623  1
  S  S62  1  0.85512058  0.77364320  0.40406167  1
  S  S63  1  0.30150729  0.25993464  0.40559167  1
