# generated using pymatgen
data_Na3PS4
_symmetry_space_group_name_H-M   'P 1'
_cell_length_a   7.00642000
_cell_length_b   7.16981502
_cell_length_c   49.04494000
_cell_angle_alpha   90.00000000
_cell_angle_beta   90.00000000
_cell_angle_gamma   90.00432327
_symmetry_Int_Tables_number   1
_chemical_formula_structural   Na3PS4
_chemical_formula_sum   'Na21 P7 S28'
_cell_volume   2463.75957440
_cell_formula_units_Z   7
loop_
 _symmetry_equiv_pos_site_id
 _symmetry_equiv_pos_as_xyz
  1  'x, y, z'
loop_
 _atom_site_type_symbol
 _atom_site_label
 _atom_site_symmetry_multiplicity
 _atom_site_fract_x
 _atom_site_fract_y
 _atom_site_fract_z
 _atom_site_occupancy
  Na  Na0  1  0.51309594  0.42688669  0.05664672  1
  Na  Na1  1  0.49927548  0.88802465  0.06481591  1
  Na  Na2  1  0.00910003  0.00488922  0.06081552  1
  Na  Na3  1  0.48225170  0.49976833  0.13000483  1
  Na  Na4  1  0.98820846  0.59019548  0.13111180  1
  Na  Na5  1  0.99830738  0.09592612  0.13151072  1
  Na  Na6  1  0.49813211  0.41688811  0.20304131  1
  Na  Na7  1  0.49359808  0.91421485  0.20332962  1
  Na  Na8  1  0.99152402  0.99827255  0.20319978  1
  Na  Na9  1  0.50017675  0.49454531  0.27491710  1
  Na  Na10  1  0.00009014  0.58186523  0.27498304  1
  Na  Na11  1  0.00005991  0.08166193  0.27497750  1
  Na  Na12  1  0.50195104  0.41697212  0.34685369  1
  Na  Na13  1  0.50621398  0.91442828  0.34655098  1
  Na  Na14  1  0.00819519  0.99816553  0.34681707  1
  Na  Na15  1  0.51793731  0.49950745  0.41990924  1
  Na  Na16  1  0.01194347  0.59031694  0.41884593  1
  Na  Na17  1  0.00173094  0.09594021  0.41846020  1
  Na  Na18  1  0.48690051  0.42669999  0.49330695  1
  Na  Na19  1  0.50099993  0.88781179  0.48511948  1
  Na  Na20  1  0.99099851  0.00472654  0.48918447  1
  P  P21  1  0.01173735  0.50192110  0.05806181  1
  P  P22  1  0.49531177  0.00265835  0.13210868  1
  P  P23  1  0.99681638  0.49794155  0.20311538  1
  P  P24  1  0.50010816  0.99428565  0.27491821  1
  P  P25  1  0.00323408  0.49785352  0.34684515  1
  P  P26  1  0.50492632  0.00239762  0.41781257  1
  P  P27  1  0.98825706  0.50188887  0.49191500  1
  S  S28  1  0.16586155  0.34632439  0.08651685  1
  S  S29  1  0.19979402  0.67119326  0.03705013  1
  S  S30  1  0.81706008  0.67045369  0.07925933  1
  S  S31  1  0.64549799  0.16108696  0.10397694  1
  S  S32  1  0.86777553  0.32517151  0.03279179  1
  S  S33  1  0.29725512  0.84095207  0.11153813  1
  S  S34  1  0.14843944  0.33249958  0.23003950  1
  S  S35  1  0.68298069  0.83379807  0.15312209  1
  S  S36  1  0.18400567  0.66456937  0.18153351  1
  S  S37  1  0.34957214  0.17029221  0.15918247  1
  S  S38  1  0.80682566  0.66091210  0.22486655  1
  S  S39  1  0.64949907  0.15963381  0.24775345  1
  S  S40  1  0.84637681  0.33392025  0.17592013  1
  S  S41  1  0.31005666  0.82953650  0.25346849  1
  S  S42  1  0.15380906  0.33397894  0.37404424  1
  S  S43  1  0.69003943  0.82957357  0.29639541  1
  S  S44  1  0.19312155  0.66099308  0.32508857  1
  S  S45  1  0.35077550  0.15982660  0.30207625  1
  S  S46  1  0.81580428  0.66430002  0.36842500  1
  S  S47  1  0.65052596  0.17026370  0.39074837  1
  S  S48  1  0.85184188  0.33237781  0.31989076  1
  S  S49  1  0.31744442  0.83329924  0.39683190  1
  S  S50  1  0.13219121  0.32510734  0.51716944  1
  S  S51  1  0.70305715  0.84088171  0.43840833  1
  S  S52  1  0.18291420  0.67044948  0.47072400  1
  S  S53  1  0.35465644  0.16065507  0.44594031  1
  S  S54  1  0.80014457  0.67090811  0.51292895  1
  S  S55  1  0.83446592  0.34622561  0.46345344  1
