# generated using pymatgen
data_Na3PS4
_symmetry_space_group_name_H-M   'P 1'
_cell_length_a   7.00642000
_cell_length_b   7.16981502
_cell_length_c   49.04494000
_cell_angle_alpha   90.00000000
_cell_angle_beta   90.00000000
_cell_angle_gamma   90.00432327
_symmetry_Int_Tables_number   1
_chemical_formula_structural   Na3PS4
_chemical_formula_sum   'Na21 P7 S28'
_cell_volume   2463.75957440
_cell_formula_units_Z   7
loop_
 _symmetry_equiv_pos_site_id
 _symmetry_equiv_pos_as_xyz
  1  'x, y, z'
loop_
 _atom_site_type_symbol
 _atom_site_label
 _atom_site_symmetry_multiplicity
 _atom_site_fract_x
 _atom_site_fract_y
 _atom_site_fract_z
 _atom_site_occupancy
  Na  Na0  1  0.51436797  0.42764597  0.04293061  1
  Na  Na1  1  0.49949218  0.88860712  0.05117213  1
  Na  Na2  1  0.00935965  0.00526701  0.04687147  1
  Na  Na3  1  0.48426179  0.50030351  0.11673699  1
  Na  Na4  1  0.99021341  0.59098652  0.11734711  1
  Na  Na5  1  0.00042153  0.09726306  0.11764962  1
  Na  Na6  1  0.50211470  0.41823243  0.18963176  1
  Na  Na7  1  0.49832044  0.91540288  0.18994996  1
  Na  Na8  1  0.99752133  0.99970354  0.18895209  1
  Na  Na9  1  0.49985725  0.49858217  0.26188379  1
  Na  Na10  1  0.00028120  0.58275405  0.26139853  1
  Na  Na11  1  0.00108515  0.08294802  0.26116666  1
  Na  Na12  1  0.50007559  0.41638409  0.33362812  1
  Na  Na13  1  0.50264935  0.91340639  0.33303722  1
  Na  Na14  1  0.00352252  0.99945912  0.33290226  1
  Na  Na15  1  0.51470964  0.49714242  0.40665220  1
  Na  Na16  1  0.00880940  0.58773927  0.40548610  1
  Na  Na17  1  0.99907028  0.09201640  0.40482355  1
  Na  Na18  1  0.48412973  0.42325396  0.48015502  1
  Na  Na19  1  0.49795798  0.88523833  0.47169657  1
  Na  Na20  1  0.98802263  0.00010395  0.47592928  1
  P  P21  1  0.01254049  0.50240687  0.04419048  1
  P  P22  1  0.49770850  0.00306376  0.11858435  1
  P  P23  1  0.00170077  0.49974912  0.18946236  1
  P  P24  1  0.50103946  0.99879030  0.26155174  1
  P  P25  1  0.00108105  0.49942268  0.33326605  1
  P  P26  1  0.50152263  0.99990310  0.40435688  1
  P  P27  1  0.98586153  0.49696367  0.47864960  1
  S  S28  1  0.16694403  0.34634960  0.07256267  1
  S  S29  1  0.68679990  0.83510554  0.13948448  1
  S  S30  1  0.20035086  0.67176506  0.02317073  1
  S  S31  1  0.81818998  0.67086383  0.06547938  1
  S  S32  1  0.64619342  0.16242369  0.09042245  1
  S  S33  1  0.86839678  0.32594707  0.01890625  1
  S  S34  1  0.29998884  0.84076112  0.09801493  1
  S  S35  1  0.15165826  0.33348002  0.21641563  1
  S  S36  1  0.69179727  0.83452511  0.28296403  1
  S  S37  1  0.18998644  0.66455081  0.16778388  1
  S  S38  1  0.35170219  0.16975242  0.14573136  1
  S  S39  1  0.81271024  0.66433894  0.21113756  1
  S  S40  1  0.65050816  0.16486927  0.23449680  1
  S  S41  1  0.84956141  0.33655754  0.16229355  1
  S  S42  1  0.31201798  0.83343668  0.24000556  1
  S  S43  1  0.15066972  0.33476901  0.36051176  1
  S  S44  1  0.69934253  0.83788748  0.42500658  1
  S  S45  1  0.19186277  0.66212544  0.31153139  1
  S  S46  1  0.34990413  0.16248735  0.28873213  1
  S  S47  1  0.81390360  0.66606572  0.35482513  1
  S  S48  1  0.64779766  0.16759611  0.37733161  1
  S  S49  1  0.84964300  0.33464151  0.30627242  1
  S  S50  1  0.31410258  0.83114674  0.38333602  1
  S  S51  1  0.12983018  0.32012643  0.50391855  1
  S  S52  1  0.18032063  0.66597094  0.45744623  1
  S  S53  1  0.35132555  0.15890268  0.43236185  1
  S  S54  1  0.79782618  0.66539524  0.49974493  1
  S  S55  1  0.83171053  0.34164891  0.45019662  1
