# generated using pymatgen
data_Na3PS4
_symmetry_space_group_name_H-M   'P 1'
_cell_length_a   7.00642000
_cell_length_b   15.74106402
_cell_length_c   44.67844400
_cell_angle_alpha   90.00000000
_cell_angle_beta   90.00000000
_cell_angle_gamma   90.00322858
_symmetry_Int_Tables_number   1
_chemical_formula_structural   Na3PS4
_chemical_formula_sum   'Na36 P12 S48'
_cell_volume   4927.51882267
_cell_formula_units_Z   12
loop_
 _symmetry_equiv_pos_site_id
 _symmetry_equiv_pos_as_xyz
  1  'x, y, z'
loop_
 _atom_site_type_symbol
 _atom_site_label
 _atom_site_symmetry_multiplicity
 _atom_site_fract_x
 _atom_site_fract_y
 _atom_site_fract_z
 _atom_site_occupancy
  Na  Na0  1  0.52365477  0.87445644  0.08528863  1
  Na  Na1  1  0.51263030  0.38845859  0.08442163  1
  Na  Na2  1  0.05565005  0.39990054  0.11196933  1
  Na  Na3  1  0.99279039  0.76416056  0.04171660  1
  Na  Na4  1  0.47663919  0.70564042  0.13566477  1
  Na  Na5  1  0.00739703  0.10254708  0.07968796  1
  Na  Na6  1  0.98647933  0.58775050  0.07507455  1
  Na  Na7  1  0.49296165  0.48999924  0.15943154  1
  Na  Na8  1  0.49750579  0.09218147  0.22878688  1
  Na  Na9  1  0.49461329  0.59234246  0.23410980  1
  Na  Na10  1  0.51331851  0.99099541  0.15638313  1
  Na  Na11  1  0.99540247  0.59325658  0.24988291  1
  Na  Na12  1  0.01342955  0.98702403  0.17443548  1
  Na  Na13  1  0.49284920  0.31719019  0.20779528  1
  Na  Na14  1  0.49861099  0.92105785  0.27730449  1
  Na  Na15  1  0.98158151  0.71386758  0.14855581  1
  Na  Na16  1  0.98964484  0.32418000  0.22512023  1
  Na  Na17  1  0.99608311  0.81078624  0.22149534  1
  Na  Na18  1  0.98456313  0.21628848  0.15017407  1
  Na  Na19  1  0.49856191  0.70375801  0.30544994  1
  Na  Na20  1  0.48886041  0.29917630  0.37694560  1
  Na  Na21  1  0.48413480  0.80137716  0.37820988  1
  Na  Na22  1  0.48845449  0.19150459  0.30210709  1
  Na  Na23  1  0.97863514  0.81036772  0.39134691  1
  Na  Na24  1  0.98893628  0.19838656  0.31906368  1
  Na  Na25  1  0.51956596  0.52827494  0.35285823  1
  Na  Na26  1  0.55621766  0.11564230  0.41521485  1
  Na  Na27  1  0.99747517  0.92286535  0.29278336  1
  Na  Na28  1  0.01815404  0.52449953  0.37071097  1
  Na  Na29  1  0.99540164  0.02568796  0.36767203  1
  Na  Na30  1  0.00118177  0.42309515  0.29841159  1
  Na  Na31  1  0.48796425  0.92758306  0.45177611  1
  Na  Na32  1  0.51124519  0.41396848  0.44762366  1
  Na  Na33  1  0.49455845  0.75261131  0.48562384  1
  Na  Na34  1  0.01487188  0.12698892  0.44230463  1
  Na  Na35  1  0.02592208  0.64200768  0.44191135  1
  P  P36  1  0.01376999  0.89578929  0.10187917  1
  P  P37  1  0.49080338  0.21371441  0.13051336  1
  P  P38  1  0.48720529  0.59398247  0.06329593  1
  P  P39  1  0.99362125  0.50148127  0.17724662  1
  P  P40  1  0.00014275  0.10495143  0.24346896  1
  P  P41  1  0.50392537  0.41032317  0.28373873  1
  P  P42  1  0.49725034  0.80760567  0.20824468  1
  P  P43  1  0.00028917  0.70722907  0.31861921  1
  P  P44  1  0.99426107  0.30194676  0.39645725  1
  P  P45  1  0.51715623  0.62063484  0.42549690  1
  P  P46  1  0.49680340  0.01365834  0.34986983  1
  P  P47  1  0.98880340  0.92209399  0.46375283  1
  S  S48  1  0.16832049  0.78554149  0.09598135  1
  S  S49  1  0.67165900  0.50344249  0.04711525  1
  S  S50  1  0.66897593  0.11961272  0.11581582  1
  S  S51  1  0.19706883  0.99126095  0.11494404  1
  S  S52  1  0.34276069  0.54716081  0.10173781  1
  S  S53  1  0.80668043  0.87494310  0.13415861  1
  S  S54  1  0.65599107  0.69614119  0.07757232  1
  S  S55  1  0.85650758  0.53649591  0.13826081  1
  S  S56  1  0.88960402  0.93106233  0.06173951  1
  S  S57  1  0.27828264  0.24425017  0.09890568  1
  S  S58  1  0.28504248  0.62577458  0.03267239  1
  S  S59  1  0.15358606  0.39159206  0.17097176  1
  S  S60  1  0.15501260  0.99651858  0.23434959  1
  S  S61  1  0.67599230  0.71046271  0.19481951  1
  S  S62  1  0.69028492  0.31508319  0.27088963  1
  S  S63  1  0.17279328  0.59875013  0.18998343  1
  S  S64  1  0.18643276  0.19996074  0.25654801  1
  S  S65  1  0.35510790  0.77005131  0.24669442  1
  S  S66  1  0.35817104  0.17411929  0.16945637  1
  S  S67  1  0.79140841  0.47573244  0.20969629  1
  S  S68  1  0.80656634  0.07956472  0.27712635  1
  S  S69  1  0.65218176  0.32176645  0.13863840  1
  S  S70  1  0.65788280  0.91526160  0.21674317  1
  S  S71  1  0.85719837  0.74490957  0.28025645  1
  S  S72  1  0.85147696  0.14457849  0.20585648  1
  S  S73  1  0.30978377  0.43479175  0.25004151  1
  S  S74  1  0.30221304  0.83360757  0.17491916  1
  S  S75  1  0.16061783  0.59955584  0.31017190  1
  S  S76  1  0.15498941  0.19384737  0.38806311  1
  S  S77  1  0.67706032  0.91668893  0.33730533  1
  S  S78  1  0.70248492  0.52558977  0.41268465  1
  S  S79  1  0.17926195  0.80447723  0.33187966  1
  S  S80  1  0.17309360  0.39549039  0.41139973  1
  S  S81  1  0.35884027  0.97858545  0.38876548  1
  S  S82  1  0.35556852  0.37127362  0.32144852  1
  S  S83  1  0.80545143  0.68152513  0.35199762  1
  S  S84  1  0.78083822  0.27124424  0.42789496  1
  S  S85  1  0.65792921  0.51913889  0.29259612  1
  S  S86  1  0.65576455  0.12382839  0.35623170  1
  S  S87  1  0.84445567  0.96838668  0.42524911  1
  S  S88  1  0.86208934  0.34255669  0.35759251  1
  S  S89  1  0.31067149  0.64055873  0.39301649  1
  S  S90  1  0.29494728  0.03892351  0.31730418  1
  S  S91  1  0.15762529  0.81982726  0.44966085  1
  S  S92  1  0.17378615  0.01263394  0.47979234  1
  S  S93  1  0.39240744  0.58564556  0.46560024  1
  S  S94  1  0.78665855  0.89077793  0.49444396  1
  S  S95  1  0.67005022  0.73131774  0.43123880  1
