# generated using pymatgen
data_Na3PS4
_symmetry_space_group_name_H-M   'P 1'
_cell_length_a   7.00642000
_cell_length_b   10.02515603
_cell_length_c   40.08694400
_cell_angle_alpha   90.00000000
_cell_angle_beta   90.00000000
_cell_angle_gamma   90.00408065
_symmetry_Int_Tables_number   1
_chemical_formula_structural   Na3PS4
_chemical_formula_sum   'Na24 P8 S32'
_cell_volume   2815.72512605
_cell_formula_units_Z   8
loop_
 _symmetry_equiv_pos_site_id
 _symmetry_equiv_pos_as_xyz
  1  'x, y, z'
loop_
 _atom_site_type_symbol
 _atom_site_label
 _atom_site_symmetry_multiplicity
 _atom_site_fract_x
 _atom_site_fract_y
 _atom_site_fract_z
 _atom_site_occupancy
  Na  Na0  1  0.51378498  0.99064197  0.10628546  1
  Na  Na1  1  0.99887579  0.75553371  0.07208103  1
  Na  Na2  1  0.00965347  0.30372930  0.07390376  1
  Na  Na3  1  0.49528347  0.50031508  0.23249613  1
  Na  Na4  1  0.51940797  0.24928006  0.16906172  1
  Na  Na5  1  0.02054806  0.26069048  0.18845289  1
  Na  Na6  1  0.49907297  0.79405056  0.17723463  1
  Na  Na7  1  0.99742200  0.82727095  0.19516186  1
  Na  Na8  1  0.98229327  0.55284874  0.13420864  1
  Na  Na9  1  0.49954333  0.01171858  0.35864468  1
  Na  Na10  1  0.49802590  0.75031144  0.29700518  1
  Na  Na11  1  0.99911193  0.77902407  0.31224682  1
  Na  Na12  1  0.50129090  0.30527898  0.30549604  1
  Na  Na13  1  0.99868452  0.33543583  0.32080768  1
  Na  Na14  1  0.00101114  0.07239324  0.25922539  1
  Na  Na15  1  0.47998128  0.53186191  0.48358656  1
  Na  Na16  1  0.49433633  0.25844988  0.42234228  1
  Na  Na17  1  0.99464825  0.29361807  0.43988289  1
  Na  Na18  1  0.52195875  0.82322511  0.42985575  1
  Na  Na19  1  0.01798024  0.83766835  0.44867843  1
  Na  Na20  1  0.99578393  0.58682036  0.38526494  1
  Na  Na21  1  0.50731487  0.78369900  0.54347843  1
  Na  Na22  1  0.49544590  0.33130251  0.54578012  1
  Na  Na23  1  0.01133892  0.09806196  0.51105213  1
  P  P24  1  0.00972493  0.02461102  0.12209704  1
  P  P25  1  0.48335547  0.53258327  0.11317544  1
  P  P26  1  0.99928438  0.53254822  0.24667528  1
  P  P27  1  0.50367973  0.03977670  0.24496001  1
  P  P28  1  0.00146141  0.04519974  0.37249106  1
  P  P29  1  0.49965702  0.55218611  0.37141431  1
  P  P30  1  0.98055444  0.55446825  0.50445963  1
  P  P31  1  0.50748733  0.06309712  0.49560263  1
  S  S32  1  0.16352453  0.85121915  0.12912908  1
  S  S33  1  0.66290978  0.37152629  0.10836976  1
  S  S34  1  0.19466985  0.18349627  0.12507693  1
  S  S35  1  0.64824598  0.70404416  0.11056327  1
  S  S36  1  0.88710282  0.02547528  0.07506619  1
  S  S37  1  0.26772155  0.53228137  0.07736569  1
  S  S38  1  0.15739846  0.35948988  0.25153923  1
  S  S39  1  0.68471122  0.87715152  0.24260632  1
  S  S40  1  0.18207644  0.69398421  0.24814884  1
  S  S41  1  0.35626166  0.52423465  0.16016484  1
  S  S42  1  0.80166653  0.03674653  0.15863829  1
  S  S43  1  0.66004451  0.21385187  0.24135698  1
  S  S44  1  0.85277420  0.53288113  0.20184825  1
  S  S45  1  0.31060843  0.03299498  0.20614558  1
  S  S46  1  0.15830209  0.87126764  0.37602226  1
  S  S47  1  0.68387982  0.39149277  0.37000618  1
  S  S48  1  0.18307879  0.20751732  0.37487301  1
  S  S49  1  0.35827449  0.03376215  0.28987902  1
  S  S50  1  0.80367547  0.54355265  0.28521942  1
  S  S51  1  0.65674601  0.72577728  0.36664849  1
  S  S52  1  0.85576338  0.05134434  0.32760582  1
  S  S53  1  0.30546071  0.54109614  0.33268063  1
  S  S54  1  0.14497395  0.38286668  0.50706660  1
  S  S55  1  0.69617384  0.90622689  0.49312832  1
  S  S56  1  0.16021892  0.71552081  0.50931302  1
  S  S57  1  0.35176218  0.55152087  0.41612086  1
  S  S58  1  0.80877033  0.05220348  0.41134106  1
  S  S59  1  0.65870336  0.23751548  0.48843544  1
  S  S60  1  0.85397954  0.56323025  0.45743779  1
  S  S61  1  0.30161072  0.04811534  0.45876782  1
  S  S62  1  0.38278735  0.06199114  0.54244987  1
  S  S63  1  0.76453918  0.55476790  0.54022831  1
