# generated using pymatgen
data_Na3PS4
_symmetry_space_group_name_H-M   'P 1'
_cell_length_a   7.00642000
_cell_length_b   10.02515603
_cell_length_c   40.08694400
_cell_angle_alpha   90.00000000
_cell_angle_beta   90.00000000
_cell_angle_gamma   90.00408065
_symmetry_Int_Tables_number   1
_chemical_formula_structural   Na3PS4
_chemical_formula_sum   'Na24 P8 S32'
_cell_volume   2815.72512605
_cell_formula_units_Z   8
loop_
 _symmetry_equiv_pos_site_id
 _symmetry_equiv_pos_as_xyz
  1  'x, y, z'
loop_
 _atom_site_type_symbol
 _atom_site_label
 _atom_site_symmetry_multiplicity
 _atom_site_fract_x
 _atom_site_fract_y
 _atom_site_fract_z
 _atom_site_occupancy
  Na  Na0  1  0.51484563  0.13656825  0.06757621  1
  Na  Na1  1  0.99760935  0.90163521  0.03352043  1
  Na  Na2  1  0.00885818  0.45092107  0.03571184  1
  Na  Na3  1  0.98148358  0.70142422  0.09598318  1
  Na  Na4  1  0.49394938  0.64900933  0.19427535  1
  Na  Na5  1  0.51835074  0.39535228  0.13090456  1
  Na  Na6  1  0.02141093  0.40982278  0.14970332  1
  Na  Na7  1  0.49611019  0.94173156  0.13900885  1
  Na  Na8  1  0.99490018  0.97532981  0.15670774  1
  Na  Na9  1  0.99742630  0.22290298  0.22092862  1
  Na  Na10  1  0.49627777  0.16150342  0.32050725  1
  Na  Na11  1  0.49635277  0.89963915  0.25877309  1
  Na  Na12  1  0.99746889  0.92993090  0.27383330  1
  Na  Na13  1  0.49961451  0.45492021  0.26750411  1
  Na  Na14  1  0.99751381  0.48530871  0.28260407  1
  Na  Na15  1  0.99419963  0.73716708  0.34685478  1
  Na  Na16  1  0.48459280  0.68150860  0.44515421  1
  Na  Na17  1  0.49467038  0.40919068  0.38427774  1
  Na  Na18  1  0.99592914  0.44378899  0.40197102  1
  Na  Na19  1  0.52315663  0.97414962  0.39184658  1
  Na  Na20  1  0.01991043  0.98902199  0.41057429  1
  Na  Na21  1  0.01578256  0.24882981  0.47345101  1
  Na  Na22  1  0.51199776  0.93400430  0.50555751  1
  Na  Na23  1  0.50012633  0.48300933  0.50778823  1
  P  P24  1  0.01074290  0.17113608  0.08329472  1
  P  P25  1  0.48249550  0.67932903  0.07499825  1
  P  P26  1  0.99799610  0.68186379  0.20824776  1
  P  P27  1  0.49986980  0.18840644  0.20694944  1
  P  P28  1  0.99833804  0.19620339  0.33443751  1
  P  P29  1  0.49769092  0.70332326  0.33308462  1
  P  P30  1  0.98592573  0.70518538  0.46636077  1
  P  P31  1  0.51167148  0.21405063  0.45783088  1
  S  S32  1  0.16297759  0.99724675  0.09048525  1
  S  S33  1  0.66274468  0.51836718  0.07048618  1
  S  S34  1  0.19743960  0.32900344  0.08615266  1
  S  S35  1  0.80301736  0.18478104  0.11994796  1
  S  S36  1  0.64752656  0.85070714  0.07226217  1
  S  S37  1  0.88792588  0.17210510  0.03629121  1
  S  S38  1  0.26754029  0.67861972  0.03906041  1
  S  S39  1  0.15591484  0.50867517  0.21310674  1
  S  S40  1  0.68207195  0.02646127  0.20451763  1
  S  S41  1  0.18096910  0.84322845  0.20964319  1
  S  S42  1  0.35483572  0.67135474  0.12195656  1
  S  S43  1  0.80335217  0.69298839  0.24693095  1
  S  S44  1  0.65603750  0.36260474  0.20331347  1
  S  S45  1  0.85073054  0.68144808  0.16345895  1
  S  S46  1  0.30720361  0.18135071  0.16804939  1
  S  S47  1  0.15475864  0.02199737  0.33791370  1
  S  S48  1  0.68175018  0.54261528  0.33171541  1
  S  S49  1  0.18058046  0.35822707  0.33698094  1
  S  S50  1  0.35383558  0.18212358  0.25181753  1
  S  S51  1  0.80579778  0.20309382  0.37329491  1
  S  S52  1  0.65455513  0.87690525  0.32821182  1
  S  S53  1  0.85270613  0.20302179  0.28955746  1
  S  S54  1  0.30320302  0.69147949  0.29440700  1
  S  S55  1  0.14978324  0.53330505  0.46889088  1
  S  S56  1  0.69948665  0.05671977  0.45519935  1
  S  S57  1  0.16709616  0.86558766  0.47086842  1
  S  S58  1  0.35072460  0.70284380  0.37786993  1
  S  S59  1  0.77063672  0.70630627  0.50221970  1
  S  S60  1  0.66314235  0.38830507  0.45048924  1
  S  S61  1  0.85822114  0.71378383  0.41939826  1
  S  S62  1  0.30434770  0.19954782  0.42116462  1
  S  S63  1  0.38873483  0.21303788  0.50481687  1
