# generated using pymatgen
data_Na3PS4
_symmetry_space_group_name_H-M   'P 1'
_cell_length_a   7.00642000
_cell_length_b   15.96026505
_cell_length_c   44.06482300
_cell_angle_alpha   90.00000000
_cell_angle_beta   90.00000000
_cell_angle_gamma   90.00450892
_symmetry_Int_Tables_number   1
_chemical_formula_structural   Na3PS4
_chemical_formula_sum   'Na36 P12 S48'
_cell_volume   4927.51886355
_cell_formula_units_Z   12
loop_
 _symmetry_equiv_pos_site_id
 _symmetry_equiv_pos_as_xyz
  1  'x, y, z'
loop_
 _atom_site_type_symbol
 _atom_site_label
 _atom_site_symmetry_multiplicity
 _atom_site_fract_x
 _atom_site_fract_y
 _atom_site_fract_z
 _atom_site_occupancy
  Na  Na0  1  0.52476882  0.08362422  0.08620764  1
  Na  Na1  1  0.51954315  0.28381410  0.12596076  1
  Na  Na2  1  0.02904977  0.31703791  0.13400220  1
  Na  Na3  1  0.01274544  0.91035336  0.07344910  1
  Na  Na4  1  0.48018754  0.61085040  0.09311025  1
  Na  Na5  1  0.01535367  0.24857073  0.03815880  1
  Na  Na6  1  0.99388711  0.63950881  0.11105345  1
  Na  Na7  1  0.98540938  0.84278915  0.14403371  1
  Na  Na8  1  0.99258536  0.44388224  0.06421108  1
  Na  Na9  1  0.49364975  0.89346187  0.23124189  1
  Na  Na10  1  0.49036771  0.48370989  0.16093631  1
  Na  Na11  1  0.49778866  0.09091878  0.26968048  1
  Na  Na12  1  0.50368112  0.68541567  0.19801293  1
  Na  Na13  1  0.00030663  0.12078654  0.28148612  1
  Na  Na14  1  0.00001568  0.70900289  0.21413844  1
  Na  Na15  1  0.50201451  0.02453145  0.16172549  1
  Na  Na16  1  0.50070565  0.42726704  0.23856378  1
  Na  Na17  1  0.00104132  0.05617346  0.17629988  1
  Na  Na18  1  0.99849175  0.45673853  0.25038269  1
  Na  Na19  1  0.99464563  0.65502178  0.28888530  1
  Na  Na20  1  0.99573965  0.25467228  0.21328329  1
  Na  Na21  1  0.48575271  0.70583858  0.37612902  1
  Na  Na22  1  0.49494054  0.29382550  0.30662282  1
  Na  Na23  1  0.49024339  0.90958085  0.40914191  1
  Na  Na24  1  0.50048160  0.49256806  0.34380152  1
  Na  Na25  1  0.97647876  0.93786021  0.42638822  1
  Na  Na26  1  0.00080846  0.52332634  0.35838234  1
  Na  Na27  1  0.50070320  0.83885166  0.30600550  1
  Na  Na28  1  0.53153821  0.23218466  0.38572525  1
  Na  Na29  1  0.00319068  0.86271479  0.32218723  1
  Na  Na30  1  0.02058238  0.26521051  0.39439012  1
  Na  Na31  1  0.02489382  0.46612576  0.43398826  1
  Na  Na32  1  0.98951689  0.06563196  0.35901389  1
  Na  Na33  1  0.49027887  0.10498589  0.45563898  1
  Na  Na34  1  0.51640670  0.29966604  0.48194896  1
  Na  Na35  1  0.51317341  0.63855746  0.44671893  1
  P  P36  1  0.01856666  0.10966480  0.09850048  1
  P  P37  1  0.49581926  0.41739698  0.06016051  1
  P  P38  1  0.48735711  0.81111837  0.12716128  1
  P  P39  1  0.99906138  0.91955347  0.24188787  1
  P  P40  1  0.99377409  0.51633118  0.17297956  1
  P  P41  1  0.49707653  0.22089446  0.20466568  1
  P  P42  1  0.49967950  0.62799020  0.27824237  1
  P  P43  1  0.98722848  0.73693705  0.39280020  1
  P  P44  1  0.99615496  0.32695535  0.31552363  1
  P  P45  1  0.49296737  0.03219685  0.34698093  1
  P  P46  1  0.51859141  0.43927362  0.42170969  1
  P  P47  1  0.99404401  0.13057533  0.45989157  1
  S  S48  1  0.16971184  0.01086166  0.11736458  1
  S  S49  1  0.68940924  0.32199120  0.07002137  1
  S  S50  1  0.20815118  0.20473768  0.08936709  1
  S  S51  1  0.33976953  0.44421434  0.10022036  1
  S  S52  1  0.81218998  0.14762494  0.12926288  1
  S  S53  1  0.65330726  0.90714085  0.11064182  1
  S  S54  1  0.64738336  0.52244433  0.04742426  1
  S  S55  1  0.89529298  0.07341843  0.05795628  1
  S  S56  1  0.85614488  0.48410935  0.13329211  1
  S  S57  1  0.30133807  0.38489039  0.02780354  1
  S  S58  1  0.27675051  0.77379925  0.09604205  1
  S  S59  1  0.15745126  0.82042461  0.25859876  1
  S  S60  1  0.15178758  0.41664459  0.18890454  1
  S  S61  1  0.68047525  0.12226216  0.21355403  1
  S  S62  1  0.66384324  0.71039045  0.13673850  1
  S  S63  1  0.18157694  0.01660573  0.23122246  1
  S  S64  1  0.17682822  0.61575951  0.16459571  1
  S  S65  1  0.35846239  0.84691807  0.16728393  1
  S  S66  1  0.35148168  0.25137847  0.24406250  1
  S  S67  1  0.80517877  0.95705556  0.27446114  1
  S  S68  1  0.79437710  0.55178530  0.20519240  1
  S  S69  1  0.65687191  0.72730646  0.26139376  1
  S  S70  1  0.65218878  0.32241265  0.18946190  1
  S  S71  1  0.85127920  0.88336576  0.20329531  1
  S  S72  1  0.85210229  0.29603646  0.27602887  1
  S  S73  1  0.30491142  0.18704537  0.17136615  1
  S  S74  1  0.30522897  0.59039011  0.24574814  1
  S  S75  1  0.15364256  0.64122119  0.40936174  1
  S  S76  1  0.15220938  0.22594320  0.33092896  1
  S  S77  1  0.67624568  0.93306926  0.35570242  1
  S  S78  1  0.68248853  0.53102599  0.28879013  1
  S  S79  1  0.16347799  0.83769968  0.38318403  1
  S  S80  1  0.17907124  0.42583986  0.30673729  1
  S  S81  1  0.35291280  0.66403830  0.31694060  1
  S  S82  1  0.35553604  0.06535280  0.38656018  1
  S  S83  1  0.77638002  0.77407646  0.42388422  1
  S  S84  1  0.80237067  0.36063804  0.34862575  1
  S  S85  1  0.66911659  0.53807348  0.40273462  1
  S  S86  1  0.65088666  0.13148215  0.33065417  1
  S  S87  1  0.85874339  0.70090520  0.35269697  1
  S  S88  1  0.83859701  0.10482032  0.41965925  1
  S  S89  1  0.29350026  0.99585791  0.31492465  1
  S  S90  1  0.31236558  0.40092853  0.39099273  1
  S  S91  1  0.14611230  0.02527502  0.47216196  1
  S  S92  1  0.70899033  0.34447442  0.43079765  1
  S  S93  1  0.18675436  0.22666367  0.45062337  1
  S  S94  1  0.39572367  0.47557826  0.46228067  1
  S  S95  1  0.79896742  0.16155858  0.49233686  1
