# generated using pymatgen
data_Na3PS4
_symmetry_space_group_name_H-M   'P 1'
_cell_length_a   7.16981500
_cell_length_b   15.66667701
_cell_length_c   43.86756100
_cell_angle_alpha   90.00000000
_cell_angle_beta   90.00000000
_cell_angle_gamma   90.00193465
_symmetry_Int_Tables_number   1
_chemical_formula_structural   Na3PS4
_chemical_formula_sum   'Na39 P13 S52'
_cell_volume   4927.51923438
_cell_formula_units_Z   13
loop_
 _symmetry_equiv_pos_site_id
 _symmetry_equiv_pos_as_xyz
  1  'x, y, z'
loop_
 _atom_site_type_symbol
 _atom_site_label
 _atom_site_symmetry_multiplicity
 _atom_site_fract_x
 _atom_site_fract_y
 _atom_site_fract_z
 _atom_site_occupancy
  Na  Na0  1  0.54664482  0.13766693  0.08050255  1
  Na  Na1  1  0.07777457  0.13045163  0.08440537  1
  Na  Na2  1  0.13808845  0.74168436  0.01316028  1
  Na  Na3  1  0.97798153  0.94884267  0.03934421  1
  Na  Na4  1  0.98667954  0.35951075  0.11299883  1
  Na  Na5  1  0.48952558  0.68796282  0.07437304  1
  Na  Na6  1  0.55181318  0.47044761  0.05513128  1
  Na  Na7  1  0.41093445  0.85236073  0.11629458  1
  Na  Na8  1  0.91214653  0.84156814  0.10943681  1
  Na  Na9  1  0.57842066  0.93577520  0.22444598  1
  Na  Na10  1  0.59565730  0.54212171  0.14529377  1
  Na  Na11  1  0.07610480  0.93678297  0.22333861  1
  Na  Na12  1  0.09757636  0.54434014  0.14899269  1
  Na  Na13  1  0.99800080  0.74206107  0.18264241  1
  Na  Na14  1  0.99167824  0.14041901  0.25705249  1
  Na  Na15  1  0.49505693  0.03643487  0.15514802  1
  Na  Na16  1  0.49710956  0.44417644  0.21584377  1
  Na  Na17  1  0.40448494  0.23806543  0.18559237  1
  Na  Na18  1  0.41904655  0.64015685  0.25708714  1
  Na  Na19  1  0.91004623  0.23999589  0.18496712  1
  Na  Na20  1  0.91993269  0.64027642  0.25708141  1
  Na  Na21  1  0.59790423  0.73780189  0.36905694  1
  Na  Na22  1  0.57995290  0.34436871  0.28987118  1
  Na  Na23  1  0.09976496  0.73565963  0.36518365  1
  Na  Na24  1  0.07722542  0.34355714  0.29096314  1
  Na  Na25  1  0.99933811  0.53833540  0.33143206  1
  Na  Na26  1  0.98658130  0.92048460  0.40084519  1
  Na  Na27  1  0.49779175  0.83610091  0.29869588  1
  Na  Na28  1  0.49558336  0.24405951  0.35923632  1
  Na  Na29  1  0.40353059  0.04235888  0.32870607  1
  Na  Na30  1  0.41152118  0.42815285  0.39794540  1
  Na  Na31  1  0.90931579  0.04068056  0.32907137  1
  Na  Na32  1  0.91290978  0.43874771  0.40469791  1
  Na  Na33  1  0.54799796  0.14186835  0.43356088  1
  Na  Na34  1  0.13958444  0.53779106  0.50112105  1
  Na  Na35  1  0.07955251  0.14949020  0.42975333  1
  Na  Na36  1  0.97847728  0.33122459  0.47450898  1
  Na  Na37  1  0.49096735  0.59206148  0.43999361  1
  Na  Na38  1  0.55040265  0.80919078  0.45901175  1
  P  P39  1  0.48720906  0.95066917  0.04203382  1
  P  P40  1  0.49406294  0.33545504  0.11408020  1
  P  P41  1  0.01769760  0.63587025  0.07532065  1
  P  P42  1  0.50116979  0.73959331  0.18477621  1
  P  P43  1  0.49006162  0.14015833  0.25720830  1
  P  P44  1  0.99081166  0.03606905  0.15274669  1
  P  P45  1  0.99730261  0.44207124  0.21922824  1
  P  P46  1  0.50275825  0.54061844  0.32949556  1
  P  P47  1  0.49334218  0.94394648  0.39997202  1
  P  P48  1  0.99791759  0.83836910  0.29505056  1
  P  P49  1  0.99139448  0.24412809  0.36155262  1
  P  P50  1  0.48785170  0.32929867  0.47195737  1
  P  P51  1  0.01902225  0.64431570  0.43915569  1
  S  S52  1  0.66521197  0.30885185  0.07717653  1
  S  S53  1  0.64585583  0.92780064  0.00520660  1
  S  S54  1  0.16092043  0.99167653  0.11825845  1
  S  S55  1  0.20864451  0.59258842  0.04308692  1
  S  S56  1  0.31327147  0.23461122  0.12169470  1
  S  S57  1  0.30967947  0.84910552  0.05308861  1
  S  S58  1  0.82386588  0.13234185  0.13555064  1
  S  S59  1  0.85074902  0.72730700  0.05519529  1
  S  S60  1  0.31667433  0.05723422  0.03610378  1
  S  S61  1  0.33978470  0.44323191  0.10508333  1
  S  S62  1  0.85115196  0.53752704  0.09112316  1
  S  S63  1  0.65848268  0.96919224  0.08039387  1
  S  S64  1  0.15974243  0.68806852  0.11206132  1
  S  S65  1  0.65549255  0.11589818  0.21957532  1
  S  S66  1  0.65916040  0.72079829  0.14566266  1
  S  S67  1  0.16845177  0.79490884  0.26032884  1
  S  S68  1  0.15687665  0.39390652  0.18394183  1
  S  S69  1  0.32683247  0.03419609  0.26587027  1
  S  S70  1  0.33820728  0.63327744  0.19263581  1
  S  S71  1  0.82763469  0.93411902  0.27832581  1
  S  S72  1  0.83684680  0.54164810  0.20304168  1
  S  S73  1  0.33340591  0.84559904  0.17896693  1
  S  S74  1  0.32724657  0.24626610  0.24849207  1
  S  S75  1  0.83125403  0.93577010  0.16828774  1
  S  S76  1  0.82802112  0.34587771  0.23587866  1
  S  S77  1  0.67109994  0.75956691  0.22211927  1
  S  S78  1  0.65386247  0.35783811  0.15244889  1
  S  S79  1  0.15193063  0.08472050  0.18776389  1
  S  S80  1  0.16720365  0.48598310  0.25398201  1
  S  S81  1  0.65315773  0.92209621  0.36157460  1
  S  S82  1  0.67221049  0.52049943  0.29212306  1
  S  S83  1  0.16114562  0.59213259  0.40242960  1
  S  S84  1  0.15240877  0.19553970  0.32652555  1
  S  S85  1  0.33945718  0.83602038  0.40890565  1
  S  S86  1  0.33496131  0.43460298  0.33537468  1
  S  S87  1  0.85260137  0.74266244  0.42335661  1
  S  S88  1  0.83172128  0.34437289  0.34600407  1
  S  S89  1  0.33968311  0.64684659  0.32156276  1
  S  S90  1  0.31268082  0.04482690  0.39246981  1
  S  S91  1  0.83831961  0.73846265  0.31122650  1
  S  S92  1  0.82467652  0.14771845  0.37872852  1
  S  S93  1  0.66099496  0.55944142  0.36856695  1
  S  S94  1  0.65571236  0.16440770  0.29480581  1
  S  S95  1  0.15645241  0.88691437  0.33038118  1
  S  S96  1  0.16175025  0.28852330  0.39600498  1
  S  S97  1  0.65875689  0.31073707  0.43355905  1
  S  S98  1  0.31816258  0.22250646  0.47795450  1
  S  S99  1  0.31010949  0.43073227  0.46093883  1
  S  S100  1  0.85205076  0.55271386  0.45920750  1
  S  S101  1  0.64653234  0.35253297  0.50874810  1
  S  S102  1  0.66482162  0.97042858  0.43682538  1
  S  S103  1  0.20996189  0.68744205  0.47144108  1
