# generated using pymatgen
data_Na24Zr16Si14(P2O29)3
_symmetry_space_group_name_H-M   'P 1'
_cell_length_a   9.15937100
_cell_length_b   24.11698144
_cell_length_c   43.78738300
_cell_angle_alpha   90.00000000
_cell_angle_beta   90.00000000
_cell_angle_gamma   67.67936926
_symmetry_Int_Tables_number   1
_chemical_formula_structural   Na24Zr16Si14(P2O29)3
_chemical_formula_sum   'Na48 Zr32 Si28 P12 O174'
_cell_volume   8947.74517401
_cell_formula_units_Z   2
loop_
 _symmetry_equiv_pos_site_id
 _symmetry_equiv_pos_as_xyz
  1  'x, y, z'
loop_
 _atom_site_type_symbol
 _atom_site_label
 _atom_site_symmetry_multiplicity
 _atom_site_fract_x
 _atom_site_fract_y
 _atom_site_fract_z
 _atom_site_occupancy
  Na  Na0  1  0.01585224  0.86442259  0.08733639  1
  Na  Na1  1  0.91430541  0.28243691  0.04053449  1
  Na  Na2  1  0.59734509  0.48577043  0.01768210  1
  Na  Na3  1  0.52334412  0.07343917  0.08191143  1
  Na  Na4  1  0.35986665  0.56878407  0.09145725  1
  Na  Na5  1  0.38121571  0.84783680  0.02907363  1
  Na  Na6  1  0.46038280  0.64561749  0.02579629  1
  Na  Na7  1  0.16300110  0.46956809  0.09321769  1
  Na  Na8  1  0.91011015  0.58244077  0.01027060  1
  Na  Na9  1  0.86264389  0.24092601  0.10653839  1
  Na  Na10  1  0.66125668  0.71502372  0.07793286  1
  Na  Na11  1  0.76862910  0.08604419  0.01858773  1
  Na  Na12  1  0.67336004  0.22822603  0.20569851  1
  Na  Na13  1  0.76734522  0.58934617  0.15166541  1
  Na  Na14  1  0.38690094  0.72729009  0.14773360  1
  Na  Na15  1  0.18348399  0.41797378  0.22274062  1
  Na  Na16  1  0.97628681  0.92742301  0.22188178  1
  Na  Na17  1  0.15510644  0.25839617  0.16077560  1
  Na  Na18  1  0.05324563  0.07572053  0.15125214  1
  Na  Na19  1  0.88193391  0.75756030  0.21171213  1
  Na  Na20  1  0.69538803  0.90353124  0.14810673  1
  Na  Na21  1  0.53508395  0.57321413  0.21701089  1
  Na  Na22  1  0.31076584  0.07463938  0.21618361  1
  Na  Na23  1  0.49080586  0.40252301  0.15710954  1
  Na  Na24  1  0.29632494  0.58984027  0.34300172  1
  Na  Na25  1  0.49818323  0.89965620  0.26809444  1
  Na  Na26  1  0.00818627  0.08935055  0.28500601  1
  Na  Na27  1  0.91443703  0.72789878  0.33909794  1
  Na  Na28  1  0.62865938  0.24081721  0.33927560  1
  Na  Na29  1  0.80069041  0.55966953  0.27901089  1
  Na  Na30  1  0.70635254  0.38975910  0.26889548  1
  Na  Na31  1  0.52738143  0.05881313  0.32989285  1
  Na  Na32  1  0.37116109  0.24271395  0.27427080  1
  Na  Na33  1  0.19180812  0.91473194  0.33366087  1
  Na  Na34  1  0.98750488  0.41367397  0.34262032  1
  Na  Na35  1  0.14703228  0.74412680  0.27383200  1
  Na  Na36  1  0.08526609  0.83142178  0.47299846  1
  Na  Na37  1  0.16085679  0.24333905  0.40871565  1
  Na  Na38  1  0.66747599  0.45259112  0.40347911  1
  Na  Na39  1  0.76874191  0.03478722  0.45020008  1
  Na  Na40  1  0.22233881  0.67150695  0.46472923  1
  Na  Na41  1  0.51892923  0.84765771  0.39762872  1
  Na  Na42  1  0.32236975  0.74784629  0.39914967  1
  Na  Na43  1  0.30225987  0.46930561  0.46166267  1
  Na  Na44  1  0.02250419  0.60216788  0.41261469  1
  Na  Na45  1  0.91516545  0.23107686  0.47211471  1
  Na  Na46  1  0.77331109  0.73456014  0.48060624  1
  Na  Na47  1  0.82037104  0.07617490  0.38418063  1
  Zr  Zr48  1  0.04037814  0.68826997  0.04357401  1
  Zr  Zr49  1  0.89280222  0.37155383  0.09863361  1
  Zr  Zr50  1  0.70667920  0.57651975  0.07217563  1
  Zr  Zr51  1  0.81213482  0.95443786  0.03619520  1
  Zr  Zr52  1  0.37106267  0.39428081  0.02503333  1
  Zr  Zr53  1  0.07865927  0.11828970  0.07582432  1
  Zr  Zr54  1  0.37553463  0.87207324  0.09789395  1
  Zr  Zr55  1  0.62909180  0.21138187  0.04896956  1
  Zr  Zr56  1  0.69436701  0.03682064  0.16196661  1
  Zr  Zr57  1  0.53831910  0.70527323  0.22444186  1
  Zr  Zr58  1  0.31066147  0.94072638  0.19847782  1
  Zr  Zr59  1  0.47921777  0.26899452  0.13802176  1
  Zr  Zr60  1  0.96579051  0.76741123  0.13717620  1
  Zr  Zr61  1  0.80294075  0.44094633  0.20307247  1
  Zr  Zr62  1  0.05037868  0.20759202  0.22617142  1
  Zr  Zr63  1  0.22829823  0.53290557  0.16483530  1
  Zr  Zr64  1  0.37187421  0.37639800  0.29235437  1
  Zr  Zr65  1  0.20332574  0.04822960  0.35264897  1
  Zr  Zr66  1  0.98803843  0.28055366  0.32882772  1
  Zr  Zr67  1  0.14429486  0.61204616  0.26640147  1
  Zr  Zr68  1  0.63153390  0.10980543  0.26456946  1
  Zr  Zr69  1  0.45432049  0.78431480  0.32604253  1
  Zr  Zr70  1  0.71723466  0.54961442  0.35353742  1
  Zr  Zr71  1  0.87927846  0.87639628  0.28766746  1
  Zr  Zr72  1  0.97495328  0.74094200  0.41860230  1
  Zr  Zr73  1  0.87283408  0.36239568  0.45438101  1
  Zr  Zr74  1  0.64359237  0.62864440  0.44726007  1
  Zr  Zr75  1  0.78966644  0.94579194  0.39215740  1
  Zr  Zr76  1  0.30785436  0.44505846  0.39288691  1
  Zr  Zr77  1  0.05416938  0.10575999  0.44165089  1
  Zr  Zr78  1  0.31144180  0.92298571  0.46582074  1
  Zr  Zr79  1  0.60465117  0.19888697  0.41484098  1
  Si  Si80  1  0.75424886  0.82474966  0.06750162  1
  Si  Si81  1  0.74089899  0.13691718  0.10551204  1
  Si  Si82  1  0.94695594  0.45709106  0.03930236  1
  Si  Si83  1  0.07576949  0.97828772  0.05071592  1
  Si  Si84  1  0.98521483  0.62570527  0.10679656  1
  Si  Si85  1  0.55053072  0.35043130  0.07758985  1
  Si  Si86  1  0.61723230  0.50229481  0.13615926  1
  Si  Si87  1  0.44168261  0.16778676  0.19742495  1
  Si  Si88  1  0.41490422  0.47749420  0.23351608  1
  Si  Si89  1  0.57210586  0.80602886  0.16465767  1
  Si  Si90  1  0.80520781  0.30914685  0.16795205  1
  Si  Si91  1  0.62657189  0.97734229  0.22922530  1
  Si  Si92  1  0.21691492  0.67120912  0.19701315  1
  Si  Si93  1  0.37543663  0.00534989  0.12986512  1
  Si  Si94  1  0.26766703  0.83974129  0.25745391  1
  Si  Si95  1  0.11080909  0.51117821  0.32619071  1
  Si  Si96  1  0.06466648  0.81497901  0.35459333  1
  Si  Si97  1  0.24012421  0.14975334  0.29337440  1
  Si  Si98  1  0.46564737  0.64608519  0.29382486  1
  Si  Si99  1  0.30721467  0.31186464  0.36096183  1
  Si  Si100  1  0.87721704  0.00809166  0.32273693  1
  Si  Si101  1  0.05557286  0.34020166  0.26153188  1
  Si  Si102  1  0.94208517  0.18015855  0.38513269  1
  Si  Si103  1  0.73537814  0.86025409  0.45159168  1
  Si  Si104  1  0.92934819  0.49219607  0.42308234  1
  Si  Si105  1  0.13303081  0.96662978  0.41311119  1
  Si  Si106  1  0.60896428  0.33874914  0.43987133  1
  Si  Si107  1  0.69729533  0.69128896  0.38401290  1
  P  P108  1  0.25102451  0.23100287  0.08330310  1
  P  P109  1  0.28707284  0.74250610  0.08078917  1
  P  P110  1  0.04487406  0.90622541  0.14937184  1
  P  P111  1  0.89057819  0.57195121  0.21525036  1
  P  P112  1  0.96058133  0.07412257  0.21328985  1
  P  P113  1  0.14322062  0.39889711  0.15153809  1
  P  P114  1  0.72161386  0.24311562  0.27744017  1
  P  P115  1  0.53919991  0.91839373  0.33921225  1
  P  P116  1  0.63798864  0.41099663  0.34134094  1
  P  P117  1  0.79189448  0.74541681  0.27549579  1
  P  P118  1  0.39662967  0.57462198  0.40999352  1
  P  P119  1  0.43213170  0.08622627  0.40733776  1
  O  O120  1  0.82404134  0.82383141  0.10210214  1
  O  O121  1  0.89518443  0.18878360  0.05771471  1
  O  O122  1  0.84049020  0.48997419  0.01085830  1
  O  O123  1  0.69268054  0.12680230  0.07061025  1
  O  O124  1  0.07557933  0.62150139  0.07355028  1
  O  O125  1  0.00212228  0.96916625  0.01665882  1
  O  O126  1  0.70338070  0.63767342  0.04258901  1
  O  O127  1  0.47090677  0.33452744  0.10761096  1
  O  O128  1  0.22994863  0.71737282  0.05147550  1
  O  O129  1  0.06861130  0.39300361  0.12064970  1
  O  O130  1  0.53078858  0.56181050  0.05365600  1
  O  O131  1  0.31144738  0.23682216  0.11619392  1
  O  O132  1  0.15844732  0.75837202  0.10630207  1
  O  O133  1  0.63200190  0.02322099  0.03408956  1
  O  O134  1  0.16068620  0.89417028  0.12194509  1
  O  O135  1  0.37793600  0.22941212  0.05982142  1
  O  O136  1  0.08822608  0.28277694  0.07870630  1
  O  O137  1  0.44091962  0.69676018  0.09291964  1
  O  O138  1  0.44946973  0.43365505  0.99837496  1
  O  O139  1  0.22270721  0.17016030  0.08060751  1
  O  O140  1  0.29901610  0.80306753  0.07085826  1
  O  O141  1  0.83464398  0.75867015  0.05113023  1
  O  O142  1  0.72294951  0.43856978  0.11898104  1
  O  O143  1  0.92525187  0.50703390  0.06717558  1
  O  O144  1  0.65062038  0.20993630  0.11101069  1
  O  O145  1  0.96454751  0.69108795  0.12177159  1
  O  O146  1  0.07462473  0.04687274  0.05226672  1
  O  O147  1  0.42607505  0.93784559  0.11459015  1
  O  O148  1  0.54190490  0.31044765  0.04610645  1
  O  O149  1  0.73890669  0.33369450  0.08150133  1
  O  O150  1  0.05140502  0.65238787  0.00656364  1
  O  O151  1  0.93345517  0.96865894  0.07185741  1
  O  O152  1  0.81146020  0.62363837  0.10518422  1
  O  O153  1  0.93019355  0.12570908  0.11064495  1
  O  O154  1  0.13999627  0.42809352  0.03136316  1
  O  O155  1  0.64693872  0.18502453  0.00998081  1
  O  O156  1  0.56378070  0.83939964  0.06757994  1
  O  O157  1  0.90592694  0.40228088  0.05632257  1
  O  O158  1  0.61470268  0.56005287  0.11711553  1
  O  O159  1  0.79952145  0.87460253  0.04789671  1
  O  O160  1  0.43784366  0.41844739  0.06614175  1
  O  O161  1  0.25820765  0.05838792  0.10767227  1
  O  O162  1  0.24355509  0.92546918  0.05975470  1
  O  O163  1  0.51746209  0.17396771  0.23078476  1
  O  O164  1  0.69036356  0.50449118  0.17058594  1
  O  O165  1  0.49170941  0.80717869  0.13079275  1
  O  O166  1  0.33852726  0.47173808  0.20037185  1
  O  O167  1  0.71727013  0.97263226  0.19661343  1
  O  O168  1  0.90648713  0.30907277  0.13710839  1
  O  O169  1  0.29253347  0.00342670  0.16335122  1
  O  O170  1  0.13242550  0.67565621  0.23060909  1
  O  O171  1  0.86828117  0.06440542  0.18565017  1
  O  O172  1  0.71526336  0.72905279  0.24708511  1
  O  O173  1  0.13012497  0.91386362  0.17863427  1
  O  O174  1  0.96761234  0.58823358  0.24362895  1
  O  O175  1  0.85661448  0.08964576  0.24236869  1
  O  O176  1  0.02434751  0.41511885  0.17834140  1
  O  O177  1  0.82492155  0.22768336  0.24827228  1
  O  O178  1  0.00122873  0.55489475  0.18729994  1
  O  O179  1  0.89660152  0.96325924  0.14348230  1
  O  O180  1  0.73671095  0.62500487  0.20577016  1
  O  O181  1  0.10835615  0.01639589  0.21948295  1
  O  O182  1  0.27723495  0.33775075  0.15978728  1
  O  O183  1  0.99193543  0.85242912  0.15214484  1
  O  O184  1  0.84725787  0.51783721  0.22504421  1
  O  O185  1  0.01492284  0.12635833  0.20531392  1
  O  O186  1  0.21233463  0.44755939  0.14728209  1
  O  O187  1  0.51648237  0.09893797  0.18510891  1
  O  O188  1  0.35835502  0.77127846  0.24433122  1
  O  O189  1  0.48993954  0.87382588  0.17938147  1
  O  O190  1  0.32461020  0.54592582  0.24667843  1
  O  O191  1  0.58737598  0.04324390  0.24510239  1
  O  O192  1  0.74525783  0.37514735  0.18450465  1
  O  O193  1  0.09384577  0.27441385  0.24555034  1
  O  O194  1  0.25111815  0.60522251  0.18170104  1
  O  O195  1  0.39309341  0.67463845  0.19967522  1
  O  O196  1  0.54695712  0.01106783  0.13538604  1
  O  O197  1  0.64596960  0.29368656  0.16163797  1
  O  O198  1  0.45654817  0.96953074  0.22500559  1
  O  O199  1  0.60336555  0.46677689  0.23054222  1
  O  O200  1  0.76241132  0.79357113  0.16301317  1
  O  O201  1  0.43681565  0.50323377  0.14031632  1
  O  O202  1  0.25073071  0.18385418  0.20005973  1
  O  O203  1  0.69405319  0.09504590  0.12861828  1
  O  O204  1  0.54972090  0.75395667  0.18595414  1
  O  O205  1  0.28759296  0.89080900  0.23518912  1
  O  O206  1  0.47533817  0.21527858  0.17432071  1
  O  O207  1  0.10586453  0.72617649  0.17479999  1
  O  O208  1  0.94011746  0.39267194  0.23896474  1
  O  O209  1  0.92046078  0.25598755  0.19023019  1
  O  O210  1  0.11017277  0.56854156  0.12558618  1
  O  O211  1  0.19122991  0.51013396  0.36005189  1
  O  O212  1  0.34370895  0.84567911  0.29059237  1
  O  O213  1  0.16403872  0.14363116  0.26003890  1
  O  O214  1  0.99139101  0.81281027  0.32017511  1
  O  O215  1  0.38994826  0.31375862  0.32746788  1
  O  O216  1  0.55030995  0.64162656  0.26024360  1
  O  O217  1  0.96528863  0.34477492  0.29417979  1
  O  O218  1  0.77594420  0.00823372  0.35359043  1
  O  O219  1  0.55264098  0.40315945  0.31213739  1
  O  O220  1  0.37148635  0.08028947  0.37448480  1
  O  O221  1  0.81425641  0.25296257  0.30498682  1
  O  O222  1  0.61340752  0.92478952  0.37004341  1
  O  O223  1  0.52243321  0.42321534  0.36880524  1
  O  O224  1  0.68102132  0.76242957  0.30342167  1
  O  O225  1  0.52564004  0.55836452  0.38455295  1
  O  O226  1  0.65794845  0.90226636  0.31237805  1
  O  O227  1  0.57343244  0.30071429  0.27129795  1
  O  O228  1  0.40450752  0.97931062  0.33081169  1
  O  O229  1  0.78624696  0.35400056  0.34732656  1
  O  O230  1  0.94572452  0.69237642  0.28502208  1
  O  O231  1  0.66768449  0.19080035  0.28552725  1
  O  O232  1  0.47119776  0.86944551  0.34363554  1
  O  O233  1  0.69095885  0.46476085  0.33841164  1
  O  O234  1  0.83500377  0.79955723  0.26567855  1
  O  O235  1  0.19302001  0.44332912  0.31154351  1
  O  O236  1  0.03236753  0.10711274  0.37979594  1
  O  O237  1  0.16616006  0.21866964  0.30559638  1
  O  O238  1  0.95912126  0.87873629  0.37175741  1
  O  O239  1  0.25717954  0.37930308  0.37625565  1
  O  O240  1  0.43164865  0.71201107  0.30917245  1
  O  O241  1  0.71798289  0.62599961  0.36893877  1
  O  O242  1  0.93770331  0.94204932  0.30621030  1
  O  O243  1  0.03615298  0.02375399  0.32906480  1
  O  O244  1  0.22577097  0.34785775  0.26568700  1
  O  O245  1  0.28927201  0.64282755  0.29113009  1
  O  O246  1  0.13547607  0.30623387  0.35550622  1
  O  O247  1  0.24532997  0.81386657  0.35045714  1
  O  O248  1  0.43123089  0.13340843  0.29069402  1
  O  O249  1  0.07923140  0.85033884  0.26030924  1
  O  O250  1  0.92042038  0.52373902  0.32771886  1
  O  O251  1  0.39498321  0.42634147  0.25569589  1
  O  O252  1  0.20628626  0.10234628  0.31650110  1
  O  O253  1  0.98920059  0.22182743  0.36193917  1
  O  O254  1  0.13332388  0.56318024  0.30484341  1
  O  O255  1  0.76177380  0.06113225  0.30039526  1
  O  O256  1  0.57234727  0.74849532  0.36525141  1
  O  O257  1  0.57638382  0.59100372  0.31600893  1
  O  O258  1  0.74205974  0.92500085  0.25185430  1
  O  O259  1  0.84242748  0.82723283  0.47995557  1
  O  O260  1  0.99053478  0.19037752  0.42001205  1
  O  O261  1  0.85998575  0.49284283  0.38846687  1
  O  O262  1  0.78797294  0.12837504  0.43295504  1
  O  O263  1  0.97922043  0.67948312  0.44807792  1
  O  O264  1  0.21231649  0.98252674  0.38304199  1
  O  O265  1  0.60695232  0.69542935  0.41725551  1
  O  O266  1  0.68309790  0.34762316  0.47393132  1
  O  O267  1  0.15120717  0.75555509  0.43700000  1
  O  O268  1  0.45374339  0.59970849  0.43933214  1
  O  O269  1  0.30538308  0.08791761  0.43087804  1
  O  O270  1  0.05320419  0.29369748  0.45654047  1
  O  O271  1  0.24329169  0.62055216  0.39775863  1
  O  O272  1  0.59488668  0.03442152  0.41197986  1
  O  O273  1  0.38354693  0.51429165  0.41995556  1
  O  O274  1  0.23240803  0.88358994  0.49235338  1
  O  O275  1  0.46084285  0.14697715  0.40994355  1
  O  O276  1  0.75623524  0.81032306  0.42374300  1
  O  O277  1  0.84908592  0.55844269  0.43927767  1
  O  O278  1  0.14139499  0.00672768  0.44456392  1
  O  O279  1  0.60951545  0.27026338  0.43827750  1
  O  O280  1  0.75147467  0.34815749  0.41872336  1
  O  O281  1  0.87099472  0.69341424  0.38560889  1
  O  O282  1  0.94463620  0.98326918  0.40921558  1
  O  O283  1  0.63368290  0.66423235  0.48432489  1
  O  O284  1  0.03643888  0.13204061  0.48065371  1
  O  O285  1  0.11992476  0.47732670  0.42320992  1
  O  O286  1  0.75276347  0.19140636  0.37996195  1
  O  O287  1  0.54263059  0.88937818  0.45973938  1
  O  O288  1  0.06666171  0.75730263  0.37365377  1
  O  O289  1  0.88343909  0.44264280  0.44281333  1
  O  O290  1  0.77641765  0.91495898  0.43444859  1
  O  O291  1  0.44129727  0.39178249  0.43096671  1
  O  O292  1  0.24597105  0.89870024  0.42460396  1
  O  O293  1  0.42437030  0.25876730  0.38312466  1
