# generated using pymatgen
data_Na24Zr16Si12P6O83
_symmetry_space_group_name_H-M   'P 1'
_cell_length_a   9.15937100
_cell_length_b   24.11698144
_cell_length_c   43.78738300
_cell_angle_alpha   90.00000000
_cell_angle_beta   90.00000000
_cell_angle_gamma   67.67936926
_symmetry_Int_Tables_number   1
_chemical_formula_structural   Na24Zr16Si12P6O83
_chemical_formula_sum   'Na48 Zr32 Si24 P12 O166'
_cell_volume   8947.74517401
_cell_formula_units_Z   2
loop_
 _symmetry_equiv_pos_site_id
 _symmetry_equiv_pos_as_xyz
  1  'x, y, z'
loop_
 _atom_site_type_symbol
 _atom_site_label
 _atom_site_symmetry_multiplicity
 _atom_site_fract_x
 _atom_site_fract_y
 _atom_site_fract_z
 _atom_site_occupancy
  Na  Na0  1  0.08521834  0.91802297  0.05481762  1
  Na  Na1  1  0.94992253  0.22597020  0.02562758  1
  Na  Na2  1  0.74996441  0.45410330  0.03693319  1
  Na  Na3  1  0.53591983  0.04435110  0.07057666  1
  Na  Na4  1  0.34366975  0.51789168  0.07301651  1
  Na  Na5  1  0.39241738  0.93716282  0.04221232  1
  Na  Na6  1  0.50398836  0.75335033  0.03032103  1
  Na  Na7  1  0.19543912  0.37252124  0.05217302  1
  Na  Na8  1  0.99161760  0.54205378  0.01325991  1
  Na  Na9  1  0.88899435  0.19934153  0.09157747  1
  Na  Na10  1  0.70352232  0.69921086  0.09889661  1
  Na  Na11  1  0.93121350  0.03013465  0.01004164  1
  Na  Na12  1  0.68450199  0.20553219  0.19462243  1
  Na  Na13  1  0.92105374  0.50002347  0.12711002  1
  Na  Na14  1  0.34280234  0.73060303  0.15066820  1
  Na  Na15  1  0.23676156  0.37549757  0.20606288  1
  Na  Na16  1  0.02097460  0.89491389  0.21097886  1
  Na  Na17  1  0.20106394  0.21533644  0.14516014  1
  Na  Na18  1  0.10781051  0.05213835  0.14237597  1
  Na  Na19  1  0.90653399  0.68329960  0.18863814  1
  Na  Na20  1  0.75222182  0.86888165  0.14871382  1
  Na  Na21  1  0.58593440  0.53601255  0.19123412  1
  Na  Na22  1  0.35147952  0.04203125  0.21099186  1
  Na  Na23  1  0.52956504  0.35974921  0.12326193  1
  Na  Na24  1  0.38337190  0.53258831  0.31971182  1
  Na  Na25  1  0.56278479  0.85295330  0.25381482  1
  Na  Na26  1  0.02567157  0.06441959  0.27627909  1
  Na  Na27  1  0.96512639  0.69536567  0.32238875  1
  Na  Na28  1  0.67363332  0.24776510  0.33781468  1
  Na  Na29  1  0.84777785  0.54186041  0.27017010  1
  Na  Na30  1  0.74005554  0.37213299  0.25885002  1
  Na  Na31  1  0.55655231  0.01675356  0.31417586  1
  Na  Na32  1  0.41037834  0.21170334  0.27390334  1
  Na  Na33  1  0.24249193  0.87878102  0.31601756  1
  Na  Na34  1  0.00179738  0.38786577  0.34157777  1
  Na  Na35  1  0.18789761  0.70579318  0.25396911  1
  Na  Na36  1  0.02021725  0.81040038  0.42249563  1
  Na  Na37  1  0.13186204  0.22974300  0.39186887  1
  Na  Na38  1  0.69384055  0.37496693  0.41242158  1
  Na  Na39  1  0.76367282  0.99442263  0.43459434  1
  Na  Na40  1  0.15367021  0.52205910  0.43924124  1
  Na  Na41  1  0.67399715  0.82984687  0.41007561  1
  Na  Na42  1  0.37682158  0.70324505  0.39400370  1
  Na  Na43  1  0.41128897  0.29374797  0.42796183  1
  Na  Na44  1  0.04009682  0.54825445  0.37337172  1
  Na  Na45  1  0.82823355  0.20556039  0.45150118  1
  Na  Na46  1  0.74383732  0.71765764  0.45464097  1
  Na  Na47  1  0.85371039  0.04858073  0.36583825  1
  Zr  Zr48  1  0.07164283  0.65680060  0.02872039  1
  Zr  Zr49  1  0.93522427  0.32641399  0.08137427  1
  Zr  Zr50  1  0.65972429  0.57752842  0.07039845  1
  Zr  Zr51  1  0.74049410  0.91982274  0.01118940  1
  Zr  Zr52  1  0.40848670  0.42763309  0.01091749  1
  Zr  Zr53  1  0.12718246  0.07583781  0.06449000  1
  Zr  Zr54  1  0.41876128  0.83566037  0.08880203  1
  Zr  Zr55  1  0.68996451  0.15268064  0.03102188  1
  Zr  Zr56  1  0.73125817  0.00105868  0.15207596  1
  Zr  Zr57  1  0.57732217  0.66894746  0.21237679  1
  Zr  Zr58  1  0.34876223  0.90697701  0.18699744  1
  Zr  Zr59  1  0.52061761  0.22875145  0.12110220  1
  Zr  Zr60  1  0.01680087  0.73516443  0.12079315  1
  Zr  Zr61  1  0.84476634  0.40140315  0.18695127  1
  Zr  Zr62  1  0.08136818  0.17313978  0.21414975  1
  Zr  Zr63  1  0.27078775  0.49623923  0.14897809  1
  Zr  Zr64  1  0.40006043  0.34631157  0.27791945  1
  Zr  Zr65  1  0.23976567  0.01231227  0.34415444  1
  Zr  Zr66  1  0.01569691  0.25140281  0.31596177  1
  Zr  Zr67  1  0.17986071  0.57459864  0.25078915  1
  Zr  Zr68  1  0.66777708  0.07883111  0.25253534  1
  Zr  Zr69  1  0.48599424  0.74661294  0.31268790  1
  Zr  Zr70  1  0.73070627  0.51878303  0.34368327  1
  Zr  Zr71  1  0.91470998  0.84081045  0.27772428  1
  Zr  Zr72  1  0.03068742  0.67196524  0.40016794  1
  Zr  Zr73  1  0.01611581  0.32006297  0.45383858  1
  Zr  Zr74  1  0.74693713  0.59519173  0.43371487  1
  Zr  Zr75  1  0.84278367  0.91206922  0.37605712  1
  Zr  Zr76  1  0.34061258  0.42137673  0.38349856  1
  Zr  Zr77  1  0.13746912  0.09059557  0.43635247  1
  Zr  Zr78  1  0.33267905  0.82760619  0.45359766  1
  Zr  Zr79  1  0.56709790  0.17022053  0.39449658  1
  Si  Si80  1  0.66022614  0.45445063  0.11777924  1
  Si  Si81  1  0.80076458  0.78473850  0.05417540  1
  Si  Si82  1  0.78763169  0.09065344  0.09347309  1
  Si  Si83  1  0.00819803  0.59510071  0.09240898  1
  Si  Si84  1  0.60748317  0.29302716  0.05335589  1
  Si  Si85  1  0.41713780  0.96947186  0.11880963  1
  Si  Si86  1  0.30438490  0.80394932  0.24477411  1
  Si  Si87  1  0.47632973  0.13420581  0.18491382  1
  Si  Si88  1  0.45312894  0.44149481  0.21736286  1
  Si  Si89  1  0.61392020  0.77363611  0.15419945  1
  Si  Si90  1  0.84658185  0.26802430  0.15266511  1
  Si  Si91  1  0.66432072  0.94392257  0.22002917  1
  Si  Si92  1  0.25882781  0.63316302  0.18163237  1
  Si  Si93  1  0.08836207  0.30624680  0.24757889  1
  Si  Si94  1  0.95097433  0.15234457  0.37241737  1
  Si  Si95  1  0.13490176  0.47975542  0.31222082  1
  Si  Si96  1  0.10837823  0.77825851  0.34582822  1
  Si  Si97  1  0.27779103  0.11441648  0.28335542  1
  Si  Si98  1  0.49686866  0.61348114  0.27994771  1
  Si  Si99  1  0.32175142  0.29325805  0.34704815  1
  Si  Si100  1  0.91374771  0.97400094  0.31062546  1
  Si  Si101  1  0.72102275  0.65689213  0.37124800  1
  Si  Si102  1  0.94587718  0.45471928  0.41151977  1
  Si  Si103  1  0.12240191  0.96287970  0.41077547  1
  P  P104  1  0.29714063  0.19099154  0.06635729  1
  P  P105  1  0.34849798  0.67096907  0.07166754  1
  P  P106  1  0.08785037  0.87013708  0.13587403  1
  P  P107  1  0.92568309  0.53746460  0.19848670  1
  P  P108  1  0.00004474  0.03786803  0.20169172  1
  P  P109  1  0.18118673  0.36368699  0.13511386  1
  P  P110  1  0.75290779  0.21028510  0.26640599  1
  P  P111  1  0.58111250  0.87723325  0.32910824  1
  P  P112  1  0.66140563  0.38395422  0.32980457  1
  P  P113  1  0.82807709  0.70987333  0.26311818  1
  P  P114  1  0.43082409  0.55684485  0.39828522  1
  P  P115  1  0.44256475  0.07685234  0.39335544  1
  O  O116  1  0.92614056  0.77984887  0.08162172  1
  O  O117  1  0.93484037  0.14036622  0.04474462  1
  O  O118  1  0.50314784  0.77059662  0.12516017  1
  O  O119  1  0.74373086  0.07609251  0.05908946  1
  O  O120  1  0.06655942  0.58948669  0.05655905  1
  O  O121  1  0.95725555  0.26125965  0.12262198  1
  O  O122  1  0.74947391  0.55034797  0.03286198  1
  O  O123  1  0.51703239  0.28571140  0.08479247  1
  O  O124  1  0.25274212  0.68784146  0.04141849  1
  O  O125  1  0.09650165  0.35732944  0.10578573  1
  O  O126  1  0.35046984  0.19974391  0.09968802  1
  O  O127  1  0.25632423  0.70746725  0.09909122  1
  O  O128  1  0.18336420  0.86673984  0.10635923  1
  O  O129  1  0.43126907  0.18358020  0.04368492  1
  O  O130  1  0.08018823  0.61837134  0.99269081  1
  O  O131  1  0.13919224  0.24487786  0.05983720  1
  O  O132  1  0.40395987  0.60197992  0.07685163  1
  O  O133  1  0.56808689  0.97784308  0.02971002  1
  O  O134  1  0.48424739  0.48100866  0.02882718  1
  O  O135  1  0.26193489  0.13228832  0.06529685  1
  O  O136  1  0.51119654  0.67831700  0.06707685  1
  O  O137  1  0.73276938  0.11588200  0.99377450  1
  O  O138  1  0.86217680  0.72549353  0.03137242  1
  O  O139  1  0.74007444  0.38717756  0.10393972  1
  O  O140  1  0.69499971  0.16325596  0.09962741  1
  O  O141  1  0.98912594  0.66133690  0.10445991  1
  O  O142  1  0.15406953  0.00870793  0.03970745  1
  O  O143  1  0.45121127  0.91054230  0.09634235  1
  O  O144  1  0.64520057  0.24295436  0.02654319  1
  O  O145  1  0.78335798  0.29052922  0.06280627  1
  O  O146  1  0.59162694  0.96644009  0.12907087  1
  O  O147  1  0.91633744  0.93920168  0.01551549  1
  O  O148  1  0.82904118  0.59394849  0.09498355  1
  O  O149  1  0.97483383  0.07761189  0.09947062  1
  O  O150  1  0.19479635  0.45329495  0.01957108  1
  O  O151  1  0.46973232  0.46940211  0.12165633  1
  O  O152  1  0.63888869  0.78410478  0.06949864  1
  O  O153  1  0.72582173  0.05239445  0.11650713  1
  O  O154  1  0.95076392  0.37127717  0.04737195  1
  O  O155  1  0.69168983  0.50126930  0.09352764  1
  O  O156  1  0.76676692  0.84335940  0.03220796  1
  O  O157  1  0.48933084  0.35664898  0.03772700  1
  O  O158  1  0.31171591  0.02883462  0.09943021  1
  O  O159  1  0.33702196  0.84535492  0.04842791  1
  O  O160  1  0.13229688  0.53890849  0.11109401  1
  O  O161  1  0.56019895  0.13986161  0.21753462  1
  O  O162  1  0.73829634  0.46186378  0.15066511  1
  O  O163  1  0.19225540  0.11190028  0.25061398  1
  O  O164  1  0.36944552  0.43768925  0.18470057  1
  O  O165  1  0.76408190  0.93811735  0.18849842  1
  O  O166  1  0.59167352  0.60775554  0.24726638  1
  O  O167  1  0.32413105  0.96389778  0.15040313  1
  O  O168  1  0.16832116  0.63586957  0.21439206  1
  O  O169  1  0.90814541  0.03077593  0.17340928  1
  O  O170  1  0.75540335  0.69341730  0.23437292  1
  O  O171  1  0.18180179  0.87504084  0.16450536  1
  O  O172  1  0.00356535  0.55073473  0.22755841  1
  O  O173  1  0.89478108  0.05427724  0.23049911  1
  O  O174  1  0.07140894  0.37669315  0.16358277  1
  O  O175  1  0.85741547  0.19686511  0.23734708  1
  O  O176  1  0.03935912  0.52407897  0.17078052  1
  O  O177  1  0.92801887  0.92268235  0.13376390  1
  O  O178  1  0.77466227  0.59351494  0.19110274  1
  O  O179  1  0.14286149  0.97806002  0.20770041  1
  O  O180  1  0.32736393  0.30551528  0.14131404  1
  O  O181  1  0.05826840  0.81038470  0.13941204  1
  O  O182  1  0.87931370  0.48313862  0.20468144  1
  O  O183  1  0.06552019  0.08759752  0.19499881  1
  O  O184  1  0.23396205  0.41713670  0.13044554  1
  O  O185  1  0.55129002  0.06439259  0.17372375  1
  O  O186  1  0.38991351  0.73716012  0.22933013  1
  O  O187  1  0.54394481  0.84107215  0.16893070  1
  O  O188  1  0.35946688  0.50744218  0.23256623  1
  O  O189  1  0.61682355  0.01060751  0.23557850  1
  O  O190  1  0.79982234  0.33397042  0.16918058  1
  O  O191  1  0.12655426  0.24022973  0.23245447  1
  O  O192  1  0.31049714  0.56580432  0.16660718  1
  O  O193  1  0.42541202  0.64386281  0.18596602  1
  O  O194  1  0.25694549  0.31485092  0.25231461  1
  O  O195  1  0.68084299  0.25820318  0.14438473  1
  O  O196  1  0.49621681  0.93483481  0.21391016  1
  O  O197  1  0.63884741  0.43292862  0.21257342  1
  O  O198  1  0.79851825  0.76043904  0.14331807  1
  O  O199  1  0.11804337  0.81313471  0.25087035  1
  O  O200  1  0.28602743  0.14882568  0.18909006  1
  O  O201  1  0.44338497  0.38880389  0.23996244  1
  O  O202  1  0.61554710  0.72068833  0.17752955  1
  O  O203  1  0.31568889  0.85558152  0.22183019  1
  O  O204  1  0.49957968  0.18191603  0.16035397  1
  O  O205  1  0.13972083  0.68607720  0.15943404  1
  O  O206  1  0.97303553  0.35885975  0.22495083  1
  O  O207  1  0.94567006  0.21584729  0.17758708  1
  O  O208  1  0.77863367  0.89211848  0.24291902  1
  O  O209  1  0.23185371  0.48649304  0.34228678  1
  O  O210  1  0.39258640  0.80978048  0.27631270  1
  O  O211  1  0.84156037  0.46186247  0.37998701  1
  O  O212  1  0.00425490  0.78379434  0.31424414  1
  O  O213  1  0.41469657  0.28573107  0.31416396  1
  O  O214  1  0.23833715  0.96810111  0.38348206  1
  O  O215  1  0.99722859  0.31003464  0.28026534  1
  O  O216  1  0.79683709  0.97698506  0.33964524  1
  O  O217  1  0.57739602  0.37083211  0.30140853  1
  O  O218  1  0.42327464  0.04027958  0.36597167  1
  O  O219  1  0.83995742  0.22362124  0.29410241  1
  O  O220  1  0.66995953  0.88073032  0.35858551  1
  O  O221  1  0.56393272  0.39089049  0.35915638  1
  O  O222  1  0.72214264  0.71702088  0.29142502  1
  O  O223  1  0.50228590  0.54773803  0.36500201  1
  O  O224  1  0.68420628  0.87264552  0.30039888  1
  O  O225  1  0.59810183  0.26466008  0.26017088  1
  O  O226  1  0.43162708  0.93688846  0.32570403  1
  O  O227  1  0.82052095  0.33027029  0.33462515  1
  O  O228  1  0.99304117  0.66017425  0.26982737  1
  O  O229  1  0.71361905  0.15433440  0.27383137  1
  O  O230  1  0.52701667  0.82453746  0.33125974  1
  O  O231  1  0.69240466  0.44182394  0.32341363  1
  O  O232  1  0.85132028  0.76964491  0.25704043  1
  O  O233  1  0.22041668  0.41389297  0.29563194  1
  O  O234  1  0.06353573  0.08620563  0.36011408  1
  O  O235  1  0.19470724  0.18165666  0.29852045  1
  O  O236  1  0.02488359  0.83721670  0.36832403  1
  O  O237  1  0.26768779  0.36056609  0.36081922  1
  O  O238  1  0.43248365  0.68332769  0.29103605  1
  O  O239  1  0.77393692  0.58423124  0.36526485  1
  O  O240  1  0.97804513  0.90670672  0.29576672  1
  O  O241  1  0.07231524  0.98686099  0.32159852  1
  O  O242  1  0.88190991  0.67007429  0.36521906  1
  O  O243  1  0.33570084  0.59890754  0.27589811  1
  O  O244  1  0.16083766  0.27853537  0.34317040  1
  O  O245  1  0.27681528  0.78130172  0.33559734  1
  O  O246  1  0.46558387  0.10388810  0.27891140  1
  O  O247  1  0.76922711  0.15378958  0.36991637  1
  O  O248  1  0.94964302  0.48941883  0.32041540  1
  O  O249  1  0.12135954  0.71893006  0.36519245  1
  O  O250  1  0.26516953  0.06126625  0.30546840  1
  O  O251  1  0.96284757  0.20864839  0.35385082  1
  O  O252  1  0.12947719  0.53207782  0.28738368  1
  O  O253  1  0.80964028  0.02716590  0.28739102  1
  O  O254  1  0.58255319  0.69494833  0.34818860  1
  O  O255  1  0.61591074  0.56573769  0.30444961  1
  O  O256  1  0.44659713  0.24643409  0.37132934  1
  O  O257  1  0.99873197  0.15757858  0.40826618  1
  O  O258  1  0.60254818  0.19742311  0.43201978  1
  O  O259  1  0.96754128  0.60749325  0.41998318  1
  O  O260  1  0.64787727  0.67171317  0.40561509  1
  O  O261  1  0.55000835  0.56428561  0.42097433  1
  O  O262  1  0.38049502  0.06008339  0.42362526  1
  O  O263  1  0.27846968  0.61565641  0.39921660  1
  O  O264  1  0.19893562  0.26714037  0.43583241  1
  O  O265  1  0.71677686  0.63190545  0.47098195  1
  O  O266  1  0.62001939  0.06950278  0.39793069  1
  O  O267  1  0.37993247  0.50319007  0.40488317  1
  O  O268  1  0.06821381  0.12948250  0.47223692  1
  O  O269  1  0.27755689  0.76929949  0.43506574  1
  O  O270  1  0.36025056  0.14580458  0.38808544  1
  O  O271  1  0.92346830  0.73923016  0.42488555  1
  O  O272  1  0.88277605  0.50502559  0.43820187  1
  O  O273  1  0.06585372  0.02172616  0.43386700  1
  O  O274  1  0.85449113  0.29413178  0.44496157  1
  O  O275  1  0.95919321  0.96396575  0.39528656  1
  O  O276  1  0.11723445  0.45697344  0.40224295  1
  O  O277  1  0.54709143  0.80870480  0.44930840  1
  O  O278  1  0.95392884  0.39130166  0.42722642  1
  O  O279  1  0.78096839  0.90239869  0.41648291  1
  O  O280  1  0.44673972  0.37644046  0.41741510  1
  O  O281  1  0.20474512  0.90383524  0.43251102  1
