# generated using pymatgen
data_Na17Zr11Si10P5O63
_symmetry_space_group_name_H-M   'P 1'
_cell_length_a   9.15937100
_cell_length_b   16.28925272
_cell_length_c   46.86931700
_cell_angle_alpha   90.00000000
_cell_angle_beta   90.00000000
_cell_angle_gamma   73.67128847
_symmetry_Int_Tables_number   1
_chemical_formula_structural   Na17Zr11Si10P5O63
_chemical_formula_sum   'Na34 Zr22 Si20 P10 O126'
_cell_volume   6710.80899833
_cell_formula_units_Z   2
loop_
 _symmetry_equiv_pos_site_id
 _symmetry_equiv_pos_as_xyz
  1  'x, y, z'
loop_
 _atom_site_type_symbol
 _atom_site_label
 _atom_site_symmetry_multiplicity
 _atom_site_fract_x
 _atom_site_fract_y
 _atom_site_fract_z
 _atom_site_occupancy
  Na  Na0  1  0.19577980  0.78601320  0.16275969  1
  Na  Na1  1  0.43448531  0.25381273  0.07319225  1
  Na  Na2  1  0.92947016  0.80494273  0.04606984  1
  Na  Na3  1  0.63068076  0.35139545  0.13874428  1
  Na  Na4  1  0.32496316  0.55720196  0.00743527  1
  Na  Na5  1  0.96350001  0.13893407  0.10474423  1
  Na  Na6  1  0.53343450  0.80049218  0.99462673  1
  Na  Na7  1  0.04395260  0.53280512  0.12684357  1
  Na  Na8  1  0.35026689  0.96635228  0.12257365  1
  Na  Na9  1  0.62220787  0.38878233  0.03588628  1
  Na  Na10  1  0.72055451  0.67596838  0.08496598  1
  Na  Na11  1  0.02465261  0.02803072  0.02608353  1
  Na  Na12  1  0.66166700  0.86104724  0.32757115  1
  Na  Na13  1  0.90980326  0.31203717  0.24654253  1
  Na  Na14  1  0.38342819  0.90129634  0.21997223  1
  Na  Na15  1  0.09719755  0.42674747  0.30370459  1
  Na  Na16  1  0.75674028  0.62349998  0.18227383  1
  Na  Na17  1  0.49977420  0.16059149  0.26335910  1
  Na  Na18  1  0.79218780  0.05251012  0.20304388  1
  Na  Na19  1  0.53646763  0.58921945  0.28420870  1
  Na  Na20  1  0.83834125  0.01501588  0.29523736  1
  Na  Na21  1  0.10927671  0.47343408  0.21300957  1
  Na  Na22  1  0.18371842  0.73925298  0.25343461  1
  Na  Na23  1  0.45417434  0.19789323  0.17114740  1
  Na  Na24  1  0.36371668  0.40746245  0.42024414  1
  Na  Na25  1  0.85869720  0.95859808  0.39315307  1
  Na  Na26  1  0.24938349  0.67987918  0.33954586  1
  Na  Na27  1  0.76003627  0.41192959  0.47178295  1
  Na  Na28  1  0.32945718  0.07354674  0.36147537  1
  Na  Na29  1  0.96816472  0.65533387  0.45893377  1
  Na  Na30  1  0.26897295  0.18459390  0.43995977  1
  Na  Na31  1  0.57209123  0.53692518  0.38146315  1
  Na  Na32  1  0.67054912  0.82387857  0.43064401  1
  Na  Na33  1  0.94244164  0.24648698  0.34380172  1
  Zr  Zr34  1  0.73444683  0.96695589  0.01566545  1
  Zr  Zr35  1  0.43280767  0.51045529  0.09277924  1
  Zr  Zr36  1  0.90976913  0.51668550  0.04666165  1
  Zr  Zr37  1  0.65333045  0.08525673  0.11796419  1
  Zr  Zr38  1  0.31524086  0.80264635  0.08367076  1
  Zr  Zr39  1  0.02070565  0.35549927  0.16525500  1
  Zr  Zr40  1  0.80401590  0.78233444  0.13767211  1
  Zr  Zr41  1  0.03025026  0.28240460  0.05800465  1
  Zr  Zr42  1  0.17634358  0.05630229  0.17701294  1
  Zr  Zr43  1  0.90856554  0.59320863  0.26247317  1
  Zr  Zr44  1  0.38446813  0.61943192  0.20401484  1
  Zr  Zr45  1  0.11641668  0.15652113  0.28934916  1
  Zr  Zr46  1  0.75903820  0.89215749  0.24535030  1
  Zr  Zr47  1  0.48921785  0.43032741  0.32880667  1
  Zr  Zr48  1  0.27193680  0.85727378  0.30113643  1
  Zr  Zr49  1  0.53378202  0.32069848  0.22102335  1
  Zr  Zr50  1  0.63940682  0.12757386  0.34838081  1
  Zr  Zr51  1  0.38288727  0.69621915  0.41982087  1
  Zr  Zr52  1  0.86007646  0.70240487  0.37370331  1
  Zr  Zr53  1  0.55923509  0.24542297  0.45080328  1
  Zr  Zr54  1  0.26228568  0.93057734  0.40842660  1
  Zr  Zr55  1  0.97767051  0.40999814  0.38278864  1
  Si  Si56  1  0.50320874  0.68003540  0.13509243  1
  Si  Si57  1  0.75507108  0.16878752  0.04938770  1
  Si  Si58  1  0.60133695  0.90395769  0.08186386  1
  Si  Si59  1  0.33482280  0.44272681  0.16414862  1
  Si  Si60  1  0.52227164  0.63629949  0.03751026  1
  Si  Si61  1  0.24776322  0.18776731  0.12024402  1
  Si  Si62  1  0.82825404  0.42573116  0.10340213  1
  Si  Si63  1  0.95807851  0.77006438  0.30228743  1
  Si  Si64  1  0.21990271  0.23017567  0.21988820  1
  Si  Si65  1  0.07274390  0.98272851  0.24645453  1
  Si  Si66  1  0.79017544  0.53250679  0.33142919  1
  Si  Si67  1  0.98351067  0.71133264  0.20570221  1
  Si  Si68  1  0.71016751  0.24808883  0.29044212  1
  Si  Si69  1  0.58246593  0.96473630  0.17594787  1
  Si  Si70  1  0.30946960  0.50132849  0.26075637  1
  Si  Si71  1  0.69183646  0.30865253  0.38463945  1
  Si  Si72  1  0.53787134  0.04387149  0.41684202  1
  Si  Si73  1  0.46424913  0.78709199  0.36308364  1
  Si  Si74  1  0.04482281  0.02499646  0.34614553  1
  Si  Si75  1  0.77050764  0.57632752  0.42889161  1
  P  P76  1  0.02579944  0.93193545  0.12659003  1
  P  P77  1  0.27659877  0.40732946  0.03883391  1
  P  P78  1  0.07161563  0.66454630  0.08511305  1
  P  P79  1  0.48748224  0.01164541  0.29617832  1
  P  P80  1  0.75424593  0.47051188  0.21611220  1
  P  P81  1  0.53883286  0.74223436  0.25031365  1
  P  P82  1  0.80523131  0.20110351  0.17017872  1
  P  P83  1  0.22107349  0.54829510  0.38130681  1
  P  P84  1  0.01626809  0.80552263  0.42775610  1
  P  P85  1  0.26687782  0.28082668  0.33975078  1
  O  O86  1  0.38021990  0.76984777  0.12272197  1
  O  O87  1  0.62932220  0.25675287  0.04461904  1
  O  O88  1  0.70988774  0.81973639  0.09804758  1
  O  O89  1  0.47063375  0.55587565  0.05229283  1
  O  O90  1  0.20089220  0.10550423  0.13448947  1
  O  O91  1  0.62305665  0.04745104  0.16140482  1
  O  O92  1  0.88618466  0.50374758  0.08846176  1
  O  O93  1  0.19988459  0.58319403  0.09237888  1
  O  O94  1  0.62356504  0.91716418  0.99014837  1
  O  O95  1  0.89148606  0.01111994  0.12050536  1
  O  O96  1  0.13350306  0.48844902  0.03444089  1
  O  O97  1  0.13860410  0.73968879  0.07646443  1
  O  O98  1  0.86154126  0.28124841  0.16685887  1
  O  O99  1  0.97231950  0.85330203  0.13538371  1
  O  O100  1  0.21671756  0.32565572  0.04212950  1
  O  O101  1  0.12546537  0.95028701  0.15155229  1
  O  O102  1  0.35291304  0.41584899  0.06830268  1
  O  O103  1  0.96971920  0.64901959  0.06039217  1
  O  O104  1  0.72513471  0.19011668  0.14171465  1
  O  O105  1  0.13020141  0.90965164  0.09959795  1
  O  O106  1  0.38212865  0.40725305  0.01405527  1
  O  O107  1  0.97328950  0.68590686  0.11259676  1
  O  O108  1  0.50049738  0.60491835  0.11253073  1
  O  O109  1  0.76378607  0.09025156  0.02680725  1
  O  O110  1  0.57842681  0.99050368  0.10175331  1
  O  O111  1  0.89672272  0.39929693  0.03961347  1
  O  O112  1  0.47238840  0.71921863  0.06048501  1
  O  O113  1  0.17235283  0.26996197  0.14127130  1
  O  O114  1  0.65773374  0.87684209  0.15807519  1
  O  O115  1  0.92610570  0.32981374  0.09295379  1
  O  O116  1  0.94786517  0.90979823  0.01580532  1
  O  O117  1  0.65183431  0.43151729  0.09644244  1
  O  O118  1  0.71386745  0.60363218  0.03717130  1
  O  O119  1  0.43484224  0.17100156  0.11946181  1
  O  O120  1  0.42694836  0.89265509  0.07836327  1
  O  O121  1  0.15826865  0.43611140  0.16323867  1
  O  O122  1  0.67431836  0.69242410  0.13742064  1
  O  O123  1  0.93563699  0.18448809  0.04976299  1
  O  O124  1  0.68165822  0.91259047  0.05196948  1
  O  O125  1  0.38990548  0.45606812  0.13178223  1
  O  O126  1  0.72809107  0.13271946  0.08249898  1
  O  O127  1  0.86830054  0.43159794  0.13687231  1
  O  O128  1  0.45150622  0.66489363  0.00672145  1
  O  O129  1  0.18617461  0.20523788  0.08702234  1
  O  O130  1  0.83905442  0.85493218  0.28752688  1
  O  O131  1  0.09967341  0.31646265  0.20680745  1
  O  O132  1  0.19271564  0.89645509  0.25961439  1
  O  O133  1  0.45399853  0.35780658  0.17881704  1
  O  O134  1  0.95355142  0.62596901  0.22049075  1
  O  O135  1  0.66959835  0.16541299  0.30499494  1
  O  O136  1  0.09198671  0.10720855  0.33191782  1
  O  O137  1  0.33928161  0.58679383  0.24599698  1
  O  O138  1  0.67637927  0.66503619  0.25749728  1
  O  O139  1  0.93896624  0.12045618  0.17592440  1
  O  O140  1  0.35377987  0.09245154  0.29055851  1
  O  O141  1  0.61666456  0.54773113  0.20900508  1
  O  O142  1  0.58966521  0.82509308  0.24746810  1
  O  O143  1  0.32092195  0.35930463  0.33099076  1
  O  O144  1  0.43095219  0.93156548  0.29950860  1
  O  O145  1  0.70326689  0.38771328  0.21899358  1
  O  O146  1  0.56818350  0.02242205  0.32459132  1
  O  O147  1  0.83044450  0.48447976  0.24456584  1
  O  O148  1  0.46316275  0.72809082  0.22182763  1
  O  O149  1  0.16647999  0.26298628  0.31481804  1
  O  O150  1  0.59987034  0.00130418  0.27073395  1
  O  O151  1  0.87209702  0.46185822  0.19198411  1
  O  O152  1  0.42071927  0.75098651  0.27440435  1
  O  O153  1  0.69235790  0.21148337  0.19555466  1
  O  O154  1  0.96966002  0.68756912  0.28129109  1
  O  O155  1  0.23282107  0.15112798  0.19721424  1
  O  O156  1  0.05980751  0.06184663  0.26910775  1
  O  O157  1  0.32333733  0.52509851  0.18519377  1
  O  O158  1  0.90719508  0.79602236  0.22567012  1
  O  O159  1  0.63544802  0.33589376  0.30838196  1
  O  O160  1  0.12032623  0.94276846  0.32513869  1
  O  O161  1  0.38534411  0.41685377  0.24067482  1
  O  O162  1  0.39630539  0.97837201  0.17597922  1
  O  O163  1  0.12683829  0.50725008  0.26292562  1
  O  O164  1  0.16614296  0.70539386  0.20358373  1
  O  O165  1  0.89636113  0.23430876  0.29031892  1
  O  O166  1  0.89857020  0.97325370  0.24380809  1
  O  O167  1  0.61894987  0.52022606  0.32907050  1
  O  O168  1  0.13466451  0.77658867  0.30318163  1
  O  O169  1  0.39402640  0.23973472  0.22253241  1
  O  O170  1  0.13458036  0.99979515  0.21469675  1
  O  O171  1  0.85597364  0.54442726  0.30006034  1
  O  O172  1  0.43741969  0.66809895  0.16644617  1
  O  O173  1  0.15856279  0.21293133  0.25168104  1
  O  O174  1  0.64430213  0.95393830  0.20922755  1
  O  O175  1  0.38366987  0.49232251  0.29260885  1
  O  O176  1  0.90991364  0.72020870  0.17380224  1
  O  O177  1  0.64777467  0.25905653  0.25720817  1
  O  O178  1  0.58318830  0.39290368  0.36846308  1
  O  O179  1  0.66310630  0.95564389  0.42153387  1
  O  O180  1  0.91277873  0.44254410  0.34372400  1
  O  O181  1  0.40586659  0.70925634  0.37802196  1
  O  O182  1  0.82237512  0.65677450  0.41416853  1
  O  O183  1  0.15940056  0.72444090  0.43219123  1
  O  O184  1  0.40091123  0.20138877  0.34571536  1
  O  O185  1  0.67049685  0.29506425  0.47631166  1
  O  O186  1  0.09290509  0.62964432  0.37396253  1
  O  O187  1  0.07591014  0.88725087  0.42441402  1
  O  O188  1  0.15400312  0.47315752  0.38993393  1
  O  O189  1  0.32258969  0.56397706  0.40605718  1
  O  O190  1  0.94006681  0.79676287  0.39828640  1
  O  O191  1  0.31979612  0.52675134  0.35386926  1
  O  O192  1  0.91075483  0.80555858  0.45253361  1
  O  O193  1  0.16275644  0.30319996  0.36678544  1
  O  O194  1  0.39573369  0.81369259  0.42681268  1
  O  O195  1  0.71419853  0.22219862  0.36470192  1
  O  O196  1  0.53021610  0.12219610  0.43945535  1
  O  O197  1  0.79289463  0.60760937  0.35399496  1
  O  O198  1  0.36652176  0.88306608  0.37348589  1
  O  O199  1  0.82014632  0.49346671  0.40589928  1
  O  O200  1  0.85774356  0.04182602  0.34687244  1
  O  O201  1  0.57891180  0.60926256  0.42924671  1
  O  O202  1  0.64079094  0.78095474  0.37002793  1
  O  O203  1  0.34584163  0.30259103  0.45053863  1
  O  O204  1  0.35699536  0.02854772  0.41656596  1
  O  O205  1  0.86629391  0.31984155  0.38811166  1
  O  O206  1  0.56441895  0.08006636  0.38376581  1
  O  O207  1  0.90276209  0.75705597  0.33467353  1
  O  O208  1  0.61195304  0.29994667  0.41455032  1
  O  O209  1  0.10615314  0.00746267  0.37938728  1
  O  O210  1  0.84147398  0.54750305  0.45964650  1
  O  O211  1  0.42417035  0.78122926  0.32960114  1
