# generated using pymatgen
data_Na17Zr12Si10(PO13)5
_symmetry_space_group_name_H-M   'P 1'
_cell_length_a   9.27295600
_cell_length_b   15.80284349
_cell_length_c   45.79685300
_cell_angle_alpha   90.00000000
_cell_angle_beta   90.00000000
_cell_angle_gamma   56.43985526
_symmetry_Int_Tables_number   1
_chemical_formula_structural   Na17Zr12Si10(PO13)5
_chemical_formula_sum   'Na34 Zr24 Si20 P10 O130'
_cell_volume   5592.34006858
_cell_formula_units_Z   2
loop_
 _symmetry_equiv_pos_site_id
 _symmetry_equiv_pos_as_xyz
  1  'x, y, z'
loop_
 _atom_site_type_symbol
 _atom_site_label
 _atom_site_symmetry_multiplicity
 _atom_site_fract_x
 _atom_site_fract_y
 _atom_site_fract_z
 _atom_site_occupancy
  Na  Na0  1  0.55895304  0.71508159  0.04528926  1
  Na  Na1  1  0.02783125  0.23146899  0.01643863  1
  Na  Na2  1  0.89346947  0.04789717  0.05843650  1
  Na  Na3  1  0.67871743  0.46968103  0.07510503  1
  Na  Na4  1  0.16685305  0.96980685  0.00231388  1
  Na  Na5  1  0.41754656  0.13091636  0.11340904  1
  Na  Na6  1  0.60092583  0.26034085  0.16511758  1
  Na  Na7  1  0.14526969  0.77270724  0.10407629  1
  Na  Na8  1  0.93788707  0.63407630  0.16154066  1
  Na  Na9  1  0.76501738  0.93992582  0.16699968  1
  Na  Na10  1  0.25644525  0.44103741  0.10938242  1
  Na  Na11  1  0.42813259  0.62673611  0.21510434  1
  Na  Na12  1  0.59007362  0.76090197  0.26395445  1
  Na  Na13  1  0.08834906  0.26620949  0.21272340  1
  Na  Na14  1  0.91962201  0.12623206  0.26266407  1
  Na  Na15  1  0.76079146  0.44020742  0.26577985  1
  Na  Na16  1  0.25586524  0.94399767  0.20937449  1
  Na  Na17  1  0.41971409  0.12597285  0.31342078  1
  Na  Na18  1  0.58766905  0.26636757  0.36328499  1
  Na  Na19  1  0.08971886  0.76087472  0.31196032  1
  Na  Na20  1  0.92766410  0.62655848  0.36084794  1
  Na  Na21  1  0.75578155  0.94381882  0.36664620  1
  Na  Na22  1  0.26058044  0.44015723  0.31015417  1
  Na  Na23  1  0.43748904  0.63412490  0.41429000  1
  Na  Na24  1  0.64481639  0.77249183  0.47182508  1
  Na  Na25  1  0.10126273  0.25995289  0.41087443  1
  Na  Na26  1  0.91665705  0.13099308  0.46260710  1
  Na  Na27  1  0.75600360  0.44111226  0.46660070  1
  Na  Na28  1  0.26506098  0.93972970  0.40898718  1
  Na  Na29  1  0.39288538  0.04813517  0.51756061  1
  Na  Na30  1  0.52756799  0.23113859  0.55943194  1
  Na  Na31  1  0.05862910  0.71517395  0.53058469  1
  Na  Na32  1  0.66780967  0.96935670  0.57362036  1
  Na  Na33  1  0.18153593  0.46839118  0.50087447  1
  Zr  Zr34  1  0.95898178  0.52125922  0.04615135  1
  Zr  Zr35  1  0.92759143  0.84184509  0.03420243  1
  Zr  Zr36  1  0.55040715  0.34726717  0.04060597  1
  Zr  Zr37  1  0.42497109  0.02217907  0.03728321  1
  Zr  Zr38  1  0.95448238  0.04280487  0.13807915  1
  Zr  Zr39  1  0.06195848  0.34147419  0.13496156  1
  Zr  Zr40  1  0.56538327  0.84272261  0.14067036  1
  Zr  Zr41  1  0.43667183  0.54854986  0.13752548  1
  Zr  Zr42  1  0.94564740  0.54472681  0.23830907  1
  Zr  Zr43  1  0.06328712  0.84336513  0.23812803  1
  Zr  Zr44  1  0.56060557  0.34372454  0.23847637  1
  Zr  Zr45  1  0.44692139  0.04636537  0.23689816  1
  Zr  Zr46  1  0.94624944  0.04662562  0.33904511  1
  Zr  Zr47  1  0.06074341  0.34348343  0.33755977  1
  Zr  Zr48  1  0.56322832  0.84313026  0.33783049  1
  Zr  Zr49  1  0.44525232  0.54478303  0.33769348  1
  Zr  Zr50  1  0.93649641  0.54842315  0.43852571  1
  Zr  Zr51  1  0.06488583  0.84294088  0.43521867  1
  Zr  Zr52  1  0.56117645  0.34176303  0.44101399  1
  Zr  Zr53  1  0.45488458  0.04249411  0.43789839  1
  Zr  Zr54  1  0.92538729  0.02189018  0.53861154  1
  Zr  Zr55  1  0.05020314  0.34688256  0.53531477  1
  Zr  Zr56  1  0.42833455  0.84160669  0.54176119  1
  Zr  Zr57  1  0.45876556  0.52151817  0.52979303  1
  Si  Si58  1  0.25967774  0.58434087  0.06169141  1
  Si  Si59  1  0.24131853  0.28320083  0.06064980  1
  Si  Si60  1  0.27178391  0.08511421  0.16561234  1
  Si  Si61  1  0.73718538  0.30305832  0.11152330  1
  Si  Si62  1  0.24234767  0.80277493  0.16616218  1
  Si  Si63  1  0.76611659  0.58547224  0.11305035  1
  Si  Si64  1  0.26761548  0.58342001  0.26571990  1
  Si  Si65  1  0.74103645  0.80397619  0.21183157  1
  Si  Si66  1  0.24254061  0.30375068  0.26585706  1
  Si  Si67  1  0.76991245  0.08367456  0.21014458  1
  Si  Si68  1  0.26964828  0.08345942  0.36590624  1
  Si  Si69  1  0.74187170  0.30400421  0.31019188  1
  Si  Si70  1  0.24032987  0.80415614  0.36405600  1
  Si  Si71  1  0.76711818  0.58334203  0.31020463  1
  Si  Si72  1  0.26547164  0.58587312  0.46282775  1
  Si  Si73  1  0.74257646  0.80245410  0.40981000  1
  Si  Si74  1  0.23744573  0.30266688  0.46447786  1
  Si  Si75  1  0.77121842  0.08534885  0.41036022  1
  Si  Si76  1  0.74058909  0.28316098  0.51526832  1
  Si  Si77  1  0.76048953  0.58404408  0.51430078  1
  P  P78  1  0.73879316  0.94735756  0.09827746  1
  P  P79  1  0.27723738  0.91038917  0.08226799  1
  P  P80  1  0.75103216  0.44378669  0.19501026  1
  P  P81  1  0.25046075  0.44264533  0.17877995  1
  P  P82  1  0.75436293  0.94637072  0.29653229  1
  P  P83  1  0.25462383  0.94626907  0.27943879  1
  P  P84  1  0.75071297  0.44247828  0.39724188  1
  P  P85  1  0.25040494  0.44405054  0.38097090  1
  P  P86  1  0.77717107  0.90998175  0.49373104  1
  P  P87  1  0.23868218  0.94751966  0.47771109  1
  O  O88  1  0.44531236  0.50413324  0.04455503  1
  O  O89  1  0.05561038  0.36759061  0.04381659  1
  O  O90  1  0.09532665  0.98851470  0.09603551  1
  O  O91  1  0.89623803  0.89387732  0.07644014  1
  O  O92  1  0.41896693  0.89579953  0.10323526  1
  O  O93  1  0.56972248  0.00514976  0.08103521  1
  O  O94  1  0.30384846  0.80932948  0.07417701  1
  O  O95  1  0.29083447  0.96018521  0.05337444  1
  O  O96  1  0.15588574  0.52649005  0.06215376  1
  O  O97  1  0.39622396  0.29550844  0.04836477  1
  O  O98  1  0.67630912  0.90770654  0.02621473  1
  O  O99  1  0.76813927  0.58404745  0.07671493  1
  O  O100  1  0.98926386  0.92696138  0.01890880  1
  O  O101  1  0.69508747  0.30835711  0.07652079  1
  O  O102  1  0.28407780  0.06135014  0.00401737  1
  O  O103  1  0.82068644  0.60830868  0.01712917  1
  O  O104  1  0.13495153  0.69557050  0.04617072  1
  O  O105  1  0.73336246  0.27607851  0.01495442  1
  O  O106  1  0.28865456  0.16988821  0.05305254  1
  O  O107  1  0.46117370  0.99678527  0.15277426  1
  O  O108  1  0.55695121  0.39159641  0.12762569  1
  O  O109  1  0.06311328  0.89145056  0.15018221  1
  O  O110  1  0.95846684  0.49495450  0.12486199  1
  O  O111  1  0.08370085  0.50133148  0.19734248  1
  O  O112  1  0.91165434  0.38717556  0.17480613  1
  O  O113  1  0.41372797  0.38794860  0.19827085  1
  O  O114  1  0.57878665  0.50387190  0.17785626  1
  O  O115  1  0.75556777  0.02600167  0.11583316  1
  O  O116  1  0.25475592  0.36133559  0.15897016  1
  O  O117  1  0.75738142  0.86465989  0.11879245  1
  O  O118  1  0.24881146  0.52304492  0.15854677  1
  O  O119  1  0.12977683  0.05650436  0.15835225  1
  O  O120  1  0.88402871  0.33026841  0.11424282  1
  O  O121  1  0.39343728  0.82555951  0.16183464  1
  O  O122  1  0.62386122  0.55787066  0.12021650  1
  O  O123  1  0.79386445  0.08405479  0.17449279  1
  O  O124  1  0.22010003  0.30242221  0.09677090  1
  O  O125  1  0.73241939  0.79953884  0.17618851  1
  O  O126  1  0.30369560  0.59012568  0.09665627  1
  O  O127  1  0.80091589  0.19255167  0.12486868  1
  O  O128  1  0.21049917  0.19507027  0.15072145  1
  O  O129  1  0.71769513  0.69309091  0.12627475  1
  O  O130  1  0.29388232  0.69464181  0.15168987  1
  O  O131  1  0.45120795  0.49787779  0.24986145  1
  O  O132  1  0.55469799  0.89234204  0.22619989  1
  O  O133  1  0.06012139  0.38962240  0.24992202  1
  O  O134  1  0.95151091  0.99797351  0.22631573  1
  O  O135  1  0.09104261  0.00203991  0.29886867  1
  O  O136  1  0.92187903  0.89025458  0.27811334  1
  O  O137  1  0.42230131  0.89004897  0.29781216  1
  O  O138  1  0.59079620  0.00202884  0.27710682  1
  O  O139  1  0.75695812  0.52134743  0.21507460  1
  O  O140  1  0.25717394  0.86477511  0.25995181  1
  O  O141  1  0.75519103  0.36229941  0.21485578  1
  O  O142  1  0.24982330  0.02733997  0.25949261  1
  O  O143  1  0.12119233  0.55816341  0.25885807  1
  O  O144  1  0.88700923  0.82954906  0.21848542  1
  O  O145  1  0.38828522  0.33060827  0.26036792  1
  O  O146  1  0.62248308  0.05801058  0.21539602  1
  O  O147  1  0.78386462  0.58247770  0.27431947  1
  O  O148  1  0.22241933  0.79894898  0.20179561  1
  O  O149  1  0.72411629  0.30210119  0.27431555  1
  O  O150  1  0.27720980  0.09268508  0.20149037  1
  O  O151  1  0.79628641  0.69419134  0.22556187  1
  O  O152  1  0.20991725  0.69567175  0.25374285  1
  O  O153  1  0.70617371  0.19607093  0.22313513  1
  O  O154  1  0.30337605  0.19305257  0.25238784  1
  O  O155  1  0.45097730  0.99757775  0.34969844  1
  O  O156  1  0.55945599  0.38970968  0.32614604  1
  O  O157  1  0.05402484  0.89253025  0.34969349  1
  O  O158  1  0.95057086  0.49750216  0.32606669  1
  O  O159  1  0.07818833  0.50399888  0.39812794  1
  O  O160  1  0.91441660  0.38778779  0.37786497  1
  O  O161  1  0.41093000  0.38718328  0.40119435  1
  O  O162  1  0.58431307  0.50116834  0.37858320  1
  O  O163  1  0.74922647  0.02761614  0.31644994  1
  O  O164  1  0.25453631  0.36284236  0.36101108  1
  O  O165  1  0.75699429  0.86494247  0.31605654  1
  O  O166  1  0.25659443  0.52170143  0.36100107  1
  O  O167  1  0.12137339  0.05852854  0.36058992  1
  O  O168  1  0.88789978  0.33045864  0.31586439  1
  O  O169  1  0.38650166  0.82948984  0.35734342  1
  O  O170  1  0.62038727  0.55834007  0.31701757  1
  O  O171  1  0.77687262  0.09304396  0.37448620  1
  O  O172  1  0.22423740  0.30148606  0.30170255  1
  O  O173  1  0.72210297  0.79857958  0.37420163  1
  O  O174  1  0.28390913  0.58243279  0.30162710  1
  O  O175  1  0.80228321  0.19311751  0.32345505  1
  O  O176  1  0.20674019  0.19582810  0.35297435  1
  O  O177  1  0.71038992  0.69540032  0.32223327  1
  O  O178  1  0.29559340  0.69419706  0.35048068  1
  O  O179  1  0.45755773  0.49523793  0.45096268  1
  O  O180  1  0.56354360  0.89118828  0.42583193  1
  O  O181  1  0.05701401  0.39143520  0.44847194  1
  O  O182  1  0.96058866  0.99708759  0.42321139  1
  O  O183  1  0.06963562  0.00531514  0.49496248  1
  O  O184  1  0.91887784  0.89519901  0.47270821  1
  O  O185  1  0.39610263  0.89365571  0.49952911  1
  O  O186  1  0.59528261  0.98857697  0.48003771  1
  O  O187  1  0.74860630  0.52286513  0.41755404  1
  O  O188  1  0.25667520  0.86516017  0.45712236  1
  O  O189  1  0.75448385  0.36119941  0.41699337  1
  O  O190  1  0.25574764  0.02619357  0.46024986  1
  O  O191  1  0.12316413  0.55823629  0.45582304  1
  O  O192  1  0.89338304  0.82555696  0.41397611  1
  O  O193  1  0.38345399  0.33063170  0.46191193  1
  O  O194  1  0.62976080  0.05622094  0.41749291  1
  O  O195  1  0.80334800  0.59004260  0.47929721  1
  O  O196  1  0.23183693  0.79991172  0.39970264  1
  O  O197  1  0.71956669  0.30264535  0.47916031  1
  O  O198  1  0.29388907  0.08346144  0.40155313  1
  O  O199  1  0.79379388  0.69450032  0.42433600  1
  O  O200  1  0.21721017  0.69331038  0.44951683  1
  O  O201  1  0.70918739  0.19527388  0.42533065  1
  O  O202  1  0.30188905  0.19238752  0.45090870  1
  O  O203  1  0.55453641  0.36782318  0.53198979  1
  O  O204  1  0.94653333  0.50355030  0.53127466  1
  O  O205  1  0.79202866  0.95928310  0.52262618  1
  O  O206  1  0.80309884  0.80907598  0.50178016  1
  O  O207  1  0.17687726  0.90769288  0.54970930  1
  O  O208  1  0.89524413  0.29549977  0.52764856  1
  O  O209  1  0.65641002  0.52634747  0.51397815  1
  O  O210  1  0.78471097  0.06106150  0.57189265  1
  O  O211  1  0.19573781  0.30703389  0.49947526  1
  O  O212  1  0.48990022  0.92681613  0.55701317  1
  O  O213  1  0.26839247  0.58447704  0.49915446  1
  O  O214  1  0.78778401  0.16979699  0.52278102  1
  O  O215  1  0.23279404  0.27590904  0.56104652  1
  O  O216  1  0.63622529  0.69525739  0.52985696  1
  O  O217  1  0.32005656  0.60885027  0.55874220  1
