# generated using pymatgen
data_Na8Zr5Si5P2O29
_symmetry_space_group_name_H-M   'P 1'
_cell_length_a   9.15937100
_cell_length_b   16.04975191
_cell_length_c   55.59154400
_cell_angle_alpha   90.00000000
_cell_angle_beta   90.00000000
_cell_angle_gamma   55.20191359
_symmetry_Int_Tables_number   1
_chemical_formula_structural   Na8Zr5Si5P2O29
_chemical_formula_sum   'Na32 Zr20 Si20 P8 O116'
_cell_volume   6710.80887098
_cell_formula_units_Z   4
loop_
 _symmetry_equiv_pos_site_id
 _symmetry_equiv_pos_as_xyz
  1  'x, y, z'
loop_
 _atom_site_type_symbol
 _atom_site_label
 _atom_site_symmetry_multiplicity
 _atom_site_fract_x
 _atom_site_fract_y
 _atom_site_fract_z
 _atom_site_occupancy
  Na  Na0  1  0.79955378  0.80827671  0.07108467  1
  Na  Na1  1  0.77698550  0.34283165  0.16234630  1
  Na  Na2  1  0.23965722  0.17840306  0.05044934  1
  Na  Na3  1  0.16835746  0.69914839  0.12888117  1
  Na  Na4  1  0.43365837  0.19882979  0.12895399  1
  Na  Na5  1  0.40231642  0.67854563  0.05049688  1
  Na  Na6  1  0.53706667  0.84277659  0.16233460  1
  Na  Na7  1  0.58299171  0.30821193  0.07117061  1
  Na  Na8  1  0.87264804  0.01334373  0.10425486  1
  Na  Na9  1  0.90028459  0.52803133  0.02861213  1
  Na  Na10  1  0.04287904  0.02810099  0.02864583  1
  Na  Na11  1  0.10013528  0.51327256  0.10424758  1
  Na  Na12  1  0.76795053  0.85924828  0.24671736  1
  Na  Na13  1  0.75331828  0.38013174  0.33147081  1
  Na  Na14  1  0.15394326  0.21973674  0.21375291  1
  Na  Na15  1  0.14545050  0.73597412  0.29828535  1
  Na  Na16  1  0.38356268  0.23594381  0.29819584  1
  Na  Na17  1  0.40677651  0.71977790  0.21378532  1
  Na  Na18  1  0.48701753  0.88014338  0.33146604  1
  Na  Na19  1  0.51339285  0.35940480  0.24659463  1
  Na  Na20  1  0.84411086  0.04723504  0.27184131  1
  Na  Na21  1  0.85918972  0.53211943  0.18846053  1
  Na  Na22  1  0.07631065  0.03226769  0.18851286  1
  Na  Na23  1  0.06211558  0.54701403  0.27181661  1
  Na  Na24  1  0.68051415  0.90088669  0.40996582  1
  Na  Na25  1  0.12139383  0.27075796  0.38929120  1
  Na  Na26  1  0.33771841  0.77063368  0.38942689  1
  Na  Na27  1  0.51764774  0.40104515  0.40991970  1
  Na  Na28  1  0.87749149  0.05147389  0.43174607  1
  Na  Na29  1  0.82089079  0.56583438  0.35606047  1
  Na  Na30  1  0.04776461  0.06586985  0.35600541  1
  Na  Na31  1  0.02048725  0.55137054  0.43183413  1
  Zr  Zr32  1  0.82907745  0.92253559  0.15436469  1
  Zr  Zr33  1  0.86017559  0.40139827  0.07290718  1
  Zr  Zr34  1  0.12032180  0.12148804  0.13800366  1
  Zr  Zr35  1  0.20742282  0.56521253  0.05279825  1
  Zr  Zr36  1  0.66110098  0.06533118  0.05282341  1
  Zr  Zr37  1  0.63642872  0.62148390  0.13801400  1
  Zr  Zr38  1  0.33654054  0.90146637  0.07292427  1
  Zr  Zr39  1  0.32564758  0.42249494  0.15430877  1
  Zr  Zr40  1  0.80049104  0.95756023  0.32231691  1
  Zr  Zr41  1  0.81251813  0.44083076  0.23757360  1
  Zr  Zr42  1  0.09137578  0.15679285  0.30591633  1
  Zr  Zr43  1  0.10852534  0.63832569  0.22270591  1
  Zr  Zr44  1  0.61480532  0.13829580  0.22273851  1
  Zr  Zr45  1  0.59557967  0.65674906  0.30593734  1
  Zr  Zr46  1  0.30580105  0.94087769  0.23756947  1
  Zr  Zr47  1  0.28474467  0.45749136  0.32235624  1
  Zr  Zr48  1  0.71316777  0.51410282  0.40752797  1
  Zr  Zr49  1  0.06107314  0.67754993  0.38743495  1
  Zr  Zr50  1  0.58425939  0.17757235  0.38741928  1
  Zr  Zr51  1  0.25867160  0.01440344  0.40744710  1
  Si  Si52  1  0.01488280  0.37631675  0.13171494  1
  Si  Si53  1  0.00950864  0.86884569  0.04872442  1
  Si  Si54  1  0.94803872  0.66474710  0.16269839  1
  Si  Si55  1  0.97225049  0.14415825  0.07660216  1
  Si  Si56  1  0.73875909  0.64410894  0.07657685  1
  Si  Si57  1  0.72228402  0.16488229  0.16276462  1
  Si  Si58  1  0.25213492  0.36867160  0.04868025  1
  Si  Si59  1  0.23208138  0.87662130  0.13175491  1
  Si  Si60  1  0.97344510  0.41434854  0.29752399  1
  Si  Si61  1  0.99159359  0.89587236  0.21425227  1
  Si  Si62  1  0.90649762  0.70252748  0.32865790  1
  Si  Si63  1  0.92885236  0.18344428  0.24601981  1
  Si  Si64  1  0.70429225  0.68348930  0.24602916  1
  Si  Si65  1  0.68883914  0.20258867  0.32862480  1
  Si  Si66  1  0.21648933  0.39577364  0.21418363  1
  Si  Si67  1  0.19830409  0.91445723  0.29758349  1
  Si  Si68  1  0.94867967  0.93487008  0.38373448  1
  Si  Si69  1  0.91039534  0.21079962  0.41160905  1
  Si  Si70  1  0.66898457  0.71047472  0.41165232  1
  Si  Si71  1  0.18192008  0.43486926  0.38378436  1
  P  P72  1  0.52974987  0.00858509  0.10465725  1
  P  P73  1  0.45279346  0.50858949  0.10463484  1
  P  P74  1  0.49716190  0.04666719  0.27218833  1
  P  P75  1  0.51143180  0.53235014  0.18814398  1
  P  P76  1  0.42348719  0.03236135  0.18812164  1
  P  P77  1  0.40994466  0.54656251  0.27221003  1
  P  P78  1  0.46843296  0.57051188  0.35566874  1
  P  P79  1  0.39072322  0.07080391  0.35560452  1
  O  O80  1  0.86897599  0.92514568  0.07159455  1
  O  O81  1  0.84322110  0.46885705  0.14629618  1
  O  O82  1  0.15902401  0.05534575  0.06253112  1
  O  O83  1  0.11438565  0.57579108  0.14646004  1
  O  O84  1  0.73334985  0.07593807  0.14658422  1
  O  O85  1  0.72954427  0.55536211  0.06250149  1
  O  O86  1  0.21929222  0.96888882  0.14635857  1
  O  O87  1  0.27985157  0.42498916  0.07157647  1
  O  O88  1  0.61551650  0.43964921  0.08805513  1
  O  O89  1  0.36310550  0.07616135  0.12081840  1
  O  O90  1  0.41387281  0.54000113  0.04019360  1
  O  O91  1  0.50532940  0.03977454  0.04026574  1
  O  O92  1  0.48423127  0.57610101  0.12083563  1
  O  O93  1  0.50496045  0.93964360  0.08807388  1
  O  O94  1  0.69502257  0.93929723  0.12038471  1
  O  O95  1  0.28009904  0.58375107  0.09004206  1
  O  O96  1  0.55200174  0.08382660  0.09007946  1
  O  O97  1  0.42611155  0.43921145  0.12032936  1
  O  O98  1  0.88351077  0.96367521  0.02916555  1
  O  O99  1  0.97278836  0.39562685  0.10248188  1
  O  O100  1  0.00529761  0.12961200  0.10601509  1
  O  O101  1  0.73482830  0.62957292  0.10599782  1
  O  O102  1  0.23563444  0.89598687  0.10253798  1
  O  O103  1  0.18871486  0.46347701  0.02912265  1
  O  O104  1  0.06943737  0.36634597  0.05101014  1
  O  O105  1  0.05835301  0.87332949  0.13482627  1
  O  O106  1  0.91884103  0.63433072  0.06833090  1
  O  O107  1  0.89964808  0.16608815  0.15872403  1
  O  O108  1  0.76794639  0.66620047  0.15869870  1
  O  O109  1  0.81166010  0.13439883  0.06838012  1
  O  O110  1  0.19540876  0.37280971  0.13480809  1
  O  O111  1  0.19688731  0.86641115  0.05114379  1
  O  O112  1  0.90383470  0.77465000  0.15451885  1
  O  O113  1  0.92471987  0.25651974  0.06795086  1
  O  O114  1  0.04631428  0.26912786  0.13920181  1
  O  O115  1  0.07045699  0.75111790  0.04640983  1
  O  O116  1  0.42664513  0.25089917  0.04641599  1
  O  O117  1  0.41475039  0.76915407  0.13921751  1
  O  O118  1  0.56157911  0.75653566  0.06797506  1
  O  O119  1  0.54702149  0.27480712  0.15452842  1
  O  O120  1  0.82324285  0.98505001  0.23028954  1
  O  O121  1  0.80696627  0.50345335  0.31372226  1
  O  O122  1  0.09709835  0.09419237  0.22998964  1
  O  O123  1  0.07799888  0.60998672  0.31407140  1
  O  O124  1  0.70221920  0.11012737  0.31401907  1
  O  O125  1  0.71417605  0.59419980  0.23005097  1
  O  O126  1  0.18671542  0.00351311  0.31378727  1
  O  O127  1  0.20672298  0.48496406  0.23018810  1
  O  O128  1  0.58240408  0.96954199  0.17078641  1
  O  O129  1  0.56642759  0.48433209  0.25439245  1
  O  O130  1  0.33817160  0.10921707  0.28952104  1
  O  O131  1  0.35505310  0.59451129  0.20598260  1
  O  O132  1  0.45648878  0.09406555  0.20597631  1
  O  O133  1  0.44384277  0.60921526  0.28950320  1
  O  O134  1  0.46489797  0.98465986  0.25433272  1
  O  O135  1  0.47756569  0.46983694  0.17079817  1
  O  O136  1  0.67072913  0.97087545  0.28629989  1
  O  O137  1  0.68724133  0.45551040  0.20174122  1
  O  O138  1  0.24995815  0.10837536  0.17403455  1
  O  O139  1  0.23397568  0.62321138  0.25861736  1
  O  O140  1  0.51972079  0.12344211  0.25864502  1
  O  O141  1  0.53397852  0.60795138  0.17405394  1
  O  O142  1  0.40034417  0.95579467  0.20166475  1
  O  O143  1  0.38756126  0.47098828  0.28634289  1
  O  O144  1  0.94275806  0.91673665  0.18555126  1
  O  O145  1  0.92681459  0.43530962  0.26871901  1
  O  O146  1  0.97754623  0.16266621  0.27473937  1
  O  O147  1  0.99506010  0.64371744  0.19149904  1
  O  O148  1  0.71742474  0.14400616  0.19156879  1
  O  O149  1  0.69714178  0.66293666  0.27475675  1
  O  O150  1  0.20338999  0.93524965  0.26877313  1
  O  O151  1  0.22353738  0.41650187  0.18547464  1
  O  O152  1  0.03832673  0.39502601  0.21762035  1
  O  O153  1  0.02114630  0.91306530  0.30161892  1
  O  O154  1  0.88241242  0.68426946  0.24259290  1
  O  O155  1  0.86216129  0.20626471  0.32550173  1
  O  O156  1  0.72569540  0.70638988  0.32547416  1
  O  O157  1  0.74888836  0.18443258  0.24262136  1
  O  O158  1  0.15357709  0.41276556  0.30159290  1
  O  O159  1  0.17141329  0.89498333  0.21767924  1
  O  O160  1  0.87521820  0.80975407  0.32123576  1
  O  O161  1  0.88636258  0.29295594  0.23750888  1
  O  O162  1  0.01743759  0.30451181  0.30574571  1
  O  O163  1  0.03474129  0.78619535  0.22277534  1
  O  O164  1  0.39248787  0.28605826  0.22273923  1
  O  O165  1  0.37379178  0.80450697  0.30580862  1
  O  O166  1  0.52806302  0.79309615  0.23748685  1
  O  O167  1  0.50576953  0.30979260  0.32119183  1
  O  O168  1  0.76199586  0.02371079  0.39783120  1
  O  O169  1  0.05053823  0.15447419  0.38869189  1
  O  O170  1  0.64116279  0.65418564  0.38876103  1
  O  O171  1  0.19116864  0.52363778  0.39787423  1
  O  O172  1  0.55716990  0.00305411  0.33942747  1
  O  O173  1  0.50590500  0.53990255  0.42002928  1
  O  O174  1  0.30544113  0.63950579  0.37220758  1
  O  O175  1  0.41581488  0.13969992  0.37216616  1
  O  O176  1  0.41450734  0.03994755  0.41998533  1
  O  O177  1  0.43738167  0.50270308  0.33952631  1
  O  O178  1  0.64111728  0.49552673  0.37028710  1
  O  O179  1  0.22544029  0.14024853  0.33990053  1
  O  O180  1  0.49507848  0.63976266  0.33992321  1
  O  O181  1  0.36809064  0.99579436  0.37022996  1
  O  O182  1  0.91508331  0.94947693  0.35433403  1
  O  O183  1  0.03682361  0.11595381  0.43115969  1
  O  O184  1  0.94825602  0.68305712  0.35789236  1
  O  O185  1  0.68565573  0.18306117  0.35784613  1
  O  O186  1  0.73228330  0.61563678  0.43120872  1
  O  O187  1  0.18620131  0.44942617  0.35437159  1
  O  O188  1  0.00169071  0.44465952  0.39195255  1
  O  O189  1  0.85177491  0.71268233  0.40932464  1
  O  O190  1  0.72327922  0.21296928  0.40925620  1
  O  O191  1  0.10936366  0.94469852  0.39189489  1
  O  O192  1  0.84944824  0.32850604  0.41396005  1
  O  O193  1  0.99650951  0.82248268  0.39241867  1
  O  O194  1  0.35906835  0.32244603  0.39241602  1
  O  O195  1  0.49468698  0.82822114  0.41398150  1
