# generated using pymatgen
data_Na11Zr6Si6P3O37
_symmetry_space_group_name_H-M   'P 1'
_cell_length_a   9.07514300
_cell_length_b   9.06848800
_cell_length_c   45.56167100
_cell_angle_alpha   90.00000000
_cell_angle_beta   90.00000000
_cell_angle_gamma   90.00000000
_symmetry_Int_Tables_number   1
_chemical_formula_structural   Na11Zr6Si6P3O37
_chemical_formula_sum   'Na22 Zr12 Si12 P6 O74'
_cell_volume   3749.62644461
_cell_formula_units_Z   2
loop_
 _symmetry_equiv_pos_site_id
 _symmetry_equiv_pos_as_xyz
  1  'x, y, z'
loop_
 _atom_site_type_symbol
 _atom_site_label
 _atom_site_symmetry_multiplicity
 _atom_site_fract_x
 _atom_site_fract_y
 _atom_site_fract_z
 _atom_site_occupancy
  Na  Na0  1  0.85662785  0.83001398  0.04415471  1
  Na  Na1  1  0.68277375  0.44600680  0.03286651  1
  Na  Na2  1  0.11367567  0.18625843  0.03668592  1
  Na  Na3  1  0.41125591  0.98431426  0.06337672  1
  Na  Na4  1  0.62790533  0.47536081  0.10900295  1
  Na  Na5  1  0.10290026  0.29015522  0.11123890  1
  Na  Na6  1  0.25609221  0.25638745  0.20357771  1
  Na  Na7  1  0.96365941  0.01576498  0.16091142  1
  Na  Na8  1  0.46976485  0.78266978  0.16284545  1
  Na  Na9  1  0.75823944  0.52287479  0.20179816  1
  Na  Na10  1  0.10441539  0.99460722  0.25536085  1
  Na  Na11  1  0.60420422  0.79467054  0.25547617  1
  Na  Na12  1  0.73917638  0.78196057  0.34777032  1
  Na  Na13  1  0.45012436  0.52246745  0.30885983  1
  Na  Na14  1  0.95316582  0.25661189  0.30705790  1
  Na  Na15  1  0.24513154  0.01622125  0.34978556  1
  Na  Na16  1  0.58046669  0.47530932  0.40186441  1
  Na  Na17  1  0.10577514  0.29002051  0.39950571  1
  Na  Na18  1  0.09514200  0.18631946  0.47409267  1
  Na  Na19  1  0.79724181  0.98425248  0.44730129  1
  Na  Na20  1  0.35168063  0.83002335  0.46649480  1
  Na  Na21  1  0.52607531  0.44654470  0.47791800  1
  Zr  Zr22  1  0.32781292  0.62600517  0.08546362  1
  Zr  Zr23  1  0.40875061  0.15374172  0.13924561  1
  Zr  Zr24  1  0.90662592  0.64310416  0.13798098  1
  Zr  Zr25  1  0.82845718  0.14972154  0.07420858  1
  Zr  Zr26  1  0.81922617  0.14307809  0.22550518  1
  Zr  Zr27  1  0.89060310  0.64932028  0.28418266  1
  Zr  Zr28  1  0.38993446  0.14283429  0.28518578  1
  Zr  Zr29  1  0.31834582  0.64959590  0.22645139  1
  Zr  Zr30  1  0.30213884  0.64313511  0.37267974  1
  Zr  Zr31  1  0.38048733  0.14994732  0.43651225  1
  Zr  Zr32  1  0.88093833  0.62604949  0.42517902  1
  Zr  Zr33  1  0.80024500  0.15361896  0.37145740  1
  Si  Si34  1  0.95870698  0.51632754  0.06632279  1
  Si  Si35  1  0.44704967  0.29000471  0.06595440  1
  Si  Si36  1  0.45576606  0.00720508  0.21440976  1
  Si  Si37  1  0.77585544  0.28057183  0.15055755  1
  Si  Si38  1  0.26876127  0.50269549  0.15291998  1
  Si  Si39  1  0.95365525  0.78418858  0.21359918  1
  Si  Si40  1  0.94011881  0.50205953  0.35772349  1
  Si  Si41  1  0.25508303  0.78416339  0.29707038  1
  Si  Si42  1  0.75349764  0.00741618  0.29627610  1
  Si  Si43  1  0.43324963  0.28081022  0.36014244  1
  Si  Si44  1  0.76179885  0.29010454  0.44477645  1
  Si  Si45  1  0.24975138  0.51633295  0.44440688  1
  P  P46  1  0.61849507  0.85250246  0.10569462  1
  P  P47  1  0.12475073  0.93947328  0.10647714  1
  P  P48  1  0.10476518  0.35361049  0.25530882  1
  P  P49  1  0.60446601  0.43785441  0.25533528  1
  P  P50  1  0.59046451  0.85252864  0.40487318  1
  P  P51  1  0.08448983  0.93954185  0.40424744  1
  O  O52  1  0.87217802  0.56850922  0.09651265  1
  O  O53  1  0.87047209  0.20372777  0.12449619  1
  O  O54  1  0.37802995  0.56552605  0.12606056  1
  O  O55  1  0.37384184  0.24613764  0.09811417  1
  O  O56  1  0.23991900  0.84333701  0.08947231  1
  O  O57  1  0.50866640  0.95711065  0.12155136  1
  O  O58  1  0.01104348  0.84050436  0.12238420  1
  O  O59  1  0.73061118  0.93972360  0.08750185  1
  O  O60  1  0.05244197  0.04262928  0.08405183  1
  O  O61  1  0.68732948  0.75337999  0.12968268  1
  O  O62  1  0.20201474  0.03062751  0.13095758  1
  O  O63  1  0.52825859  0.75787713  0.08301847  1
  O  O64  1  0.13656223  0.55760841  0.07151189  1
  O  O65  1  0.62808413  0.25805488  0.06844778  1
  O  O66  1  0.44706264  0.47522409  0.06261425  1
  O  O67  1  0.95797817  0.33465551  0.06616872  1
  O  O68  1  0.88294524  0.58808806  0.03790841  1
  O  O69  1  0.36590995  0.20015172  0.04036522  1
  O  O70  1  0.86798441  0.07496123  0.03669839  1
  O  O71  1  0.35162471  0.08250982  0.23970606  1
  O  O72  1  0.35690295  0.70915595  0.27124016  1
  O  O73  1  0.85732922  0.08297729  0.27097132  1
  O  O74  1  0.85178208  0.70914721  0.23941523  1
  O  O75  1  0.72057418  0.34383952  0.23929658  1
  O  O76  1  0.98887672  0.44748005  0.27138985  1
  O  O77  1  0.48890145  0.34342644  0.27142896  1
  O  O78  1  0.22059487  0.44751314  0.23921818  1
  O  O79  1  0.53221797  0.53630809  0.23151229  1
  O  O80  1  0.17652010  0.25480181  0.27907133  1
  O  O81  1  0.67614880  0.53707875  0.27909840  1
  O  O82  1  0.03292283  0.25474649  0.23155852  1
  O  O83  1  0.62871254  0.03861284  0.22228501  1
  O  O84  1  0.59918125  0.25673285  0.14385424  1
  O  O85  1  0.10289331  0.54323118  0.14206733  1
  O  O86  1  0.12658237  0.75019791  0.22158286  1
  O  O87  1  0.94417933  0.96503479  0.21315714  1
  O  O88  1  0.27685282  0.32319325  0.15538261  1
  O  O89  1  0.79087856  0.46240591  0.15260675  1
  O  O90  1  0.44368097  0.82641176  0.21384294  1
  O  O91  1  0.82327167  0.21394639  0.18271619  1
  O  O92  1  0.40884811  0.06633187  0.18173552  1
  O  O93  1  0.90249394  0.72403451  0.18129449  1
  O  O94  1  0.32394090  0.58142243  0.18280897  1
  O  O95  1  0.83107309  0.56531293  0.38457909  1
  O  O96  1  0.83475550  0.24616768  0.41260616  1
  O  O97  1  0.33606463  0.56870906  0.41420153  1
  O  O98  1  0.33837300  0.20424797  0.38620945  1
  O  O99  1  0.19807838  0.84070180  0.38827602  1
  O  O100  1  0.47881125  0.94018398  0.42310097  1
  O  O101  1  0.96939514  0.84341139  0.42127425  1
  O  O102  1  0.70064960  0.95669822  0.38901763  1
  O  O103  1  0.00696576  0.03064265  0.37978909  1
  O  O104  1  0.68047137  0.75754726  0.42753685  1
  O  O105  1  0.15689238  0.04282399  0.42663738  1
  O  O106  1  0.52118454  0.75360636  0.38091804  1
  O  O107  1  0.10594812  0.54338576  0.36847316  1
  O  O108  1  0.08221271  0.75011942  0.28909255  1
  O  O109  1  0.58030879  0.03809362  0.28844406  1
  O  O110  1  0.60982235  0.25657628  0.36689305  1
  O  O111  1  0.41843191  0.46265741  0.35812228  1
  O  O112  1  0.76618657  0.82665632  0.29686642  1
  O  O113  1  0.26465540  0.96499169  0.29756175  1
  O  O114  1  0.93262654  0.32262230  0.35535570  1
  O  O115  1  0.30625497  0.72376186  0.32935230  1
  O  O116  1  0.88454576  0.58002233  0.32776573  1
  O  O117  1  0.38596878  0.21425209  0.32796791  1
  O  O118  1  0.80008070  0.06698127  0.32892774  1
  O  O119  1  0.58062719  0.25859368  0.44230359  1
  O  O120  1  0.07198059  0.55776989  0.43920598  1
  O  O121  1  0.25051375  0.33467737  0.44454783  1
  O  O122  1  0.76179632  0.47536548  0.44810045  1
  O  O123  1  0.84288519  0.20010138  0.47034193  1
  O  O124  1  0.34105535  0.07485656  0.47400221  1
  O  O125  1  0.32559228  0.58812721  0.47281139  1
