# generated using pymatgen
data_Na20Zr14Si12P6O77
_symmetry_space_group_name_H-M   'P 1'
_cell_length_a   9.13268800
_cell_length_b   24.27702622
_cell_length_c   48.41287200
_cell_angle_alpha   90.00000000
_cell_angle_beta   90.00000000
_cell_angle_gamma   56.47052858
_symmetry_Int_Tables_number   1
_chemical_formula_structural   Na20Zr14Si12P6O77
_chemical_formula_sum   'Na40 Zr28 Si24 P12 O154'
_cell_volume   8947.74511956
_cell_formula_units_Z   2
loop_
 _symmetry_equiv_pos_site_id
 _symmetry_equiv_pos_as_xyz
  1  'x, y, z'
loop_
 _atom_site_type_symbol
 _atom_site_label
 _atom_site_symmetry_multiplicity
 _atom_site_fract_x
 _atom_site_fract_y
 _atom_site_fract_z
 _atom_site_occupancy
  Na  Na0  1  0.95590750  0.42685101  0.09635543  1
  Na  Na1  1  0.28820034  0.46598092  0.07721894  1
  Na  Na2  1  0.25143652  0.86050272  0.00680574  1
  Na  Na3  1  0.48824786  0.26129616  0.08324767  1
  Na  Na4  1  0.71128209  0.50745000  0.00342960  1
  Na  Na5  1  0.66569572  0.68189928  0.10150750  1
  Na  Na6  1  0.66449685  0.01955078  0.03353617  1
  Na  Na7  1  0.06726195  0.38821058  0.02426780  1
  Na  Na8  1  0.99993248  0.05600645  0.09467190  1
  Na  Na9  1  0.36321158  0.14915787  0.11290363  1
  Na  Na10  1  0.07712526  0.85216316  0.06058105  1
  Na  Na11  1  0.02745579  0.66845563  0.23317678  1
  Na  Na12  1  0.92193685  0.01429834  0.18151469  1
  Na  Na13  1  0.41179372  0.71575225  0.20479624  1
  Na  Na14  1  0.18386163  0.06955442  0.15795078  1
  Na  Na15  1  0.61217940  0.50550214  0.20564411  1
  Na  Na16  1  0.60875714  0.83562334  0.14383523  1
  Na  Na17  1  0.82895768  0.87916419  0.23188932  1
  Na  Na18  1  0.69559319  0.32650536  0.17276839  1
  Na  Na19  1  0.06127855  0.68085409  0.15562346  1
  Na  Na20  1  0.08957933  0.31773138  0.21390349  1
  Na  Na21  1  0.24467762  0.45471696  0.15241211  1
  Na  Na22  1  0.35208125  0.06671600  0.22362657  1
  Na  Na23  1  0.15181002  0.91906418  0.36050620  1
  Na  Na24  1  0.25757076  0.31529486  0.27963721  1
  Na  Na25  1  0.48244224  0.95841302  0.34132759  1
  Na  Na26  1  0.51836646  0.37074860  0.25568110  1
  Na  Na27  1  0.77435933  0.70303021  0.33640617  1
  Na  Na28  1  0.74522755  0.05829567  0.26466821  1
  Na  Na29  1  0.95073096  0.12465290  0.35405870  1
  Na  Na30  1  0.83129028  0.55006164  0.29382234  1
  Na  Na31  1  0.19569568  0.93022749  0.28497904  1
  Na  Na32  1  0.36290734  0.53271197  0.37702042  1
  Na  Na33  1  0.37914660  0.70403940  0.28202385  1
  Na  Na34  1  0.44246636  0.32816184  0.34283633  1
  Na  Na35  1  0.18936451  0.52382887  0.43087091  1
  Na  Na36  1  0.77580823  0.36493210  0.40399994  1
  Na  Na37  1  0.72876523  0.87785563  0.43415530  1
  Na  Na38  1  0.07711690  0.23578143  0.32414978  1
  Na  Na39  1  0.37195674  0.99711568  0.41315831  1
  Zr  Zr40  1  0.88900049  0.54851437  0.05035042  1
  Zr  Zr41  1  0.95183625  0.19528627  0.11001259  1
  Zr  Zr42  1  0.19084356  0.09305590  0.02278909  1
  Zr  Zr43  1  0.23493758  0.69093732  0.08326228  1
  Zr  Zr44  1  0.72560324  0.37374946  0.04413239  1
  Zr  Zr45  1  0.77819245  0.99715811  0.10593963  1
  Zr  Zr46  1  0.39622688  0.20393524  0.02219941  1
  Zr  Zr47  1  0.42339984  0.87456800  0.08376126  1
  Zr  Zr48  1  0.02243225  0.82156541  0.17185862  1
  Zr  Zr49  1  0.08755421  0.44522088  0.23450540  1
  Zr  Zr50  1  0.28583204  0.31258261  0.14217380  1
  Zr  Zr51  1  0.35329293  0.93955819  0.20305120  1
  Zr  Zr52  1  0.83043065  0.62298418  0.17014205  1
  Zr  Zr53  1  0.89018675  0.24930303  0.23220534  1
  Zr  Zr54  1  0.48702433  0.50889914  0.14003224  1
  Zr  Zr55  1  0.55051407  0.13536612  0.20510553  1
  Zr  Zr56  1  0.15445354  0.07220359  0.29524545  1
  Zr  Zr57  1  0.20556139  0.69390840  0.35438749  1
  Zr  Zr58  1  0.41875080  0.56314836  0.26570411  1
  Zr  Zr59  1  0.48858315  0.18963580  0.32722651  1
  Zr  Zr60  1  0.95405434  0.87581901  0.29756644  1
  Zr  Zr61  1  0.01709584  0.51036415  0.35377907  1
  Zr  Zr62  1  0.61044635  0.76184101  0.26744538  1
  Zr  Zr63  1  0.66248392  0.38754604  0.33146936  1
  Zr  Zr64  1  0.24891620  0.29188607  0.41462882  1
  Zr  Zr65  1  0.55143024  0.83642294  0.38736365  1
  Zr  Zr66  1  0.04334963  0.18129044  0.41514366  1
  Zr  Zr67  1  0.71384437  0.01136054  0.39329745  1
  Si  Si68  1  0.12621582  0.28116660  0.07964563  1
  Si  Si69  1  0.07235630  0.59929043  0.10775572  1
  Si  Si70  1  0.03824589  0.97944110  0.04194729  1
  Si  Si71  1  0.76470696  0.22116146  0.04222366  1
  Si  Si72  1  0.85504190  0.83695726  0.10331180  1
  Si  Si73  1  0.35266741  0.03603279  0.08595315  1
  Si  Si74  1  0.23813106  0.53908600  0.20252149  1
  Si  Si75  1  0.17596961  0.91492077  0.14107991  1
  Si  Si76  1  0.20270256  0.84584328  0.23505908  1
  Si  Si77  1  0.14493047  0.21289730  0.17244800  1
  Si  Si78  1  0.91650757  0.46057208  0.16820444  1
  Si  Si79  1  0.98318016  0.08528475  0.23014954  1
  Si  Si80  1  0.40181858  0.66945674  0.14604634  1
  Si  Si81  1  0.45732582  0.29936867  0.20728759  1
  Si  Si82  1  0.36873021  0.78556878  0.32985880  1
  Si  Si83  1  0.29593624  0.17163024  0.26484284  1
  Si  Si84  1  0.31342020  0.10422174  0.35771024  1
  Si  Si85  1  0.26477317  0.46988327  0.29646747  1
  Si  Si86  1  0.03898609  0.71517932  0.29164319  1
  Si  Si87  1  0.08803987  0.34868814  0.35125408  1
  Si  Si88  1  0.52447381  0.92425194  0.26930478  1
  Si  Si89  1  0.58561268  0.54781171  0.33421450  1
  Si  Si90  1  0.40241153  0.40518832  0.39548671  1
  Si  Si91  1  0.67472980  0.16399971  0.39514559  1
  P  P92  1  0.53965264  0.52773727  0.06896984  1
  P  P93  1  0.58160913  0.35378378  0.11548997  1
  P  P94  1  0.49252365  0.73257026  0.04787755  1
  P  P95  1  0.73835632  0.77524965  0.19755088  1
  P  P96  1  0.68439060  0.14648242  0.13647958  1
  P  P97  1  0.70258449  0.60950328  0.24002175  1
  P  P98  1  0.64415401  0.98116059  0.17635276  1
  P  P99  1  0.85936988  0.03098667  0.32201194  1
  P  P100  1  0.79694670  0.40335747  0.26105847  1
  P  P101  1  0.90102878  0.85710950  0.36862762  1
  P  P102  1  0.75588112  0.23842765  0.30076203  1
  P  P103  1  0.94841000  0.65220448  0.38990577  1
  O  O104  1  0.95958936  0.34269511  0.06338295  1
  O  O105  1  0.25264779  0.53204763  0.12012126  1
  O  O106  1  0.22262813  0.91339188  0.05561228  1
  O  O107  1  0.79655099  0.20742433  0.07626511  1
  O  O108  1  0.90885459  0.53402351  0.01253910  1
  O  O109  1  0.38482229  0.68955366  0.11308051  1
  O  O110  1  0.36059318  0.04495968  0.05230633  1
  O  O111  1  0.74282014  0.28640316  0.12607176  1
  O  O112  1  0.65008630  0.66192444  0.05407023  1
  O  O113  1  0.37010921  0.59763952  0.06540168  1
  O  O114  1  0.59975947  0.36910358  0.08580044  1
  O  O115  1  0.47475298  0.76123008  0.01941509  1
  O  O116  1  0.58751737  0.51052444  0.10029173  1
  O  O117  1  0.69148894  0.52634686  0.05471026  1
  O  O118  1  0.41288350  0.35267378  0.11808512  1
  O  O119  1  0.31748498  0.73592326  0.05525247  1
  O  O120  1  0.51327400  0.47586757  0.05555616  1
  O  O121  1  0.67829042  0.10040110  0.11494187  1
  O  O122  1  0.34277908  0.12759252  0.01224653  1
  O  O123  1  0.49942081  0.77966524  0.07063156  1
  O  O124  1  0.07538842  0.23264224  0.09319727  1
  O  O125  1  0.10755679  0.65904691  0.10543884  1
  O  O126  1  0.09208121  0.03087106  0.03006317  1
  O  O127  1  0.70321370  0.29663360  0.03459949  1
  O  O128  1  0.84778320  0.90515471  0.09618679  1
  O  O129  1  0.25299427  0.28051303  0.00423510  1
  O  O130  1  0.35534354  0.96962506  0.09140037  1
  O  O131  1  0.06270118  0.45948423  0.06296979  1
  O  O132  1  0.16937831  0.09881751  0.09931892  1
  O  O133  1  0.96400655  0.17173219  0.02875740  1
  O  O134  1  0.01110657  0.78220077  0.08298301  1
  O  O135  1  0.77654365  0.40508334  0.01332073  1
  O  O136  1  0.88458614  0.00989858  0.06786219  1
  O  O137  1  0.30196187  0.23202230  0.06094195  1
  O  O138  1  0.34469112  0.86673842  0.12082173  1
  O  O139  1  0.00466540  0.58511818  0.07956398  1
  O  O140  1  0.96995973  0.94891333  0.01949877  1
  O  O141  1  0.19080241  0.31079859  0.10353987  1
  O  O142  1  0.51925898  0.03805911  0.09646280  1
  O  O143  1  0.62407301  0.20266549  0.03219535  1
  O  O144  1  0.67102324  0.84353248  0.09565067  1
  O  O145  1  0.05684310  0.60515605  0.19062045  1
  O  O146  1  0.01043583  0.97603243  0.12433289  1
  O  O147  1  0.38397310  0.77976832  0.24698786  1
  O  O148  1  0.31666429  0.15364543  0.18927647  1
  O  O149  1  0.95848522  0.43500957  0.20067366  1
  O  O150  1  0.89166222  0.81877356  0.13647804  1
  O  O151  1  0.48278369  0.94982114  0.23683209  1
  O  O152  1  0.40376974  0.32758193  0.17563379  1
  O  O153  1  0.86209745  0.53830674  0.24617320  1
  O  O154  1  0.78977974  0.91036420  0.18611419  1
  O  O155  1  0.57835844  0.84641504  0.19147628  1
  O  O156  1  0.52220145  0.21687284  0.13069655  1
  O  O157  1  0.71639834  0.63199890  0.21104958  1
  O  O158  1  0.69134202  0.99276156  0.14737201  1
  O  O159  1  0.72469733  0.75263267  0.22650707  1
  O  O160  1  0.67974606  0.12386181  0.16602402  1
  O  O161  1  0.91077951  0.77369082  0.19611844  1
  O  O162  1  0.86014828  0.14150803  0.13237137  1
  O  O163  1  0.52961197  0.61141667  0.24147179  1
  O  O164  1  0.46407405  0.98838054  0.17756211  1
  O  O165  1  0.74432436  0.72968313  0.17452771  1
  O  O166  1  0.79821267  0.35462968  0.23995531  1
  O  O167  1  0.56289873  0.40654283  0.13627170  1
  O  O168  1  0.64231337  0.03018059  0.19734644  1
  O  O169  1  0.19645774  0.48543407  0.21461674  1
  O  O170  1  0.11447331  0.86970238  0.15477436  1
  O  O171  1  0.24399662  0.89967165  0.22306722  1
  O  O172  1  0.19196878  0.26620602  0.16194042  1
  O  O173  1  0.92139211  0.52718685  0.16620824  1
  O  O174  1  0.95872070  0.15719604  0.22818013  1
  O  O175  1  0.39781799  0.60349186  0.14924654  1
  O  O176  1  0.48104985  0.22757341  0.20931701  1
  O  O177  1  0.23516112  0.72697242  0.16432543  1
  O  O178  1  0.29895134  0.34757099  0.22942619  1
  O  O179  1  0.06879254  0.40740887  0.14675545  1
  O  O180  1  0.14225136  0.03724793  0.20807697  1
  O  O181  1  0.91633547  0.62826748  0.13211990  1
  O  O182  1  0.97413062  0.25635833  0.19318740  1
  O  O183  1  0.38591317  0.50178156  0.17805009  1
  O  O184  1  0.46682033  0.12812471  0.24414156  1
  O  O185  1  0.12840554  0.82075565  0.21058497  1
  O  O186  1  0.10256191  0.17992600  0.14681707  1
  O  O187  1  0.31279493  0.56412968  0.22695248  1
  O  O188  1  0.23329355  0.94665054  0.16522813  1
  O  O189  1  0.58001426  0.66094132  0.15732646  1
  O  O190  1  0.63404967  0.29689231  0.21580497  1
  O  O191  1  0.72457096  0.47575715  0.15971419  1
  O  O192  1  0.80687612  0.08757167  0.22151833  1
  O  O193  1  0.18852599  0.85271800  0.31741992  1
  O  O194  1  0.12432193  0.23082707  0.24799115  1
  O  O195  1  0.47982236  0.04262248  0.37398161  1
  O  O196  1  0.42988930  0.40875208  0.31326764  1
  O  O197  1  0.05513003  0.69532178  0.32464042  1
  O  O198  1  0.03627457  0.05710099  0.26183799  1
  O  O199  1  0.64247513  0.17801069  0.36111450  1
  O  O200  1  0.54937080  0.56603064  0.30105507  1
  O  O201  1  0.07038203  0.78722442  0.37232883  1
  O  O202  1  0.91786971  0.16797460  0.30648372  1
  O  O203  1  0.69816426  0.09834000  0.31139179  1
  O  O204  1  0.65165484  0.47436905  0.25144574  1
  O  O205  1  0.85417111  0.87422106  0.33728191  1
  O  O206  1  0.76080648  0.26127656  0.27129408  1
  O  O207  1  0.84044278  0.01559192  0.35164565  1
  O  O208  1  0.74940341  0.39163106  0.28999209  1
  O  O209  1  0.02777438  0.03234367  0.31959562  1
  O  O210  1  0.97734577  0.39591638  0.25986719  1
  O  O211  1  0.74847654  0.85863841  0.38270739  1
  O  O212  1  0.58004364  0.24344121  0.30479141  1
  O  O213  1  0.87900525  0.97816885  0.30117424  1
  O  O214  1  0.94179807  0.60509781  0.36709769  1
  O  O215  1  0.69696760  0.65509218  0.26300127  1
  O  O216  1  0.76195707  0.28427991  0.32244272  1
  O  O217  1  0.33332928  0.72585501  0.33232560  1
  O  O218  1  0.24884539  0.11836798  0.27543314  1
  O  O219  1  0.36454018  0.15260734  0.34412804  1
  O  O220  1  0.32664064  0.51498473  0.28275779  1
  O  O221  1  0.04315997  0.78113940  0.28852168  1
  O  O222  1  0.08413799  0.41545212  0.34612755  1
  O  O223  1  0.51972941  0.85758931  0.27126590  1
  O  O224  1  0.59366234  0.47943332  0.34125423  1
  O  O225  1  0.37164082  0.97731252  0.29074003  1
  O  O226  1  0.42870073  0.60245047  0.35447383  1
  O  O227  1  0.20577649  0.65761005  0.27341074  1
  O  O228  1  0.27117100  0.28634458  0.33767482  1
  O  O229  1  0.05483090  0.88290599  0.25952110  1
  O  O230  1  0.09590294  0.51819137  0.31669655  1
  O  O231  1  0.52491002  0.75639036  0.30550860  1
  O  O232  1  0.55633869  0.37474485  0.36962933  1
  O  O233  1  0.24853856  0.07452017  0.33388493  1
  O  O234  1  0.20776629  0.43808829  0.27229997  1
  O  O235  1  0.43640545  0.79980090  0.35803994  1
  O  O236  1  0.33835694  0.20463437  0.29045046  1
  O  O237  1  0.71637570  0.90900282  0.27787805  1
  O  O238  1  0.76894471  0.54170130  0.34199274  1
  O  O239  1  0.86112787  0.72367872  0.28019881  1
  O  O240  1  0.92166433  0.34656199  0.34072460  1
  O  O241  1  0.21830300  0.47134148  0.38182889  1
  O  O242  1  0.08102955  0.33891381  0.38485397  1
  O  O243  1  0.53281642  0.85045172  0.42519599  1
  O  O244  1  0.79045417  0.72281843  0.38380052  1
  O  O245  1  0.96674579  0.62327720  0.41832847  1
  O  O246  1  0.12307100  0.64913361  0.38251980  1
  O  O247  1  0.09605843  0.25771256  0.42527730  1
  O  O248  1  0.92680852  0.90907417  0.38211556  1
  O  O249  1  0.34786269  0.35389280  0.40730162  1
  O  O250  1  0.18694246  0.10461365  0.43302164  1
  O  O251  1  0.73640310  0.08847089  0.40268666  1
  O  O252  1  0.47567894  0.21314316  0.40874166  1
  O  O253  1  0.37690264  0.92557654  0.37489516  1
  O  O254  1  0.13758879  0.15355873  0.37637589  1
  O  O255  1  0.66231721  0.98030400  0.42413579  1
  O  O256  1  0.47055469  0.43553116  0.41804819  1
  O  O257  1  0.81546924  0.18252186  0.40512421  1
