# generated using pymatgen
data_Na23Zr16Si14P7O89
_symmetry_space_group_name_H-M   'P 1'
_cell_length_a   9.13268800
_cell_length_b   24.27702622
_cell_length_c   48.41287200
_cell_angle_alpha   90.00000000
_cell_angle_beta   90.00000000
_cell_angle_gamma   56.47052858
_symmetry_Int_Tables_number   1
_chemical_formula_structural   Na23Zr16Si14P7O89
_chemical_formula_sum   'Na46 Zr32 Si28 P14 O178'
_cell_volume   8947.74511956
_cell_formula_units_Z   2
loop_
 _symmetry_equiv_pos_site_id
 _symmetry_equiv_pos_as_xyz
  1  'x, y, z'
loop_
 _atom_site_type_symbol
 _atom_site_label
 _atom_site_symmetry_multiplicity
 _atom_site_fract_x
 _atom_site_fract_y
 _atom_site_fract_z
 _atom_site_occupancy
  Na  Na0  1  0.94114466  0.92299659  0.09290917  1
  Na  Na1  1  0.24665539  0.35196675  0.00316132  1
  Na  Na2  1  0.27834483  0.96035221  0.07435921  1
  Na  Na3  1  0.70239404  0.99950671  0.99986815  1
  Na  Na4  1  0.46869931  0.76902530  0.07703744  1
  Na  Na5  1  0.68350162  0.52162775  0.01836217  1
  Na  Na6  1  0.66235410  0.17407571  0.09798986  1
  Na  Na7  1  0.95114750  0.56929786  0.08496305  1
  Na  Na8  1  0.05669712  0.88150298  0.02003824  1
  Na  Na9  1  0.09970983  0.34098169  0.06272348  1
  Na  Na10  1  0.39095888  0.64212187  0.08877523  1
  Na  Na11  1  0.96320195  0.54338949  0.16456657  1
  Na  Na12  1  0.04603458  0.16941553  0.22613311  1
  Na  Na13  1  0.31709413  0.57292987  0.14665170  1
  Na  Na14  1  0.41663533  0.20688019  0.20090133  1
  Na  Na15  1  0.59356393  0.33260851  0.14083508  1
  Na  Na16  1  0.61923541  0.98757434  0.20312131  1
  Na  Na17  1  0.70256787  0.81317401  0.16858327  1
  Na  Na18  1  0.78109542  0.42118509  0.22824996  1
  Na  Na19  1  0.09994829  0.80765393  0.21539299  1
  Na  Na20  1  0.04859417  0.17799065  0.15042571  1
  Na  Na21  1  0.32834857  0.56534494  0.21821854  1
  Na  Na22  1  0.24223783  0.94792080  0.15061601  1
  Na  Na23  1  0.05506735  0.77638433  0.29835514  1
  Na  Na24  1  0.16684469  0.42898252  0.34978687  1
  Na  Na25  1  0.44092862  0.82583008  0.26804285  1
  Na  Na26  1  0.54002854  0.45920475  0.32438662  1
  Na  Na27  1  0.71901333  0.57467746  0.26345483  1
  Na  Na28  1  0.79848783  0.18029830  0.32343019  1
  Na  Na29  1  0.88712788  0.99903476  0.29014749  1
  Na  Na30  1  0.92961169  0.62783952  0.35109703  1
  Na  Na31  1  0.25436182  0.04934263  0.34284070  1
  Na  Na32  1  0.17294124  0.43098811  0.27482875  1
  Na  Na33  1  0.44119041  0.82161517  0.34259105  1
  Na  Na34  1  0.39989179  0.18903976  0.28021450  1
  Na  Na35  1  0.21446726  0.03703509  0.41869013  1
  Na  Na36  1  0.24952264  0.64173936  0.48924098  1
  Na  Na37  1  0.55257707  0.07372135  0.39981367  1
  Na  Na38  1  0.83709469  0.81962272  0.39444545  1
  Na  Na39  1  0.83068919  0.48370120  0.46474034  1
  Na  Na40  1  0.02659673  0.22985664  0.41486781  1
  Na  Na41  1  0.79657568  0.99423005  0.49335057  1
  Na  Na42  1  0.11823187  0.34824030  0.39831561  1
  Na  Na43  1  0.41696964  0.65206828  0.43486096  1
  Na  Na44  1  0.44163439  0.11034663  0.47290695  1
  Na  Na45  1  0.49025627  0.45008626  0.40016004  1
  Zr  Zr46  1  0.95195611  0.68735604  0.10829054  1
  Zr  Zr47  1  0.88557426  0.03982482  0.04643987  1
  Zr  Zr48  1  0.23159939  0.18336981  0.07950542  1
  Zr  Zr49  1  0.18321932  0.59051077  0.02012894  1
  Zr  Zr50  1  0.77700592  0.48987856  0.10179596  1
  Zr  Zr51  1  0.71153681  0.86707894  0.04024664  1
  Zr  Zr52  1  0.42385342  0.36848399  0.07825475  1
  Zr  Zr53  1  0.39165267  0.69758723  0.01827189  1
  Zr  Zr54  1  0.08776110  0.93980717  0.23044531  1
  Zr  Zr55  1  0.02414079  0.31316387  0.16831834  1
  Zr  Zr56  1  0.34776343  0.43328871  0.19917003  1
  Zr  Zr57  1  0.27352076  0.80832774  0.13799016  1
  Zr  Zr58  1  0.87835837  0.74471587  0.23013195  1
  Zr  Zr59  1  0.82595506  0.11741996  0.16704741  1
  Zr  Zr60  1  0.54705028  0.62800640  0.20035008  1
  Zr  Zr61  1  0.48289070  0.00222938  0.13659251  1
  Zr  Zr62  1  0.21933706  0.19001275  0.35477674  1
  Zr  Zr63  1  0.14921250  0.56482545  0.29237605  1
  Zr  Zr64  1  0.47353666  0.68497268  0.32463724  1
  Zr  Zr65  1  0.40884526  0.05828419  0.26240374  1
  Zr  Zr66  1  0.01451844  0.99448765  0.35645193  1
  Zr  Zr67  1  0.95005802  0.36956169  0.29202017  1
  Zr  Zr68  1  0.66765349  0.88184829  0.32660467  1
  Zr  Zr69  1  0.61427264  0.25396140  0.26340494  1
  Zr  Zr70  1  0.31057470  0.40789965  0.47302620  1
  Zr  Zr71  1  0.26649713  0.81260634  0.41420143  1
  Zr  Zr72  1  0.61187114  0.95549731  0.44627179  1
  Zr  Zr73  1  0.55152145  0.30695599  0.38684825  1
  Zr  Zr74  1  0.10890517  0.29625725  0.47487489  1
  Zr  Zr75  1  0.07554598  0.62961024  0.41319940  1
  Zr  Zr76  1  0.78103463  0.12805665  0.45320818  1
  Zr  Zr77  1  0.71973943  0.50643813  0.39008397  1
  Si  Si78  1  0.11363695  0.77566047  0.07603228  1
  Si  Si79  1  0.04537180  0.47255473  0.03736524  1
  Si  Si80  1  0.06695572  0.09168859  0.10438049  1
  Si  Si81  1  0.85282749  0.32945484  0.10046917  1
  Si  Si82  1  0.76477178  0.71093517  0.03800154  1
  Si  Si83  1  0.33373272  0.53431107  0.08474147  1
  Si  Si84  1  0.16682534  0.40850611  0.13696087  1
  Si  Si85  1  0.23164415  0.03504423  0.19850211  1
  Si  Si86  1  0.13584618  0.71056613  0.16993772  1
  Si  Si87  1  0.20449619  0.33774461  0.23091582  1
  Si  Si88  1  0.97847532  0.58014135  0.22723608  1
  Si  Si89  1  0.90991553  0.95601567  0.16472147  1
  Si  Si90  1  0.45351900  0.79142196  0.20246222  1
  Si  Si91  1  0.39966775  0.16254804  0.14201378  1
  Si  Si92  1  0.29449919  0.66090526  0.26186034  1
  Si  Si93  1  0.35540192  0.29047045  0.32455226  1
  Si  Si94  1  0.26604319  0.96260353  0.29425878  1
  Si  Si95  1  0.32575342  0.58973317  0.35478065  1
  Si  Si96  1  0.09556921  0.83504142  0.35188078  1
  Si  Si97  1  0.04269513  0.20651092  0.29003158  1
  Si  Si98  1  0.58514005  0.04255884  0.32835019  1
  Si  Si99  1  0.51868621  0.41814180  0.26461300  1
  Si  Si100  1  0.42859981  0.90432373  0.38909510  1
  Si  Si101  1  0.46028232  0.52260676  0.45416215  1
  Si  Si102  1  0.38300652  0.21882706  0.41771000  1
  Si  Si103  1  0.14774962  0.46695845  0.41120004  1
  Si  Si104  1  0.73985797  0.28091095  0.45447531  1
  Si  Si105  1  0.64553322  0.66579979  0.39339927  1
  P  P106  1  0.53483568  0.02005277  0.06498968  1
  P  P107  1  0.49123954  0.22460312  0.04392129  1
  P  P108  1  0.57167659  0.84857292  0.11170566  1
  P  P109  1  0.65966214  0.64428610  0.13017589  1
  P  P110  1  0.73781698  0.26871816  0.19434743  1
  P  P111  1  0.64557549  0.47412499  0.17267471  1
  P  P112  1  0.70137148  0.10217034  0.23714984  1
  P  P113  1  0.79790941  0.89590235  0.25696719  1
  P  P114  1  0.84860555  0.52486519  0.31935824  1
  P  P115  1  0.76241347  0.72956922  0.29927154  1
  P  P116  1  0.82687680  0.35417788  0.36179682  1
  P  P117  1  0.92139210  0.14895628  0.38092695  1
  P  P118  1  0.00843082  0.77090379  0.44917965  1
  P  P119  1  0.96150353  0.97595159  0.42783865  1
  O  O120  1  0.99624565  0.47366930  0.12245153  1
  O  O121  1  0.94560115  0.83456750  0.05923022  1
  O  O122  1  0.22372449  0.40265020  0.04944711  1
  O  O123  1  0.24724873  0.02491457  0.11699684  1
  O  O124  1  0.90294472  0.02526200  0.00859730  1
  O  O125  1  0.81841324  0.68950542  0.07116591  1
  O  O126  1  0.27745538  0.57910075  0.05636817  1
  O  O127  1  0.38051384  0.18354926  0.10907185  1
  O  O128  1  0.64870347  0.15414882  0.05040413  1
  O  O129  1  0.73217018  0.77935903  0.12072278  1
  O  O130  1  0.36849932  0.09059821  0.06129052  1
  O  O131  1  0.47404472  0.25235316  0.01528541  1
  O  O132  1  0.58718509  0.86531564  0.08208946  1
  O  O133  1  0.58284295  0.00202499  0.09616566  1
  O  O134  1  0.68944448  0.01716187  0.05086152  1
  O  O135  1  0.31600264  0.22829527  0.05157316  1
  O  O136  1  0.40109596  0.84867626  0.11388656  1
  O  O137  1  0.66826750  0.59551401  0.10822907  1
  O  O138  1  0.50403972  0.96968424  0.05113914  1
  O  O139  1  0.49682257  0.27283436  0.06639627  1
  O  O140  1  0.36094605  0.61557795  0.00857612  1
  O  O141  1  0.07771988  0.72222647  0.08916993  1
  O  O142  1  0.10617385  0.52467670  0.02847270  1
  O  O143  1  0.10427998  0.15083820  0.10083629  1
  O  O144  1  0.85130537  0.39717634  0.09416764  1
  O  O145  1  0.68588941  0.78916187  0.03304968  1
  O  O146  1  0.35412697  0.46461198  0.08021217  1
  O  O147  1  0.24987664  0.77338538  0.99969163  1
  O  O148  1  0.17057754  0.58410701  0.10560288  1
  O  O149  1  0.05934140  0.95055294  0.05882850  1
  O  O150  1  0.00847652  0.27516623  0.07994663  1
  O  O151  1  0.94935174  0.66869669  0.01962619  1
  O  O152  1  0.89079691  0.50035049  0.06311981  1
  O  O153  1  0.76591493  0.89645372  0.00910097  1
  O  O154  1  0.32951188  0.36711686  0.11457680  1
  O  O155  1  0.29247029  0.72833461  0.05699079  1
  O  O156  1  0.97443339  0.45170375  0.01146275  1
  O  O157  1  0.00038034  0.07578293  0.07641412  1
  O  O158  1  0.17013900  0.80867841  0.09946287  1
  O  O159  1  0.51619786  0.52830238  0.09262409  1
  O  O160  1  0.66615393  0.33885049  0.09209299  1
  O  O161  1  0.62272682  0.69185823  0.02875141  1
  O  O162  1  0.11179630  0.72456505  0.24953182  1
  O  O163  1  0.05484629  0.10183548  0.18601010  1
  O  O164  1  0.31282946  0.64490438  0.18308230  1
  O  O165  1  0.38209113  0.27320387  0.24419740  1
  O  O166  1  0.88594046  0.30996433  0.13336735  1
  O  O167  1  0.95026527  0.93143203  0.19715297  1
  O  O168  1  0.40839166  0.81817123  0.17048821  1
  O  O169  1  0.47699520  0.44643597  0.23275613  1
  O  O170  1  0.79552121  0.40368100  0.18135253  1
  O  O171  1  0.85932292  0.03164092  0.24382242  1
  O  O172  1  0.49878291  0.71317856  0.12289500  1
  O  O173  1  0.57964026  0.34046079  0.18916343  1
  O  O174  1  0.67215772  0.49151883  0.14336103  1
  O  O175  1  0.71767648  0.12275038  0.20766286  1
  O  O176  1  0.65018358  0.62205325  0.15964058  1
  O  O177  1  0.73308675  0.24510764  0.22373537  1
  O  O178  1  0.83489201  0.64003315  0.12820237  1
  O  O179  1  0.91404768  0.26378888  0.19122121  1
  O  O180  1  0.46712684  0.47937659  0.17428433  1
  O  O181  1  0.52727638  0.10472885  0.23841562  1
  O  O182  1  0.80222074  0.84721571  0.23582997  1
  O  O183  1  0.73059101  0.22481566  0.17186026  1
  O  O184  1  0.63936207  0.52228169  0.19470966  1
  O  O185  1  0.56019557  0.89856604  0.13315225  1
  O  O186  1  0.11537718  0.35818766  0.14774486  1
  O  O187  1  0.18313769  0.98265179  0.20904458  1
  O  O188  1  0.18298316  0.76312394  0.15910600  1
  O  O189  1  0.24656574  0.39294030  0.22138232  1
  O  O190  1  0.97277751  0.64854619  0.22595994  1
  O  O191  1  0.91540290  0.02229377  0.16195029  1
  O  O192  1  0.46041060  0.72247233  0.20490520  1
  O  O193  1  0.39658254  0.09636055  0.14421180  1
  O  O194  1  0.29855840  0.84326067  0.22411413  1
  O  O195  1  0.23317273  0.21843811  0.16060261  1
  O  O196  1  0.13487973  0.52939205  0.20547450  1
  O  O197  1  0.06313985  0.90277358  0.14329040  1
  O  O198  1  0.97815789  0.75131550  0.19269751  1
  O  O199  1  0.91004691  0.12338111  0.12852945  1
  O  O200  1  0.45305807  0.62212345  0.23877452  1
  O  O201  1  0.38394692  0.99658904  0.17465668  1
  O  O202  1  0.06935884  0.68430337  0.14495192  1
  O  O203  1  0.14168647  0.31239230  0.20509389  1
  O  O204  1  0.23694697  0.43375701  0.16187087  1
  O  O205  1  0.30665670  0.05785100  0.22381335  1
  O  O206  1  0.63996782  0.78095819  0.21123437  1
  O  O207  1  0.57638841  0.15487247  0.15339947  1
  O  O208  1  0.79342442  0.59015302  0.21751138  1
  O  O209  1  0.72033019  0.96947647  0.15578482  1
  O  O210  1  0.24849005  0.97153869  0.37669438  1
  O  O211  1  0.17752362  0.35483383  0.31063220  1
  O  O212  1  0.44383704  0.89588400  0.30673998  1
  O  O213  1  0.49566259  0.52487452  0.36972121  1
  O  O214  1  0.02071951  0.55160502  0.25923021  1
  O  O215  1  0.08960651  0.17914115  0.32189616  1
  O  O216  1  0.54361565  0.06733453  0.29597276  1
  O  O217  1  0.61471937  0.68205813  0.36026012  1
  O  O218  1  0.91854022  0.65727413  0.30410757  1
  O  O219  1  0.98810095  0.28497006  0.36884054  1
  O  O220  1  0.63795280  0.96633447  0.25031716  1
  O  O221  1  0.70274873  0.59546440  0.31016253  1
  O  O222  1  0.75769165  0.75060409  0.26893442  1
  O  O223  1  0.83472516  0.37509908  0.33193188  1
  O  O224  1  0.78650919  0.87623801  0.28678277  1
  O  O225  1  0.81479025  0.50903330  0.34850668  1
  O  O226  1  0.96882064  0.89496413  0.25432876  1
  O  O227  1  0.02726204  0.51992050  0.31932652  1
  O  O228  1  0.58451515  0.73708684  0.30490867  1
  O  O229  1  0.64947139  0.36037614  0.36534622  1
  O  O230  1  0.93827015  0.09703222  0.35993099  1
  O  O231  1  0.85698216  0.47642389  0.29743387  1
  O  O232  1  0.78285480  0.77456117  0.31909755  1
  O  O233  1  0.69275634  0.15092423  0.25880117  1
  O  O234  1  0.25427255  0.60518726  0.27187095  1
  O  O235  1  0.31050126  0.23633323  0.33438624  1
  O  O236  1  0.31167869  0.01581374  0.28371516  1
  O  O237  1  0.38290588  0.63734624  0.34308291  1
  O  O238  1  0.10440186  0.89975247  0.34866161  1
  O  O239  1  0.03660417  0.27532647  0.28759269  1
  O  O240  1  0.57534058  0.97722998  0.33143836  1
  O  O241  1  0.52577582  0.34954542  0.26642359  1
  O  O242  1  0.43335244  0.09631739  0.34979133  1
  O  O243  1  0.36112180  0.46916898  0.28625235  1
  O  O244  1  0.26046917  0.77711737  0.33364840  1
  O  O245  1  0.19774580  0.15480994  0.26838468  1
  O  O246  1  0.11522587  0.99968400  0.31843560  1
  O  O247  1  0.04398530  0.37625752  0.25386419  1
  O  O248  1  0.58311675  0.87387501  0.36457262  1
  O  O249  1  0.51542988  0.25097301  0.30183797  1
  O  O250  1  0.19208067  0.93918288  0.26903338  1
  O  O251  1  0.25641902  0.56227051  0.33062768  1
  O  O252  1  0.35744511  0.68672159  0.28747137  1
  O  O253  1  0.40851748  0.31894737  0.35061905  1
  O  O254  1  0.77739894  0.02680093  0.33704031  1
  O  O255  1  0.70227280  0.40907937  0.27470103  1
  O  O256  1  0.91529907  0.84446233  0.34140755  1
  O  O257  1  0.85658491  0.21680144  0.28125376  1
  O  O258  1  0.27659320  0.59060285  0.44161531  1
  O  O259  1  0.54558702  0.15803667  0.43466807  1
  O  O260  1  0.11497278  0.81435141  0.38485514  1
  O  O261  1  0.12868187  0.45669504  0.44436712  1
  O  O262  1  0.71108854  0.29388739  0.42056352  1
  O  O263  1  0.59118265  0.97148443  0.48407825  1
  O  O264  1  0.12929982  0.90583337  0.43194215  1
  O  O265  1  0.76143867  0.21678758  0.37049047  1
  O  O266  1  0.85178376  0.84144739  0.44276942  1
  O  O267  1  0.91375198  0.99313652  0.39661251  1
  O  O268  1  0.90192502  0.13398496  0.41065258  1
  O  O269  1  0.02391850  0.74201939  0.47753985  1
  O  O270  1  0.09190601  0.14907387  0.37868185  1
  O  O271  1  0.18488047  0.76683967  0.44227854  1
  O  O272  1  0.80796549  0.97848146  0.44215387  1
  O  O273  1  0.16323751  0.37236984  0.48457321  1
  O  O274  1  0.00283581  0.72354911  0.42623315  1
  O  O275  1  0.99070819  0.02717513  0.44125373  1
  O  O276  1  0.82745420  0.40264850  0.38272607  1
  O  O277  1  0.39266932  0.84479531  0.39229808  1
  O  O278  1  0.40450322  0.47076955  0.46486608  1
  O  O279  1  0.43391491  0.26813248  0.40504677  1
  O  O280  1  0.25262610  0.21888851  0.49222671  1
  O  O281  1  0.15063257  0.53217201  0.40606693  1
  O  O282  1  0.80543056  0.20509438  0.46227846  1
  O  O283  1  0.65091462  0.59746236  0.40032603  1
  O  O284  1  0.53901921  0.32966207  0.46772212  1
  O  O285  1  0.49008088  0.72055008  0.41368209  1
  O  O286  1  0.43834663  0.04410970  0.43342744  1
  O  O287  1  0.33171096  0.40280368  0.39852925  1
  O  O288  1  0.20168130  0.26976663  0.43565478  1
  O  O289  1  0.16171903  0.63315128  0.37651727  1
  O  O290  1  0.73415058  0.09665491  0.48437758  1
  O  O291  1  0.61084772  0.49431650  0.42770039  1
  O  O292  1  0.31916952  0.18959663  0.39361985  1
  O  O293  1  0.49697728  0.91882841  0.41716258  1
  O  O294  1  0.53291500  0.54941226  0.47756697  1
  O  O295  1  0.87837866  0.30025633  0.46512119  1
  O  O296  1  0.83278931  0.65594673  0.40167355  1
  O  O297  1  0.98631157  0.46535118  0.39755234  1
