# generated using pymatgen
data_Na15Zr12Si10P5O64
_symmetry_space_group_name_H-M   'P 1'
_cell_length_a   9.27295600
_cell_length_b   15.80284349
_cell_length_c   45.79685300
_cell_angle_alpha   90.00000000
_cell_angle_beta   90.00000000
_cell_angle_gamma   56.43985526
_symmetry_Int_Tables_number   1
_chemical_formula_structural   Na15Zr12Si10P5O64
_chemical_formula_sum   'Na30 Zr24 Si20 P10 O128'
_cell_volume   5592.34006858
_cell_formula_units_Z   2
loop_
 _symmetry_equiv_pos_site_id
 _symmetry_equiv_pos_as_xyz
  1  'x, y, z'
loop_
 _atom_site_type_symbol
 _atom_site_label
 _atom_site_symmetry_multiplicity
 _atom_site_fract_x
 _atom_site_fract_y
 _atom_site_fract_z
 _atom_site_occupancy
  Na  Na0  1  0.43637060  0.03077368  0.09811953  1
  Na  Na1  1  0.67564861  0.69546667  0.98124269  1
  Na  Na2  1  0.06343038  0.64869231  0.09816591  1
  Na  Na3  1  0.82256808  0.98450445  0.98119073  1
  Na  Na4  1  0.75001024  0.34001915  0.04986577  1
  Na  Na5  1  0.24978079  0.34008445  0.08630905  1
  Na  Na6  1  0.40692683  0.51848805  0.19188999  1
  Na  Na7  1  0.60167691  0.15902378  0.14623754  1
  Na  Na8  1  0.09248602  0.16136658  0.19183228  1
  Na  Na9  1  0.89690534  0.52060508  0.14630093  1
  Na  Na10  1  0.74997287  0.83983671  0.14836138  1
  Na  Na11  1  0.24980420  0.83993801  0.18933529  1
  Na  Na12  1  0.41920662  0.02395785  0.29356539  1
  Na  Na13  1  0.58002505  0.65598993  0.24227447  1
  Na  Na14  1  0.08093423  0.65616550  0.29356004  1
  Na  Na15  1  0.91974049  0.02396137  0.24226617  1
  Na  Na16  1  0.74983961  0.33998135  0.24551776  1
  Na  Na17  1  0.25000904  0.33988647  0.29050529  1
  Na  Na18  1  0.39749167  0.52081169  0.38956996  1
  Na  Na19  1  0.59146852  0.16126287  0.34394815  1
  Na  Na20  1  0.10185905  0.15897212  0.38978508  1
  Na  Na21  1  0.90777023  0.51868801  0.34400149  1
  Na  Na22  1  0.74979394  0.83999201  0.34668387  1
  Na  Na23  1  0.24998535  0.83994615  0.38764943  1
  Na  Na24  1  0.32407205  0.98384933  0.55470272  1
  Na  Na25  1  0.56300985  0.64848262  0.43779076  1
  Na  Na26  1  0.17554505  0.69554560  0.55460515  1
  Na  Na27  1  0.93664871  0.03080262  0.43779861  1
  Na  Na28  1  0.75036654  0.33981626  0.44964408  1
  Na  Na29  1  0.25005321  0.33992594  0.48607469  1
  Zr  Zr30  1  0.94453888  0.44704492  0.02314874  1
  Zr  Zr31  1  0.08458786  0.73646123  0.02430699  1
  Zr  Zr32  1  0.55569260  0.23311885  0.02316403  1
  Zr  Zr33  1  0.41555162  0.94367414  0.02430027  1
  Zr  Zr34  1  0.94434362  0.94109012  0.11968413  1
  Zr  Zr35  1  0.05686842  0.23790179  0.11537907  1
  Zr  Zr36  1  0.55524807  0.73870749  0.11973007  1
  Zr  Zr37  1  0.44275679  0.44203148  0.11535691  1
  Zr  Zr38  1  0.94423745  0.43960045  0.21842898  1
  Zr  Zr39  1  0.05870745  0.73862454  0.21779898  1
  Zr  Zr40  1  0.55589377  0.24026898  0.21840972  1
  Zr  Zr41  1  0.44126930  0.94118940  0.21771766  1
  Zr  Zr42  1  0.94107662  0.94131250  0.31824516  1
  Zr  Zr43  1  0.05593385  0.24025008  0.31755441  1
  Zr  Zr44  1  0.55897818  0.73865093  0.31824249  1
  Zr  Zr45  1  0.44422592  0.43961210  0.31757934  1
  Zr  Zr46  1  0.94305809  0.44192041  0.42061210  1
  Zr  Zr47  1  0.05543400  0.73878305  0.41630726  1
  Zr  Zr48  1  0.55756171  0.23777871  0.42062270  1
  Zr  Zr49  1  0.44471960  0.94093664  0.41626904  1
  Zr  Zr50  1  0.91506377  0.94391648  0.51165532  1
  Zr  Zr51  1  0.05631400  0.23265310  0.51285752  1
  Zr  Zr52  1  0.58540360  0.73604072  0.51163081  1
  Zr  Zr53  1  0.44416038  0.44700605  0.51276979  1
  Si  Si54  1  0.28588293  0.47961694  0.04093888  1
  Si  Si55  1  0.73620751  0.19572393  0.09077881  1
  Si  Si56  1  0.21471434  0.20047721  0.04100608  1
  Si  Si57  1  0.76333402  0.48409752  0.09077156  1
  Si  Si58  1  0.26556035  0.98142235  0.14592945  1
  Si  Si59  1  0.73686402  0.69985589  0.19112601  1
  Si  Si60  1  0.23416790  0.69842498  0.14599530  1
  Si  Si61  1  0.76336816  0.97988662  0.19112713  1
  Si  Si62  1  0.26286963  0.47984949  0.24594350  1
  Si  Si63  1  0.73735865  0.19980959  0.29010394  1
  Si  Si64  1  0.23733593  0.19983723  0.24583547  1
  Si  Si65  1  0.76268213  0.48001837  0.29008736  1
  Si  Si66  1  0.26320074  0.97999048  0.34480481  1
  Si  Si67  1  0.73420146  0.69835697  0.39012440  1
  Si  Si68  1  0.23693932  0.70002267  0.34483629  1
  Si  Si69  1  0.76578013  0.98130634  0.39005527  1
  Si  Si70  1  0.26393012  0.48403745  0.44508592  1
  Si  Si71  1  0.71457881  0.20051701  0.49507059  1
  Si  Si72  1  0.23682764  0.19572805  0.44511783  1
  Si  Si73  1  0.78601703  0.47917459  0.49507719  1
  P  P74  1  0.75014888  0.83965967  0.07800291  1
  P  P75  1  0.24975036  0.84020911  0.06215228  1
  P  P76  1  0.74974721  0.34018320  0.17507699  1
  P  P77  1  0.24989488  0.34008411  0.15804927  1
  P  P78  1  0.74979573  0.84016272  0.27657961  1
  P  P79  1  0.24985941  0.84005633  0.25945236  1
  P  P80  1  0.75023908  0.33994730  0.37791027  1
  P  P81  1  0.25008791  0.34005227  0.36093850  1
  P  P82  1  0.74993768  0.84031722  0.47386979  1
  P  P83  1  0.25014808  0.84006484  0.45803732  1
  O  O84  1  0.47093796  0.38654569  0.02730930  1
  O  O85  1  0.52041407  0.86262108  0.99220354  1
  O  O86  1  0.03011044  0.29361989  0.02729202  1
  O  O87  1  0.97829992  0.81734603  0.99223314  1
  O  O88  1  0.08473351  0.88923651  0.08051491  1
  O  O89  1  0.91412185  0.77893582  0.05848137  1
  O  O90  1  0.41439078  0.79063601  0.08062980  1
  O  O91  1  0.58635079  0.90027174  0.05844676  1
  O  O92  1  0.75055367  0.91960058  0.09708809  1
  O  O93  1  0.26261188  0.75767991  0.04183604  1
  O  O94  1  0.74952210  0.75983864  0.09710397  1
  O  O95  1  0.23736726  0.92326442  0.04215802  1
  O  O96  1  0.13971365  0.45157280  0.03880883  1
  O  O97  1  0.87659144  0.22587663  0.09699388  1
  O  O98  1  0.36091641  0.22855809  0.03901023  1
  O  O99  1  0.62335234  0.45356814  0.09684439  1
  O  O100  1  0.76920664  0.49312848  0.05522555  1
  O  O101  1  0.20302584  0.18779301  0.07693864  1
  O  O102  1  0.73123554  0.18682664  0.05521639  1
  O  O103  1  0.29674125  0.49223064  0.07690093  1
  O  O104  1  0.83718984  0.53082319  0.99132252  1
  O  O105  1  0.21148916  0.58540790  0.02288429  1
  O  O106  1  0.66238169  0.14913977  0.99134734  1
  O  O107  1  0.28951322  0.09471681  0.02291333  1
  O  O108  1  0.45130675  0.89373363  0.13142788  1
  O  O109  1  0.54661140  0.28900457  0.10353949  1
  O  O110  1  0.04852408  0.78625512  0.13151343  1
  O  O111  1  0.95289320  0.39097726  0.10358315  1
  O  O112  1  0.08621529  0.39501716  0.17771117  1
  O  O113  1  0.91539343  0.28358814  0.15615602  1
  O  O114  1  0.41368825  0.28528229  0.17769474  1
  O  O115  1  0.58413528  0.39676581  0.15614161  1
  O  O116  1  0.75003388  0.42012286  0.19495292  1
  O  O117  1  0.25334124  0.25886501  0.13825366  1
  O  O118  1  0.74948200  0.26028182  0.19496972  1
  O  O119  1  0.24637936  0.42122799  0.13819845  1
  O  O120  1  0.11969252  0.95476879  0.14013620  1
  O  O121  1  0.88286753  0.72588244  0.19703528  1
  O  O122  1  0.38017921  0.72500945  0.14028237  1
  O  O123  1  0.61743907  0.95376418  0.19703695  1
  O  O124  1  0.78005604  0.98128565  0.15540966  1
  O  O125  1  0.22121082  0.69454641  0.18187015  1
  O  O126  1  0.71994676  0.69833321  0.15542052  1
  O  O127  1  0.27864645  0.98514832  0.18179735  1
  O  O128  1  0.78817731  0.09072152  0.10703049  1
  O  O129  1  0.20785947  0.09191940  0.13231957  1
  O  O130  1  0.71065098  0.58913249  0.10707207  1
  O  O131  1  0.29181521  0.58802096  0.13232708  1
  O  O132  1  0.44563854  0.39405454  0.23001119  1
  O  O133  1  0.55295052  0.78607256  0.20657428  1
  O  O134  1  0.05460007  0.28573436  0.22990703  1
  O  O135  1  0.94714139  0.89375274  0.20661589  1
  O  O136  1  0.08391826  0.89679206  0.27820791  1
  O  O137  1  0.91562745  0.78362452  0.25779184  1
  O  O138  1  0.41564125  0.78346238  0.27826172  1
  O  O139  1  0.58398701  0.89655907  0.25778286  1
  O  O140  1  0.74630901  0.92136303  0.29629879  1
  O  O141  1  0.25314870  0.75891920  0.23973670  1
  O  O142  1  0.75344239  0.75904745  0.29636907  1
  O  O143  1  0.24681787  0.92096787  0.23966680  1
  O  O144  1  0.11724375  0.45338389  0.23972669  1
  O  O145  1  0.88339759  0.22598241  0.29629767  1
  O  O146  1  0.38324460  0.22611591  0.23967740  1
  O  O147  1  0.61668817  0.45386594  0.29628501  1
  O  O148  1  0.78020718  0.48074159  0.25424165  1
  O  O149  1  0.21958872  0.19911833  0.28167145  1
  O  O150  1  0.71975404  0.19909163  0.25425070  1
  O  O151  1  0.28022104  0.48067406  0.28178300  1
  O  O152  1  0.79711567  0.58778932  0.20376703  1
  O  O153  1  0.20308623  0.59113837  0.23299510  1
  O  O154  1  0.70303882  0.09207479  0.20369446  1
  O  O155  1  0.29677200  0.08873517  0.23281590  1
  O  O156  1  0.44689320  0.89381906  0.32930308  1
  O  O157  1  0.55454818  0.28582042  0.30598661  1
  O  O158  1  0.05318142  0.78609387  0.32930432  1
  O  O159  1  0.94543743  0.39405382  0.30600329  1
  O  O160  1  0.08426516  0.39663833  0.37981122  1
  O  O161  1  0.91397341  0.28496296  0.35825271  1
  O  O162  1  0.41565973  0.28337572  0.37988554  1
  O  O163  1  0.58657568  0.39470532  0.35825124  1
  O  O164  1  0.74658901  0.42121732  0.39771010  1
  O  O165  1  0.25003804  0.26017318  0.34099409  1
  O  O166  1  0.75401613  0.25870017  0.39775862  1
  O  O167  1  0.25051295  0.42000766  0.34108602  1
  O  O168  1  0.11681625  0.95426799  0.33893394  1
  O  O169  1  0.87999606  0.72506503  0.39593902  1
  O  O170  1  0.38305242  0.72601260  0.33899964  1
  O  O171  1  0.62022063  0.95435636  0.39574968  1
  O  O172  1  0.77883391  0.98524857  0.35419334  1
  O  O173  1  0.21959720  0.69864504  0.38053978  1
  O  O174  1  0.72119252  0.69482573  0.35423219  1
  O  O175  1  0.28047859  0.98117095  0.38051743  1
  O  O176  1  0.79644725  0.08876802  0.30309981  1
  O  O177  1  0.20334247  0.09210070  0.33223822  1
  O  O178  1  0.70355635  0.59108987  0.30310224  1
  O  O179  1  0.29725499  0.58787124  0.33224116  1
  O  O180  1  0.45352229  0.39080502  0.43235197  1
  O  O181  1  0.54840164  0.78601926  0.40460081  1
  O  O182  1  0.04724236  0.28877198  0.43229500  1
  O  O183  1  0.95161680  0.89362117  0.40451732  1
  O  O184  1  0.08631354  0.90075714  0.47757993  1
  O  O185  1  0.91492650  0.79089142  0.45547780  1
  O  O186  1  0.41421069  0.77939516  0.47753814  1
  O  O187  1  0.58525089  0.88899858  0.45543681  1
  O  O188  1  0.73651788  0.92368998  0.49386208  1
  O  O189  1  0.24942139  0.76019071  0.43897773  1
  O  O190  1  0.76314480  0.75771669  0.49419829  1
  O  O191  1  0.25052125  0.91993608  0.43891011  1
  O  O192  1  0.12371781  0.45368535  0.43896676  1
  O  O193  1  0.86068209  0.22854632  0.49725925  1
  O  O194  1  0.37695010  0.22615838  0.43907977  1
  O  O195  1  0.63948589  0.45145698  0.49718749  1
  O  O196  1  0.79724814  0.49161920  0.45910177  1
  O  O197  1  0.23091158  0.18679105  0.48066167  1
  O  O198  1  0.70368605  0.18782638  0.45910140  1
  O  O199  1  0.26912943  0.49326470  0.48063224  1
  O  O200  1  0.79176415  0.58790763  0.40370824  1
  O  O201  1  0.21165224  0.58902426  0.42879644  1
  O  O202  1  0.70800895  0.09169076  0.40374333  1
  O  O203  1  0.28944445  0.09059302  0.42886818  1
  O  O204  1  0.47937919  0.81667947  0.54374154  1
  O  O205  1  0.52937285  0.29362255  0.50864749  1
  O  O206  1  0.02004040  0.86280611  0.54372990  1
  O  O207  1  0.97088960  0.38609047  0.50874045  1
  O  O208  1  0.78840600  0.09492841  0.51318914  1
  O  O209  1  0.16341843  0.14847723  0.54461553  1
  O  O210  1  0.71208786  0.58497467  0.51309570  1
  O  O211  1  0.33680308  0.53082662  0.54457427  1
