# generated using pymatgen
data_Na24Zr16Si14(P2O29)3
_symmetry_space_group_name_H-M   'P 1'
_cell_length_a   9.13268800
_cell_length_b   24.27702622
_cell_length_c   48.41287200
_cell_angle_alpha   90.00000000
_cell_angle_beta   90.00000000
_cell_angle_gamma   56.47052858
_symmetry_Int_Tables_number   1
_chemical_formula_structural   Na24Zr16Si14(P2O29)3
_chemical_formula_sum   'Na48 Zr32 Si28 P12 O174'
_cell_volume   8947.74511956
_cell_formula_units_Z   2
loop_
 _symmetry_equiv_pos_site_id
 _symmetry_equiv_pos_as_xyz
  1  'x, y, z'
loop_
 _atom_site_type_symbol
 _atom_site_label
 _atom_site_symmetry_multiplicity
 _atom_site_fract_x
 _atom_site_fract_y
 _atom_site_fract_z
 _atom_site_occupancy
  Na  Na0  1  0.78858708  0.19476292  0.03718939  1
  Na  Na1  1  0.99491304  0.93666391  0.09032177  1
  Na  Na2  1  0.10727788  0.28935211  0.02424427  1
  Na  Na3  1  0.28427555  0.99842226  0.03924459  1
  Na  Na4  1  0.51658862  0.10704112  0.00701821  1
  Na  Na5  1  0.51658582  0.69040162  0.07433550  1
  Na  Na6  1  0.64035100  0.42155664  0.03633593  1
  Na  Na7  1  0.62822925  0.15214891  0.07364773  1
  Na  Na8  1  0.94086925  0.53982667  0.08226593  1
  Na  Na9  1  0.06451717  0.91510015  0.98791198  1
  Na  Na10  1  0.20285686  0.29256135  0.08665568  1
  Na  Na11  1  0.14977981  0.64948666  0.03682788  1
  Na  Na12  1  0.93560044  0.50247686  0.16464679  1
  Na  Na13  1  0.03783541  0.15353088  0.21672727  1
  Na  Na14  1  0.33865820  0.56060622  0.13167925  1
  Na  Na15  1  0.42919467  0.20217785  0.18283417  1
  Na  Na16  1  0.57441799  0.31779546  0.12831805  1
  Na  Na17  1  0.60265790  0.98033624  0.19543772  1
  Na  Na18  1  0.69737262  0.80206635  0.16350287  1
  Na  Na19  1  0.77198623  0.40138119  0.21924500  1
  Na  Na20  1  0.09335268  0.78878491  0.20878277  1
  Na  Na21  1  0.06248043  0.15273386  0.14272347  1
  Na  Na22  1  0.31548854  0.54826279  0.21014438  1
  Na  Na23  1  0.24395359  0.92665700  0.14722473  1
  Na  Na24  1  0.04948291  0.75923736  0.29255046  1
  Na  Na25  1  0.13982385  0.40060184  0.34369506  1
  Na  Na26  1  0.44051849  0.80813512  0.25865830  1
  Na  Na27  1  0.54322399  0.45925004  0.31073625  1
  Na  Na28  1  0.70644460  0.56031479  0.25611342  1
  Na  Na29  1  0.78145426  0.15959980  0.31194435  1
  Na  Na30  1  0.87501882  0.98133741  0.27993984  1
  Na  Na31  1  0.90570436  0.64269591  0.34689022  1
  Na  Na32  1  0.23490050  0.03454275  0.32825775  1
  Na  Na33  1  0.16328524  0.41326848  0.26512597  1
  Na  Na34  1  0.41611818  0.80889281  0.33268437  1
  Na  Na35  1  0.38502345  0.17274525  0.26667763  1
  Na  Na36  1  0.19504574  0.96294937  0.43579050  1
  Na  Na37  1  0.37093689  0.67174349  0.45140467  1
  Na  Na38  1  0.48158594  0.02582936  0.38534281  1
  Na  Na39  1  0.68949926  0.76667236  0.43807062  1
  Na  Na40  1  0.85104400  0.80898855  0.40166703  1
  Na  Na41  1  0.83793283  0.53985144  0.43916850  1
  Na  Na42  1  0.96175803  0.27163240  0.40106331  1
  Na  Na43  1  0.96223743  0.85444321  0.46825451  1
  Na  Na44  1  0.32865392  0.31185617  0.43865756  1
  Na  Na45  1  0.27673935  0.66878647  0.38884136  1
  Na  Na46  1  0.41344626  0.04603537  0.48750695  1
  Na  Na47  1  0.53720480  0.42192248  0.39297533  1
  Zr  Zr48  1  0.93263135  0.67707029  0.10094992  1
  Zr  Zr49  1  0.88305727  0.02407393  0.02911502  1
  Zr  Zr50  1  0.22047794  0.15411905  0.06476409  1
  Zr  Zr51  1  0.19830088  0.49731176  0.02454709  1
  Zr  Zr52  1  0.75089729  0.47225494  0.09695500  1
  Zr  Zr53  1  0.76086731  0.82580080  0.04724992  1
  Zr  Zr54  1  0.40871439  0.35155551  0.06195526  1
  Zr  Zr55  1  0.38481472  0.71771565  0.00759940  1
  Zr  Zr56  1  0.08082737  0.92213117  0.22119653  1
  Zr  Zr57  1  0.01260551  0.29587484  0.15633861  1
  Zr  Zr58  1  0.33837440  0.41576737  0.18990587  1
  Zr  Zr59  1  0.27139625  0.78944825  0.13104718  1
  Zr  Zr60  1  0.87285074  0.72555387  0.22303403  1
  Zr  Zr61  1  0.81673103  0.09997393  0.15473916  1
  Zr  Zr62  1  0.53961857  0.61102136  0.19362660  1
  Zr  Zr63  1  0.47065369  0.98672875  0.12749480  1
  Zr  Zr64  1  0.20689986  0.17212995  0.34428957  1
  Zr  Zr65  1  0.14051002  0.54578338  0.28541579  1
  Zr  Zr66  1  0.46622889  0.66561114  0.31895698  1
  Zr  Zr67  1  0.39726155  0.03939941  0.25420632  1
  Zr  Zr68  1  0.00781450  0.97475265  0.34785619  1
  Zr  Zr69  1  0.93932764  0.35045737  0.28169967  1
  Zr  Zr70  1  0.66204724  0.86144222  0.32060852  1
  Zr  Zr71  1  0.60559606  0.23600710  0.25228251  1
  Zr  Zr72  1  0.28031201  0.46386237  0.45076341  1
  Zr  Zr73  1  0.25858746  0.80724461  0.41064896  1
  Zr  Zr74  1  0.59543569  0.93725355  0.44620534  1
  Zr  Zr75  1  0.54624402  0.28429631  0.37448892  1
  Zr  Zr76  1  0.09418345  0.24337324  0.46785873  1
  Zr  Zr77  1  0.07012230  0.60990390  0.41348767  1
  Zr  Zr78  1  0.71826487  0.13544967  0.42819093  1
  Zr  Zr79  1  0.72745617  0.48939290  0.37844868  1
  Si  Si80  1  0.11303047  0.76574459  0.06553282  1
  Si  Si81  1  0.96953899  0.43117977  0.03584121  1
  Si  Si82  1  0.05386486  0.06365800  0.09293998  1
  Si  Si83  1  0.84122684  0.31275598  0.09048633  1
  Si  Si84  1  0.80580096  0.67954100  0.03172939  1
  Si  Si85  1  0.31626952  0.53251686  0.07023791  1
  Si  Si86  1  0.16079852  0.39269587  0.12634113  1
  Si  Si87  1  0.21628601  0.01938018  0.18995985  1
  Si  Si88  1  0.13197329  0.69326069  0.16215860  1
  Si  Si89  1  0.19503951  0.31865614  0.21987017  1
  Si  Si90  1  0.97057969  0.56164778  0.21970722  1
  Si  Si91  1  0.89934022  0.93924000  0.15542990  1
  Si  Si92  1  0.44572333  0.77492501  0.19471174  1
  Si  Si93  1  0.39100531  0.14876567  0.12601112  1
  Si  Si94  1  0.28336953  0.64290599  0.25539347  1
  Si  Si95  1  0.34696212  0.26806639  0.31319563  1
  Si  Si96  1  0.26177028  0.94219344  0.28541680  1
  Si  Si97  1  0.31798289  0.56899769  0.34906086  1
  Si  Si98  1  0.08800870  0.81268890  0.34929993  1
  Si  Si99  1  0.03231251  0.18664439  0.28066180  1
  Si  Si100  1  0.57895757  0.02222332  0.31994956  1
  Si  Si101  1  0.50838815  0.39991666  0.25564842  1
  Si  Si102  1  0.42490384  0.89800383  0.38232169  1
  Si  Si103  1  0.50926863  0.53000759  0.43966034  1
  Si  Si104  1  0.36606511  0.19560883  0.40983353  1
  Si  Si105  1  0.16217035  0.42879067  0.40506499  1
  Si  Si106  1  0.67290839  0.28191859  0.44371213  1
  Si  Si107  1  0.63814510  0.64869347  0.38483402  1
  P  P108  1  0.67036835  0.62446434  0.12552094  1
  P  P109  1  0.61410122  0.98047902  0.06053100  1
  P  P110  1  0.55145908  0.83187641  0.10710380  1
  P  P111  1  0.78857356  0.87793165  0.24978740  1
  P  P112  1  0.72837153  0.25114044  0.18370214  1
  P  P113  1  0.62918139  0.45896015  0.16641690  1
  P  P114  1  0.68940423  0.08357575  0.22554333  1
  P  P115  1  0.92770129  0.12939893  0.36838133  1
  P  P116  1  0.84962276  0.50246995  0.30896110  1
  P  P117  1  0.75012487  0.71036919  0.29159978  1
  P  P118  1  0.80799363  0.33701921  0.34978916  1
  P  P119  1  0.86520577  0.98060765  0.41510143  1
  O  O120  1  0.97658264  0.45933370  0.11585407  1
  O  O121  1  0.97219375  0.83137294  0.04761800  1
  O  O122  1  0.15720951  0.37415684  0.05076259  1
  O  O123  1  0.24466886  0.00948895  0.10772404  1
  O  O124  1  0.78000845  0.00461844  0.99867638  1
  O  O125  1  0.79460035  0.67562289  0.06574257  1
  O  O126  1  0.34769179  0.53967817  0.03717878  1
  O  O127  1  0.36629964  0.17210370  0.09323606  1
  O  O128  1  0.72808400  0.12068793  0.02924257  1
  O  O129  1  0.70922145  0.76342229  0.11679211  1
  O  O130  1  0.51432966  0.69665814  0.12249218  1
  O  O131  1  0.44446089  0.04862990  0.05445789  1
  O  O132  1  0.59047857  0.84114735  0.07677539  1
  O  O133  1  0.40454738  0.40693404  0.02569676  1
  O  O134  1  0.61521936  0.95818684  0.09058346  1
  O  O135  1  0.84592372  0.62050681  0.11964004  1
  O  O136  1  0.78128291  0.97933726  0.05689781  1
  O  O137  1  0.37719910  0.83672337  0.10683579  1
  O  O138  1  0.65383663  0.58296579  0.10280312  1
  O  O139  1  0.61098880  0.92784115  0.04098643  1
  O  O140  1  0.51431733  0.26132258  0.05703701  1
  O  O141  1  0.54208686  0.88269114  0.12729368  1
  O  O142  1  0.97683977  0.74260344  0.07407261  1
  O  O143  1  0.01350941  0.48078368  0.01892417  1
  O  O144  1  0.07559836  0.11432808  0.07235117  1
  O  O145  1  0.85708179  0.37738260  0.08877018  1
  O  O146  1  0.79805831  0.74918865  0.02446827  1
  O  O147  1  0.21625522  0.49196021  0.06725017  1
  O  O148  1  0.26430600  0.79727788  0.99153721  1
  O  O149  1  0.16774831  0.60301847  0.08482869  1
  O  O150  1  0.12447402  0.97606241  0.01563926  1
  O  O151  1  0.00684532  0.25228155  0.07281891  1
  O  O152  1  0.98207867  0.61304621  0.02015877  1
  O  O153  1  0.82555551  0.48368947  0.05970183  1
  O  O154  1  0.91865093  0.10912408  0.11885917  1
  O  O155  1  0.31810159  0.35818510  0.10340467  1
  O  O156  1  0.26694642  0.71292199  0.04239938  1
  O  O157  1  0.89225013  0.39700643  0.01822553  1
  O  O158  1  0.97976154  0.02810401  0.07515549  1
  O  O159  1  0.23831781  0.17699656  0.02865817  1
  O  O160  1  0.21294666  0.77360535  0.09057019  1
  O  O161  1  0.49521713  0.49824821  0.08779242  1
  O  O162  1  0.64760714  0.33626231  0.07856334  1
  O  O163  1  0.61847853  0.69119757  0.01989286  1
  O  O164  1  0.10136393  0.70740891  0.24318739  1
  O  O165  1  0.03582261  0.08519091  0.17768387  1
  O  O166  1  0.31231082  0.62691492  0.17400040  1
  O  O167  1  0.37677646  0.25426037  0.23220032  1
  O  O168  1  0.86371657  0.29233698  0.12366135  1
  O  O169  1  0.94704036  0.91456044  0.18778278  1
  O  O170  1  0.39344364  0.80591383  0.16337551  1
  O  O171  1  0.46639606  0.42746739  0.22375630  1
  O  O172  1  0.78560002  0.38707264  0.17165081  1
  O  O173  1  0.85614850  0.01514816  0.23288855  1
  O  O174  1  0.62159749  0.94636934  0.24254194  1
  O  O175  1  0.57398618  0.32338301  0.17864160  1
  O  O176  1  0.64801466  0.48346217  0.13828784  1
  O  O177  1  0.69447231  0.10260904  0.19523695  1
  O  O178  1  0.67620207  0.59840546  0.15473459  1
  O  O179  1  0.72928507  0.23006555  0.21393654  1
  O  O180  1  0.95266045  0.88139220  0.24605511  1
  O  O181  1  0.90857388  0.24233106  0.17864485  1
  O  O182  1  0.45079889  0.46507699  0.16724773  1
  O  O183  1  0.52520236  0.08021485  0.22932899  1
  O  O184  1  0.79933554  0.82714279  0.22909815  1
  O  O185  1  0.70487643  0.20707747  0.16344500  1
  O  O186  1  0.63198224  0.50279572  0.18979406  1
  O  O187  1  0.67859630  0.13456642  0.24611320  1
  O  O188  1  0.11334788  0.33829671  0.13507219  1
  O  O189  1  0.18165546  0.96189718  0.19841031  1
  O  O190  1  0.17239596  0.74831419  0.15260702  1
  O  O191  1  0.23323643  0.37538248  0.21164810  1
  O  O192  1  0.96449945  0.63014016  0.21787620  1
  O  O193  1  0.91420788  0.00340396  0.15035705  1
  O  O194  1  0.45722354  0.70497520  0.19604255  1
  O  O195  1  0.37801338  0.08417245  0.12675359  1
  O  O196  1  0.28910180  0.82409497  0.21660061  1
  O  O197  1  0.22751976  0.20392140  0.14582717  1
  O  O198  1  0.12267729  0.50990383  0.19779539  1
  O  O199  1  0.04961952  0.88323000  0.13404641  1
  O  O200  1  0.97579240  0.73054014  0.18532582  1
  O  O201  1  0.03823814  0.35319194  0.24358525  1
  O  O202  1  0.44010311  0.60852936  0.23169236  1
  O  O203  1  0.36976370  0.98702053  0.16614533  1
  O  O204  1  0.06773709  0.67093227  0.13518551  1
  O  O205  1  0.13335391  0.29468478  0.19321825  1
  O  O206  1  0.22803115  0.41329274  0.15349943  1
  O  O207  1  0.28643359  0.04107843  0.21624594  1
  O  O208  1  0.63070991  0.76523430  0.20391790  1
  O  O209  1  0.57205174  0.13616216  0.13856410  1
  O  O210  1  0.78392048  0.57143455  0.21101526  1
  O  O211  1  0.70234839  0.95785198  0.14894181  1
  O  O212  1  0.23497068  0.95194564  0.36724832  1
  O  O213  1  0.16676101  0.33449884  0.30134965  1
  O  O214  1  0.44225179  0.87646048  0.29776069  1
  O  O215  1  0.50216858  0.50223665  0.35948859  1
  O  O216  1  0.01264294  0.53406466  0.25159297  1
  O  O217  1  0.08416282  0.15584117  0.31203350  1
  O  O218  1  0.53156626  0.04683880  0.28759825  1
  O  O219  1  0.61549146  0.66880194  0.35163218  1
  O  O220  1  0.90453212  0.63813075  0.29664127  1
  O  O221  1  0.96416381  0.26484430  0.35280523  1
  O  O222  1  0.76991826  0.19794855  0.35876579  1
  O  O223  1  0.69280923  0.57427317  0.30368659  1
  O  O224  1  0.74913584  0.73146409  0.26135984  1
  O  O225  1  0.80238650  0.36315073  0.32060651  1
  O  O226  1  0.78386031  0.85858552  0.28005314  1
  O  O227  1  0.83068860  0.47797128  0.33708250  1
  O  O228  1  0.10197096  0.12455111  0.36859134  1
  O  O229  1  0.02760421  0.49666331  0.30816485  1
  O  O230  1  0.56986498  0.71920419  0.29664156  1
  O  O231  1  0.63253216  0.34083883  0.35564188  1
  O  O232  1  0.93655654  0.07873819  0.34816106  1
  O  O233  1  0.84730182  0.45856866  0.28557695  1
  O  O234  1  0.77364234  0.75441160  0.31186024  1
  O  O235  1  0.82410505  0.37852708  0.37255480  1
  O  O236  1  0.24547750  0.58603599  0.26353526  1
  O  O237  1  0.30586023  0.21304541  0.32253653  1
  O  O238  1  0.29621343  0.99974490  0.27700372  1
  O  O239  1  0.36553376  0.62334211  0.34035940  1
  O  O240  1  0.10086430  0.87732161  0.34861182  1
  O  O241  1  0.02073393  0.25661121  0.27925290  1
  O  O242  1  0.56435738  0.95799578  0.32492995  1
  O  O243  1  0.51451913  0.33138662  0.25743835  1
  O  O244  1  0.42844433  0.07828536  0.34129877  1
  O  O245  1  0.35610819  0.45160899  0.27756304  1
  O  O246  1  0.25145709  0.75759160  0.32946371  1
  O  O247  1  0.18912111  0.13738869  0.25884034  1
  O  O248  1  0.10778488  0.97462473  0.30913655  1
  O  O249  1  0.16109284  0.60331488  0.37206140  1
  O  O250  1  0.56135200  0.85203078  0.35660663  1
  O  O251  1  0.50337305  0.23089180  0.29006198  1
  O  O252  1  0.19212993  0.92040519  0.25909712  1
  O  O253  1  0.25019404  0.54866551  0.32186975  1
  O  O254  1  0.34545072  0.66657835  0.28209931  1
  O  O255  1  0.41097334  0.29002333  0.34031129  1
  O  O256  1  0.77582465  0.00363601  0.32653199  1
  O  O257  1  0.69482828  0.39023310  0.26438889  1
  O  O258  1  0.90691001  0.82539917  0.33672019  1
  O  O259  1  0.84769353  0.19614994  0.27139999  1
  O  O260  1  0.32168328  0.58711339  0.42473918  1
  O  O261  1  0.50714300  0.12963992  0.42755191  1
  O  O262  1  0.11296724  0.78927977  0.38208553  1
  O  O263  1  0.13082058  0.42157742  0.43812147  1
  O  O264  1  0.68386392  0.28600027  0.40970057  1
  O  O265  1  0.69803392  0.95667653  0.47672265  1
  O  O266  1  0.03428570  0.91250067  0.42146532  1
  O  O267  1  0.75031555  0.84066345  0.44601264  1
  O  O268  1  0.86643797  0.00239547  0.38504700  1
  O  O269  1  0.07432835  0.55432865  0.44968788  1
  O  O270  1  0.88908115  0.11995859  0.39871428  1
  O  O271  1  0.69764266  0.98196681  0.41849860  1
  O  O272  1  0.96446733  0.70011205  0.41847991  1
  O  O273  1  0.86762440  0.03351993  0.43456067  1
  O  O274  1  0.40176237  0.84776883  0.40299533  1
  O  O275  1  0.46557816  0.48014842  0.45639082  1
  O  O276  1  0.50218366  0.21886894  0.40143053  1
  O  O277  1  0.21386922  0.16382235  0.48393786  1
  O  O278  1  0.26211672  0.46937182  0.40806688  1
  O  O279  1  0.68171555  0.21201445  0.45093703  1
  O  O280  1  0.62141212  0.58426650  0.38671418  1
  O  O281  1  0.49625703  0.34819863  0.45532771  1
  O  O282  1  0.47300292  0.70944096  0.40245108  1
  O  O283  1  0.35392340  0.98527309  0.45964744  1
  O  O284  1  0.31067078  0.35835585  0.39047120  1
  O  O285  1  0.21253799  0.24810078  0.43308603  1
  O  O286  1  0.65316376  0.47787341  0.41569393  1
  O  O287  1  0.26562493  0.18822052  0.38473092  1
  O  O288  1  0.24179024  0.78381266  0.44670822  1
  O  O289  1  0.49775821  0.93394589  0.40013551  1
  O  O290  1  0.58640680  0.56407546  0.45738549  1
  O  O291  1  0.85999497  0.27052705  0.45554759  1
  O  O292  1  0.83196186  0.62501732  0.39671344  1
  O  O293  1  0.98321842  0.46310429  0.38754046  1
