# generated using pymatgen
data_Na20Zr14Si12P6O77
_symmetry_space_group_name_H-M   'P 1'
_cell_length_a   15.80284400
_cell_length_b   16.04975156
_cell_length_c   47.24929200
_cell_angle_alpha   90.00000000
_cell_angle_beta   90.00000000
_cell_angle_gamma   48.30066901
_symmetry_Int_Tables_number   1
_chemical_formula_structural   Na20Zr14Si12P6O77
_chemical_formula_sum   'Na40 Zr28 Si24 P12 O154'
_cell_volume   8947.74473928
_cell_formula_units_Z   2
loop_
 _symmetry_equiv_pos_site_id
 _symmetry_equiv_pos_as_xyz
  1  'x, y, z'
loop_
 _atom_site_type_symbol
 _atom_site_label
 _atom_site_symmetry_multiplicity
 _atom_site_fract_x
 _atom_site_fract_y
 _atom_site_fract_z
 _atom_site_occupancy
  Na  Na0  1  0.13980460  0.39910851  0.02131533  1
  Na  Na1  1  0.68914517  0.79325474  0.08785653  1
  Na  Na2  1  0.28920332  0.02822666  0.09688842  1
  Na  Na3  1  0.85378805  0.84746694  0.00649588  1
  Na  Na4  1  0.86583125  0.42127475  0.04706622  1
  Na  Na5  1  0.46673260  0.12467804  0.99125301  1
  Na  Na6  1  0.74224621  0.18593639  0.06691268  1
  Na  Na7  1  0.01072115  0.47488457  0.11364841  1
  Na  Na8  1  0.08741126  0.65395235  0.02951051  1
  Na  Na9  1  0.49352406  0.12244711  0.08701095  1
  Na  Na10  1  0.41505275  0.73191600  0.11591942  1
  Na  Na11  1  0.95321156  0.09984320  0.15314421  1
  Na  Na12  1  0.20515799  0.42767895  0.21161996  1
  Na  Na13  1  0.91381467  0.61669819  0.22586280  1
  Na  Na14  1  0.48918640  0.42004920  0.15225247  1
  Na  Na15  1  0.49105825  0.98622087  0.19038999  1
  Na  Na16  1  0.13678607  0.68858132  0.11631309  1
  Na  Na17  1  0.37584087  0.75462826  0.19870235  1
  Na  Na18  1  0.62775869  0.05858545  0.24726230  1
  Na  Na19  1  0.79224507  0.42735508  0.14154676  1
  Na  Na20  1  0.10223609  0.71806427  0.20196116  1
  Na  Na21  1  0.01642345  0.32652564  0.23547913  1
  Na  Na22  1  0.69239665  0.09826301  0.16068461  1
  Na  Na23  1  0.62955383  0.62470575  0.28531490  1
  Na  Na24  1  0.82989436  0.01610105  0.34066876  1
  Na  Na25  1  0.42956860  0.25158228  0.34958872  1
  Na  Na26  1  0.16641755  0.94404023  0.28439387  1
  Na  Na27  1  0.10766485  0.56988152  0.32389440  1
  Na  Na28  1  0.74285405  0.28998577  0.23880284  1
  Na  Na29  1  0.98147146  0.35624634  0.32116183  1
  Na  Na30  1  0.25209884  0.62386985  0.39043836  1
  Na  Na31  1  0.42623810  0.94630843  0.27686906  1
  Na  Na32  1  0.70322158  0.31259041  0.32169815  1
  Na  Na33  1  0.62480104  0.92281626  0.35046980  1
  Na  Na34  1  0.32643978  0.61710489  0.29598481  1
  Na  Na35  1  0.26494170  0.19713478  0.43072256  1
  Na  Na36  1  0.97821679  0.64572599  0.41614537  1
  Na  Na37  1  0.37657048  0.85856571  0.37061704  1
  Na  Na38  1  0.65153111  0.92103595  0.44673710  1
  Na  Na39  1  0.03096995  0.39066043  0.40796792  1
  Zr  Zr40  1  0.62320288  0.43969463  0.09387702  1
  Zr  Zr41  1  0.34895329  0.09613526  0.04113626  1
  Zr  Zr42  1  0.04314691  0.05567859  0.04498428  1
  Zr  Zr43  1  0.25677143  0.45402874  0.07692065  1
  Zr  Zr44  1  0.47165896  0.64000940  0.04649038  1
  Zr  Zr45  1  0.76275980  0.97251979  0.08725087  1
  Zr  Zr46  1  0.13224142  0.90534390  0.10060512  1
  Zr  Zr47  1  0.86175565  0.62770430  0.03696646  1
  Zr  Zr48  1  0.24066265  0.00401195  0.22473639  1
  Zr  Zr49  1  0.93648017  0.70911981  0.16563265  1
  Zr  Zr50  1  0.58073694  0.75723991  0.15036765  1
  Zr  Zr51  1  0.87804072  0.04056839  0.21273371  1
  Zr  Zr52  1  0.06587339  0.25838122  0.14929828  1
  Zr  Zr53  1  0.37378296  0.55346966  0.21322295  1
  Zr  Zr54  1  0.74491852  0.49115602  0.22430449  1
  Zr  Zr55  1  0.43437093  0.21658541  0.16069151  1
  Zr  Zr56  1  0.86163248  0.59067731  0.36057764  1
  Zr  Zr57  1  0.53774138  0.28761181  0.28714002  1
  Zr  Zr58  1  0.18190195  0.33560389  0.27180864  1
  Zr  Zr59  1  0.49567442  0.60493192  0.34365487  1
  Zr  Zr60  1  0.68417970  0.82827474  0.27683431  1
  Zr  Zr61  1  0.98635602  0.13906530  0.33686253  1
  Zr  Zr62  1  0.35564290  0.07227991  0.35026391  1
  Zr  Zr63  1  0.05260928  0.78628809  0.28818343  1
  Zr  Zr64  1  0.07577970  0.98858357  0.39247778  1
  Zr  Zr65  1  0.76947929  0.94865852  0.39645622  1
  Zr  Zr66  1  0.25634650  0.41737405  0.40041679  1
  Zr  Zr67  1  0.64694196  0.40475297  0.39112592  1
  Si  Si68  1  0.32509310  0.63135524  0.07840862  1
  Si  Si69  1  0.53683390  0.26945727  0.10188455  1
  Si  Si70  1  0.28084322  0.92106976  0.03779597  1
  Si  Si71  1  0.65327580  0.62803659  0.08428940  1
  Si  Si72  1  0.25114439  0.26028767  0.10523932  1
  Si  Si73  1  0.95594215  0.94603963  0.04115356  1
  Si  Si74  1  0.64954043  0.92913990  0.14134153  1
  Si  Si75  1  0.95588340  0.21005276  0.20322795  1
  Si  Si76  1  0.16279778  0.83458411  0.23425387  1
  Si  Si77  1  0.86686268  0.53712580  0.17401032  1
  Si  Si78  1  0.93374632  0.91957508  0.14434406  1
  Si  Si79  1  0.25470632  0.19932785  0.20369702  1
  Si  Si80  1  0.86374696  0.84537560  0.23378428  1
  Si  Si81  1  0.56763765  0.54811942  0.16693517  1
  Si  Si82  1  0.25164534  0.50769259  0.26348083  1
  Si  Si83  1  0.58182476  0.77535692  0.33566438  1
  Si  Si84  1  0.79355068  0.41314743  0.35914138  1
  Si  Si85  1  0.46854360  0.11582499  0.29612154  1
  Si  Si86  1  0.55093206  0.49671515  0.27059212  1
  Si  Si87  1  0.86726427  0.78460323  0.33232779  1
  Si  Si88  1  0.46503581  0.41700717  0.35322964  1
  Si  Si89  1  0.18476241  0.12496442  0.29316569  1
  Si  Si90  1  0.83795589  0.12339256  0.39970863  1
  Si  Si91  1  0.16263811  0.09853372  0.39631829  1
  P  P92  1  0.92636208  0.22252431  0.09040037  1
  P  P93  1  0.64325083  0.92803514  0.03063124  1
  P  P94  1  0.96454934  0.67329005  0.09242933  1
  P  P95  1  0.53930963  0.79204640  0.22517976  1
  P  P96  1  0.24096930  0.50652661  0.16176033  1
  P  P97  1  0.26870794  0.95531910  0.14923819  1
  P  P98  1  0.57945612  0.25247329  0.21232435  1
  P  P99  1  0.15386379  0.37136083  0.34498202  1
  P  P100  1  0.84980241  0.08939630  0.28823595  1
  P  P101  1  0.87766287  0.53831376  0.27574660  1
  P  P102  1  0.19247093  0.82178250  0.34705483  1
  P  P103  1  0.47539343  0.11722403  0.40676726  1
  O  O104  1  0.32885497  0.66543963  0.04621281  1
  O  O105  1  0.65490183  0.95082305  0.10760106  1
  O  O106  1  0.21374356  0.93844942  0.06860805  1
  O  O107  1  0.93222416  0.67104451  0.01786675  1
  O  O108  1  0.69734865  0.50944864  0.09795307  1
  O  O109  1  0.29676254  0.19577533  0.01141658  1
  O  O110  1  0.92655358  0.06066555  0.02683506  1
  O  O111  1  0.19316864  0.37943847  0.09117923  1
  O  O112  1  0.60978152  0.47797614  0.05098577  1
  O  O113  1  0.97697184  0.64205213  0.12417708  1
  O  O114  1  0.95445960  0.22501322  0.05836518  1
  O  O115  1  0.64294386  0.95424506  0.99958814  1
  O  O116  1  0.88774683  0.79928712  0.08829523  1
  O  O117  1  0.00155868  0.09262914  0.09467914  1
  O  O118  1  0.68961503  0.81003439  0.03706274  1
  O  O119  1  0.80053812  0.27774778  0.09282845  1
  O  O120  1  0.51499417  0.01445836  0.04191022  1
  O  O121  1  0.08063448  0.61923997  0.08011417  1
  O  O122  1  0.95803303  0.27100479  0.11083439  1
  O  O123  1  0.70495267  0.95424474  0.04874481  1
  O  O124  1  0.90939144  0.63017464  0.07904165  1
  O  O125  1  0.45065005  0.58514910  0.08978812  1
  O  O126  1  0.16448186  0.00204837  0.01774357  1
  O  O127  1  0.42510237  0.31571159  0.08384186  1
  O  O128  1  0.52150338  0.69537097  0.07296105  1
  O  O129  1  0.82195045  0.97675906  0.12505480  1
  O  O130  1  0.06215037  0.91848267  0.06147856  1
  O  O131  1  0.31069125  0.16011090  0.08044559  1
  O  O132  1  0.98937257  0.84833127  0.02162789  1
  O  O133  1  0.23264962  0.45530659  0.03829782  1
  O  O134  1  0.62591040  0.71438997  0.10941110  1
  O  O135  1  0.63662276  0.14217888  0.08908814  1
  O  O136  1  0.37925248  0.79583706  0.02642078  1
  O  O137  1  0.95423606  0.47431499  0.02776858  1
  O  O138  1  0.23938101  0.74180868  0.09930815  1
  O  O139  1  0.58151510  0.33807893  0.09746284  1
  O  O140  1  0.32315692  0.98973704  0.04396834  1
  O  O141  1  0.29456697  0.55608595  0.08105436  1
  O  O142  1  0.15046519  0.27021007  0.11944439  1
  O  O143  1  0.85172866  0.99721455  0.06326485  1
  O  O144  1  0.73956317  0.60988485  0.06115004  1
  O  O145  1  0.96059088  0.23940236  0.17007492  1
  O  O146  1  0.25728903  0.54838699  0.23223853  1
  O  O147  1  0.86128420  0.49646698  0.20527244  1
  O  O148  1  0.51849051  0.25926336  0.13591353  1
  O  O149  1  0.30803763  0.07539315  0.21441457  1
  O  O150  1  0.99597513  0.79331564  0.15455556  1
  O  O151  1  0.52044472  0.67130745  0.15671336  1
  O  O152  1  0.81061852  0.96923195  0.22304645  1
  O  O153  1  0.26861165  0.93798012  0.18120830  1
  O  O154  1  0.58150509  0.22959226  0.24415790  1
  O  O155  1  0.53759020  0.81498538  0.19337454  1
  O  O156  1  0.23738260  0.50996400  0.12979054  1
  O  O157  1  0.18951193  0.08004079  0.14099727  1
  O  O158  1  0.50322623  0.37860810  0.20643360  1
  O  O159  1  0.61544807  0.66595291  0.23108054  1
  O  O160  1  0.31134457  0.38414115  0.17273330  1
  O  O161  1  0.41631974  0.84917251  0.23410265  1
  O  O162  1  0.12143715  0.57555099  0.17592118  1
  O  O163  1  0.38863796  0.89378839  0.13723870  1
  O  O164  1  0.70235904  0.19529866  0.20330272  1
  O  O165  1  0.57917599  0.84271327  0.24211047  1
  O  O166  1  0.29756926  0.55066078  0.17370571  1
  O  O167  1  0.22231085  0.90677216  0.13302908  1
  O  O168  1  0.53923802  0.20191253  0.19551805  1
  O  O169  1  0.08114201  0.14352743  0.21730056  1
  O  O170  1  0.77705520  0.83775753  0.15516017  1
  O  O171  1  0.73818317  0.62797852  0.16141950  1
  O  O172  1  0.03764122  0.90110033  0.22011274  1
  O  O173  1  0.15018318  0.24773792  0.18150639  1
  O  O174  1  0.43895084  0.55455153  0.25039389  1
  O  O175  1  0.67959955  0.49031359  0.18714231  1
  O  O176  1  0.35615617  0.21612716  0.12657725  1
  O  O177  1  0.92124801  0.75334786  0.20799125  1
  O  O178  1  0.60278551  0.46729363  0.13909660  1
  O  O179  1  0.88921284  0.00761612  0.17046924  1
  O  O180  1  0.19690709  0.29141788  0.22946805  1
  O  O181  1  0.25184024  0.72450198  0.21424158  1
  O  O182  1  0.93999020  0.43123305  0.15128336  1
  O  O183  1  0.57588077  0.04823811  0.15854970  1
  O  O184  1  0.86699292  0.32014793  0.22327150  1
  O  O185  1  0.20043265  0.90771956  0.23466004  1
  O  O186  1  0.92283596  0.59350439  0.17720407  1
  O  O187  1  0.58518895  0.88150339  0.14549878  1
  O  O188  1  0.91815137  0.13699543  0.20289059  1
  O  O189  1  0.76152022  0.85935089  0.24889292  1
  O  O190  1  0.46713758  0.56735620  0.18513703  1
  O  O191  1  0.02527365  0.91829279  0.12650494  1
  O  O192  1  0.35677558  0.18568589  0.18860429  1
  O  O193  1  0.60023579  0.78554309  0.30164889  1
  O  O194  1  0.90499519  0.10595916  0.36886949  1
  O  O195  1  0.46306630  0.09434341  0.32987141  1
  O  O196  1  0.15788774  0.80519910  0.26738533  1
  O  O197  1  0.92513026  0.66551003  0.34641089  1
  O  O198  1  0.59791289  0.37362552  0.28085050  1
  O  O199  1  0.12243678  0.25137720  0.28305873  1
  O  O200  1  0.42163819  0.53524725  0.33951963  1
  O  O201  1  0.88142695  0.53484978  0.30770978  1
  O  O202  1  0.16458363  0.81920452  0.37910618  1
  O  O203  1  0.14184622  0.40243494  0.31323749  1
  O  O204  1  0.85003593  0.10654096  0.25626258  1
  O  O205  1  0.80756194  0.66068615  0.26480113  1
  O  O206  1  0.11698291  0.95170481  0.34279016  1
  O  O207  1  0.23027834  0.24543390  0.34917431  1
  O  O208  1  0.92925717  0.96465678  0.29652844  1
  O  O209  1  0.03766435  0.42569249  0.35725829  1
  O  O210  1  0.72986013  0.15077504  0.30021212  1
  O  O211  1  0.99715820  0.46903326  0.26154032  1
  O  O212  1  0.31822006  0.76684763  0.34459571  1
  O  O213  1  0.20910774  0.41441198  0.35835754  1
  O  O214  1  0.89583198  0.13828683  0.30444800  1
  O  O215  1  0.82075268  0.49443583  0.26384366  1
  O  O216  1  0.16097949  0.77311378  0.32663289  1
  O  O217  1  0.69338868  0.72915022  0.35377042  1
  O  O218  1  0.38038569  0.41700691  0.27607385  1
  O  O219  1  0.34122112  0.20673299  0.28221106  1
  O  O220  1  0.66811109  0.45898653  0.34777011  1
  O  O221  1  0.76225826  0.82896322  0.31095412  1
  O  O222  1  0.05674751  0.12570161  0.37596522  1
  O  O223  1  0.29652462  0.06760991  0.31249887  1
  O  O224  1  0.96836711  0.79683406  0.25596083  1
  O  O225  1  0.49286355  0.33043324  0.32810868  1
  O  O226  1  0.22956245  0.03701968  0.26699102  1
  O  O227  1  0.51608990  0.57749415  0.29841752  1
  O  O228  1  0.80798854  0.88453364  0.35716271  1
  O  O229  1  0.87952239  0.30250391  0.33831921  1
  O  O230  1  0.54265380  0.99658196  0.27898285  1
  O  O231  1  0.17843314  0.61340608  0.28625702  1
  O  O232  1  0.48193291  0.90262341  0.34844852  1
  O  O233  1  0.82362710  0.48875682  0.35634874  1
  O  O234  1  0.53262079  0.16377034  0.29200340  1
  O  O235  1  0.19604620  0.45095005  0.26024820  1
  O  O236  1  0.53737957  0.70649432  0.34006200  1
  O  O237  1  0.37808375  0.43559275  0.37621213  1
  O  O238  1  0.09332208  0.12584004  0.31090213  1
  O  O239  1  0.65156641  0.47710916  0.25233140  1
  O  O240  1  0.96789941  0.77459755  0.31804168  1
  O  O241  1  0.18593693  0.37390552  0.41949519  1
  O  O242  1  0.78976002  0.37936217  0.39137218  1
  O  O243  1  0.19217608  0.98380290  0.41064834  1
  O  O244  1  0.82080797  0.84958021  0.42628224  1
  O  O245  1  0.47624601  0.09077604  0.43782046  1
  O  O246  1  0.50902929  0.56684962  0.38657824  1
  O  O247  1  0.42872098  0.23537437  0.40038153  1
  O  O248  1  0.60332506  0.03117546  0.39529352  1
  O  O249  1  0.41345927  0.09101085  0.38876082  1
  O  O250  1  0.95442518  0.04224697  0.41973060  1
  O  O251  1  0.59647524  0.34962552  0.36480126  1
  O  O252  1  0.88595035  0.58890345  0.39920849  1
  O  O253  1  0.12901087  0.19639584  0.41581375  1
  O  O254  1  0.16360518  0.57087109  0.40956631  1
  O  O255  1  0.73976650  0.24859662  0.41111231  1
  O  O256  1  0.79544317  0.05493231  0.39353297  1
  O  O257  1  0.26709823  0.04726808  0.37429699  1
