# generated using pymatgen
data_Na11Zr8Si7P3O43
_symmetry_space_group_name_H-M   'P 1'
_cell_length_a   15.80284400
_cell_length_b   16.04975156
_cell_length_c   47.24929200
_cell_angle_alpha   90.00000000
_cell_angle_beta   90.00000000
_cell_angle_gamma   48.30066901
_symmetry_Int_Tables_number   1
_chemical_formula_structural   Na11Zr8Si7P3O43
_chemical_formula_sum   'Na44 Zr32 Si28 P12 O172'
_cell_volume   8947.74473928
_cell_formula_units_Z   4
loop_
 _symmetry_equiv_pos_site_id
 _symmetry_equiv_pos_as_xyz
  1  'x, y, z'
loop_
 _atom_site_type_symbol
 _atom_site_label
 _atom_site_symmetry_multiplicity
 _atom_site_fract_x
 _atom_site_fract_y
 _atom_site_fract_z
 _atom_site_occupancy
  Na  Na0  1  0.05809038  0.72441282  0.02085526  1
  Na  Na1  1  0.70682027  0.76207736  0.04322860  1
  Na  Na2  1  0.35489771  0.06185271  0.10338891  1
  Na  Na3  1  0.83578098  0.74542350  0.97315811  1
  Na  Na4  1  0.79682295  0.54226784  0.02082205  1
  Na  Na5  1  0.08032423  0.75016382  0.10379015  1
  Na  Na6  1  0.60808970  0.24765504  0.03629652  1
  Na  Na7  1  0.95268540  0.52124869  0.10495422  1
  Na  Na8  1  0.02756583  0.97878826  0.98656887  1
  Na  Na9  1  0.31995595  0.30384489  0.03366602  1
  Na  Na10  1  0.36801228  0.74499272  0.10400503  1
  Na  Na11  1  0.81030254  0.21267584  0.14273098  1
  Na  Na12  1  0.20008234  0.43043811  0.20416279  1
  Na  Na13  1  0.83281074  0.67512189  0.21391628  1
  Na  Na14  1  0.43912047  0.44745379  0.13969084  1
  Na  Na15  1  0.44411646  0.02809543  0.18674432  1
  Na  Na16  1  0.70392786  0.31899377  0.23085851  1
  Na  Na17  1  0.30804747  0.79565555  0.18366057  1
  Na  Na18  1  0.61117917  0.09088014  0.24723405  1
  Na  Na19  1  0.73508778  0.47345947  0.13148162  1
  Na  Na20  1  0.04576219  0.75621578  0.18983515  1
  Na  Na21  1  0.96107834  0.38077145  0.22028195  1
  Na  Na22  1  0.66158340  0.06409894  0.16438813  1
  Na  Na23  1  0.48306179  0.73392030  0.26412200  1
  Na  Na24  1  0.87522391  0.96295381  0.33819711  1
  Na  Na25  1  0.50449849  0.19763646  0.33533699  1
  Na  Na26  1  0.11491343  0.97920573  0.27385507  1
  Na  Na27  1  0.00636869  0.61436382  0.29427278  1
  Na  Na28  1  0.36174445  0.88870274  0.37301280  1
  Na  Na29  1  0.87124293  0.38183489  0.29140128  1
  Na  Na30  1  0.23411871  0.65991383  0.37422797  1
  Na  Na31  1  0.35392248  0.02873174  0.25786493  1
  Na  Na32  1  0.65299887  0.34614039  0.31354680  1
  Na  Na33  1  0.57948220  0.93702859  0.34632947  1
  Na  Na34  1  0.26864560  0.65417723  0.28800008  1
  Na  Na35  1  0.95910645  0.34844716  0.37484615  1
  Na  Na36  1  0.47869343  0.66499884  0.50477157  1
  Na  Na37  1  0.25656241  0.68564374  0.45706889  1
  Na  Na38  1  0.60768260  0.64838777  0.43474409  1
  Na  Na39  1  0.70595543  0.16307592  0.44171649  1
  Na  Na40  1  0.51756837  0.86827239  0.45724768  1
  Na  Na41  1  0.94672735  0.66481664  0.37411207  1
  Na  Na42  1  0.28723238  0.43101722  0.49136535  1
  Na  Na43  1  0.99437987  0.10642251  0.44420649  1
  Zr  Zr44  1  0.57327163  0.45746249  0.08309323  1
  Zr  Zr45  1  0.15727287  0.26047153  0.02701141  1
  Zr  Zr46  1  0.82427550  0.21688186  0.03385441  1
  Zr  Zr47  1  0.18799454  0.51908915  0.07240952  1
  Zr  Zr48  1  0.26582651  0.84243062  0.03668891  1
  Zr  Zr49  1  0.69537841  0.01641415  0.07960850  1
  Zr  Zr50  1  0.05346159  0.98829875  0.08881565  1
  Zr  Zr51  1  0.98042053  0.57012978  0.01815827  1
  Zr  Zr52  1  0.18695296  0.04017268  0.21322923  1
  Zr  Zr53  1  0.87579852  0.75322234  0.15202032  1
  Zr  Zr54  1  0.51534748  0.79422831  0.13582770  1
  Zr  Zr55  1  0.82765960  0.08084988  0.20090580  1
  Zr  Zr56  1  0.01271356  0.30433329  0.14056916  1
  Zr  Zr57  1  0.31929341  0.58444269  0.20117687  1
  Zr  Zr58  1  0.68858342  0.53315887  0.21305210  1
  Zr  Zr59  1  0.37920200  0.24795983  0.14900070  1
  Zr  Zr60  1  0.79930505  0.61579385  0.34227922  1
  Zr  Zr61  1  0.48692488  0.32918359  0.27703248  1
  Zr  Zr62  1  0.12788648  0.36968481  0.26482886  1
  Zr  Zr63  1  0.43875601  0.65673410  0.32591779  1
  Zr  Zr64  1  0.62619991  0.87668330  0.26493674  1
  Zr  Zr65  1  0.93538779  0.16210549  0.32894264  1
  Zr  Zr66  1  0.30202006  0.10564153  0.33749790  1
  Zr  Zr67  1  0.99529802  0.82554500  0.27675463  1
  Zr  Zr68  1  0.49034029  0.19298319  0.44419086  1
  Zr  Zr69  1  0.12657662  0.89104784  0.40552489  1
  Zr  Zr70  1  0.74153978  0.95251759  0.39489223  1
  Zr  Zr71  1  0.15710834  0.14970925  0.45093419  1
  Zr  Zr72  1  0.26136689  0.42152223  0.38920086  1
  Zr  Zr73  1  0.33410612  0.84013561  0.45971888  1
  Zr  Zr74  1  0.04883365  0.56781272  0.44137308  1
  Zr  Zr75  1  0.61896481  0.39370148  0.39838415  1
  Si  Si76  1  0.27745148  0.67528033  0.06002317  1
  Si  Si77  1  0.47524207  0.30357557  0.08975476  1
  Si  Si78  1  0.09908763  0.07572517  0.02172078  1
  Si  Si79  1  0.54924462  0.69007632  0.06424964  1
  Si  Si80  1  0.19092655  0.31372343  0.09673810  1
  Si  Si81  1  0.87040760  0.01364883  0.03219140  1
  Si  Si82  1  0.58695671  0.96629178  0.12875891  1
  Si  Si83  1  0.89904734  0.25417586  0.19248723  1
  Si  Si84  1  0.11101783  0.86984253  0.22268143  1
  Si  Si85  1  0.79953912  0.58807560  0.16181551  1
  Si  Si86  1  0.88468868  0.96098959  0.13169872  1
  Si  Si87  1  0.19865727  0.24153490  0.19613950  1
  Si  Si88  1  0.81515953  0.88123186  0.22049989  1
  Si  Si89  1  0.50972657  0.58577354  0.15611611  1
  Si  Si90  1  0.20349638  0.54017354  0.25527296  1
  Si  Si91  1  0.51531338  0.82180799  0.31626693  1
  Si  Si92  1  0.72753726  0.44376853  0.34920426  1
  Si  Si93  1  0.41594318  0.15572368  0.28560861  1
  Si  Si94  1  0.49951958  0.52859625  0.25741736  1
  Si  Si95  1  0.80523503  0.82403398  0.32190255  1
  Si  Si96  1  0.42950456  0.44937149  0.34624680  1
  Si  Si97  1  0.11630582  0.16817257  0.28187038  1
  Si  Si98  1  0.83917694  0.10662079  0.38817351  1
  Si  Si99  1  0.21518749  0.33451598  0.45625234  1
  Si  Si100  1  0.03731919  0.73479424  0.41801174  1
  Si  Si101  1  0.12353476  0.09646034  0.38123218  1
  Si  Si102  1  0.44407468  0.39629090  0.44577007  1
  Si  Si103  1  0.76545455  0.71993948  0.41385420  1
  P  P104  1  0.87407011  0.27196572  0.09269448  1
  P  P105  1  0.89872435  0.72090318  0.07816205  1
  P  P106  1  0.48911969  0.83460591  0.21172578  1
  P  P107  1  0.18131696  0.54973779  0.14868078  1
  P  P108  1  0.21158453  0.00324639  0.13748313  1
  P  P109  1  0.52146987  0.28777851  0.20097783  1
  P  P110  1  0.10300311  0.40667840  0.34060018  1
  P  P111  1  0.79303106  0.12235306  0.27693593  1
  P  P112  1  0.82545359  0.57537814  0.26629254  1
  P  P113  1  0.13335721  0.86022843  0.32925524  1
  P  P114  1  0.41596496  0.68899407  0.39980207  1
  P  P115  1  0.44103626  0.13767761  0.38531337  1
  O  O116  1  0.28936741  0.70751838  0.02753688  1
  O  O117  1  0.58390361  0.00750068  0.09678191  1
  O  O118  1  0.12254541  0.01114350  0.05362027  1
  O  O119  1  0.00072543  0.65063480  0.99343894  1
  O  O120  1  0.58661540  0.56767129  0.07058728  1
  O  O121  1  0.27449948  0.22581137  0.00579980  1
  O  O122  1  0.78846799  0.13230728  0.01286784  1
  O  O123  1  0.14506002  0.43877542  0.09336457  1
  O  O124  1  0.66746368  0.34562470  0.04686010  1
  O  O125  1  0.89480500  0.69843679  0.10994008  1
  O  O126  1  0.89045757  0.26289774  0.06031704  1
  O  O127  1  0.18979904  0.56623257  0.11708349  1
  O  O128  1  0.79048293  0.84069904  0.07001447  1
  O  O129  1  0.94624105  0.14935895  0.10411835  1
  O  O130  1  0.82248174  0.65684633  0.00564414  1
  O  O131  1  0.74987282  0.33524123  0.10172512  1
  O  O132  1  0.00790348  0.69947434  0.07246092  1
  O  O133  1  0.91160412  0.33070395  0.10450148  1
  O  O134  1  0.90202682  0.63618494  0.06095412  1
  O  O135  1  0.39742832  0.59328657  0.07661481  1
  O  O136  1  0.97027983  0.14414629  0.00946527  1
  O  O137  1  0.35901929  0.37978402  0.07029106  1
  O  O138  1  0.41389862  0.77797212  0.05079753  1
  O  O139  1  0.77283733  0.01639478  0.11153509  1
  O  O140  1  0.90772198  0.06524482  0.05694974  1
  O  O141  1  0.30411199  0.23426679  0.11722005  1
  O  O142  1  0.22354836  0.24778682  0.06651327  1
  O  O143  1  0.97945763  0.90771904  0.01618304  1
  O  O144  1  0.14864305  0.49578396  0.03705248  1
  O  O145  1  0.52538749  0.74721068  0.09585910  1
  O  O146  1  0.56729563  0.18458583  0.07201001  1
  O  O147  1  0.18723295  0.95410573  0.00384878  1
  O  O148  1  0.01956734  0.41712395  0.01773358  1
  O  O149  1  0.20159422  0.81099125  0.07345290  1
  O  O150  1  0.52698325  0.36480345  0.09208445  1
  O  O151  1  0.13755265  0.14571193  0.02266591  1
  O  O152  1  0.20379384  0.63990860  0.06132508  1
  O  O153  1  0.08978449  0.32743452  0.11205532  1
  O  O154  1  0.78184128  0.00566633  0.04601642  1
  O  O155  1  0.98401478  0.94154396  0.11195845  1
  O  O156  1  0.63703270  0.68029884  0.04470029  1
  O  O157  1  0.89866782  0.29204738  0.16044746  1
  O  O158  1  0.21757748  0.56219008  0.22245561  1
  O  O159  1  0.79329533  0.55362281  0.19401512  1
  O  O160  1  0.45449433  0.28407983  0.12212108  1
  O  O161  1  0.25552301  0.11548375  0.20634096  1
  O  O162  1  0.93585768  0.83881481  0.14256699  1
  O  O163  1  0.45306043  0.71380241  0.14775309  1
  O  O164  1  0.75884295  0.00570306  0.20890245  1
  O  O165  1  0.21235183  0.97782868  0.16916481  1
  O  O166  1  0.50604434  0.28017491  0.23315985  1
  O  O167  1  0.48266023  0.85456491  0.17967631  1
  O  O168  1  0.80822589  0.13008275  0.24474710  1
  O  O169  1  0.13568613  0.12891435  0.13232746  1
  O  O170  1  0.44634988  0.41061814  0.19146886  1
  O  O171  1  0.56482099  0.70914123  0.21933839  1
  O  O172  1  0.25179823  0.42526899  0.15675155  1
  O  O173  1  0.36901929  0.89137945  0.22352353  1
  O  O174  1  0.05792051  0.61589973  0.15877955  1
  O  O175  1  0.33296554  0.94278127  0.12704138  1
  O  O176  1  0.64711466  0.22943143  0.19551716  1
  O  O177  1  0.53355042  0.88639275  0.22600103  1
  O  O178  1  0.22994582  0.59475665  0.16468223  1
  O  O179  1  0.16770920  0.95563935  0.11907413  1
  O  O180  1  0.48944641  0.23039746  0.18371377  1
  O  O181  1  0.02702607  0.17385121  0.20571210  1
  O  O182  1  0.71390973  0.89007986  0.14294020  1
  O  O183  1  0.67608363  0.66290437  0.14601263  1
  O  O184  1  0.98813185  0.94363523  0.20644464  1
  O  O185  1  0.08915651  0.29424030  0.17587701  1
  O  O186  1  0.39349526  0.57626895  0.23658046  1
  O  O187  1  0.62117457  0.53033655  0.17665510  1
  O  O188  1  0.92113473  0.83351484  0.24137264  1
  O  O189  1  0.86680548  0.79217709  0.19435314  1
  O  O190  1  0.54709232  0.50990060  0.12722833  1
  O  O191  1  0.83677736  0.05168293  0.15716070  1
  O  O192  1  0.14499223  0.33079303  0.22269211  1
  O  O193  1  0.19624819  0.75534572  0.20378078  1
  O  O194  1  0.88618833  0.47721448  0.14220112  1
  O  O195  1  0.50799912  0.07619422  0.14997545  1
  O  O196  1  0.81783627  0.36268844  0.21381784  1
  O  O197  1  0.16126559  0.93205433  0.22287602  1
  O  O198  1  0.84317222  0.65581930  0.16457330  1
  O  O199  1  0.53301560  0.90837866  0.12769240  1
  O  O200  1  0.84741549  0.19295640  0.19215592  1
  O  O201  1  0.71771187  0.89174453  0.23731520  1
  O  O202  1  0.41108133  0.59837607  0.17305671  1
  O  O203  1  0.59676436  0.51839478  0.24061612  1
  O  O204  1  0.29617716  0.23486651  0.18100373  1
  O  O205  1  0.52167796  0.85612603  0.28405265  1
  O  O206  1  0.85965929  0.12635910  0.35579935  1
  O  O207  1  0.41623322  0.11798435  0.31767208  1
  O  O208  1  0.09714029  0.84763586  0.25549698  1
  O  O209  1  0.86166523  0.69618519  0.33036366  1
  O  O210  1  0.55603656  0.40399819  0.26899346  1
  O  O211  1  0.05938249  0.29424602  0.27167452  1
  O  O212  1  0.37840321  0.57151416  0.33538895  1
  O  O213  1  0.83174271  0.55582800  0.29836592  1
  O  O214  1  0.12525904  0.84349385  0.36085749  1
  O  O215  1  0.10208200  0.43233339  0.30892987  1
  O  O216  1  0.41974806  0.71132472  0.36801269  1
  O  O217  1  0.74992684  0.70072511  0.25857476  1
  O  O218  1  0.06273988  0.98480193  0.32127773  1
  O  O219  1  0.17881811  0.28099796  0.34571446  1
  O  O220  1  0.86854127  0.99942582  0.28641070  1
  O  O221  1  0.98168361  0.46720895  0.35110805  1
  O  O222  1  0.66754147  0.18030438  0.28242989  1
  O  O223  1  0.94567434  0.51837761  0.25452256  1
  O  O224  1  0.25663432  0.79425454  0.31903743  1
  O  O225  1  0.14719411  0.45396869  0.35901956  1
  O  O226  1  0.82487002  0.17990795  0.29419316  1
  O  O227  1  0.78104990  0.52344935  0.25209241  1
  O  O228  1  0.08455492  0.81536145  0.31327752  1
  O  O229  1  0.63863558  0.74731847  0.33211668  1
  O  O230  1  0.32646061  0.46610568  0.27147910  1
  O  O231  1  0.28783008  0.23640699  0.27243436  1
  O  O232  1  0.60067494  0.51962051  0.33497870  1
  O  O233  1  0.69393434  0.87931029  0.30130203  1
  O  O234  1  0.01047060  0.17586878  0.36071724  1
  O  O235  1  0.22563609  0.11581114  0.30216435  1
  O  O236  1  0.54116800  0.39418381  0.36648139  1
  O  O237  1  0.47766310  0.35860717  0.32079175  1
  O  O238  1  0.17023179  0.07866216  0.25538248  1
  O  O239  1  0.44804507  0.61748746  0.28359385  1
  O  O240  1  0.76778561  0.90028580  0.35071833  1
  O  O241  1  0.80687229  0.33389397  0.32798238  1
  O  O242  1  0.49685942  0.04715556  0.26429470  1
  O  O243  1  0.11852035  0.65466498  0.27416015  1
  O  O244  1  0.42837410  0.93275088  0.33582479  1
  O  O245  1  0.78119273  0.50194997  0.35038139  1
  O  O246  1  0.46783874  0.21667810  0.28587931  1
  O  O247  1  0.15296148  0.47821651  0.25510498  1
  O  O248  1  0.47184815  0.75387690  0.31350569  1
  O  O249  1  0.33025995  0.46868246  0.36597798  1
  O  O250  1  0.01862564  0.17491531  0.29695026  1
  O  O251  1  0.22489824  0.08263929  0.36600209  1
  O  O252  1  0.90380311  0.81129166  0.30487235  1
  O  O253  1  0.19197089  0.39916762  0.42439573  1
  O  O254  1  0.31381947  0.75969047  0.48445733  1
  O  O255  1  0.02544680  0.70269254  0.45053252  1
  O  O256  1  0.73053480  0.40241574  0.38116316  1
  O  O257  1  0.52544923  0.27800058  0.46524647  1
  O  O258  1  0.16950661  0.97134252  0.38453707  1
  O  O259  1  0.72832806  0.84216001  0.40735227  1
  O  O260  1  0.04014836  0.18393496  0.47216827  1
  O  O261  1  0.42467188  0.14659039  0.41769300  1
  O  O262  1  0.64710746  0.06460933  0.43113928  1
  O  O263  1  0.36878354  0.26037151  0.37392185  1
  O  O264  1  0.49193513  0.75364016  0.47230538  1
  O  O265  1  0.52420750  0.56922437  0.40797693  1
  O  O266  1  0.30679992  0.71051721  0.40557223  1
  O  O267  1  0.56516152  0.07455376  0.37625813  1
  O  O268  1  0.41269704  0.77380288  0.41695007  1
  O  O269  1  0.40349874  0.07893326  0.37352128  1
  O  O270  1  0.34400275  0.26590714  0.46851124  1
  O  O271  1  0.95555125  0.03033598  0.40757983  1
  O  O272  1  0.91729140  0.81682528  0.40145922  1
  O  O273  1  0.40730579  0.34440810  0.42098504  1
  O  O274  1  0.90078501  0.63217032  0.42728785  1
  O  O275  1  0.16577130  0.91477364  0.44083936  1
  O  O276  1  0.78937820  0.66239447  0.38229183  1
  O  O277  1  0.09059681  0.16252039  0.41145010  1
  O  O278  1  0.33470965  0.50246153  0.46164496  1
  O  O279  1  0.29500763  0.99311146  0.46013646  1
  O  O280  1  0.11309010  0.59910351  0.40460183  1
  O  O281  1  0.74713627  0.22550509  0.40595090  1
  O  O282  1  0.12710822  0.45602011  0.47417833  1
  O  O283  1  0.11106424  0.77005202  0.41664502  1
  O  O284  1  0.78757860  0.04529258  0.38584403  1
  O  O285  1  0.17639398  0.26482180  0.45520097  1
  O  O286  1  0.67754524  0.73012392  0.43345688  1
  O  O287  1  0.53315008  0.40388516  0.43209844  1
