# generated using pymatgen
data_Na22Zr16Si13(PO14)6
_symmetry_space_group_name_H-M   'P 1'
_cell_length_a   15.80284400
_cell_length_b   16.04975156
_cell_length_c   47.24929200
_cell_angle_alpha   90.00000000
_cell_angle_beta   90.00000000
_cell_angle_gamma   48.30066901
_symmetry_Int_Tables_number   1
_chemical_formula_structural   Na22Zr16Si13(PO14)6
_chemical_formula_sum   'Na44 Zr32 Si26 P12 O168'
_cell_volume   8947.74473928
_cell_formula_units_Z   2
loop_
 _symmetry_equiv_pos_site_id
 _symmetry_equiv_pos_as_xyz
  1  'x, y, z'
loop_
 _atom_site_type_symbol
 _atom_site_label
 _atom_site_symmetry_multiplicity
 _atom_site_fract_x
 _atom_site_fract_y
 _atom_site_fract_z
 _atom_site_occupancy
  Na  Na0  1  0.33306493  0.50463773  0.02629805  1
  Na  Na1  1  0.41072021  0.99198183  0.00422597  1
  Na  Na2  1  0.32524929  0.08467044  0.09442982  1
  Na  Na3  1  0.68474644  0.94601831  0.00791297  1
  Na  Na4  1  0.84635468  0.47979184  0.01610770  1
  Na  Na5  1  0.02608585  0.76432997  0.09917975  1
  Na  Na6  1  0.73633979  0.15941772  0.00573999  1
  Na  Na7  1  0.91412305  0.56079532  0.10181835  1
  Na  Na8  1  0.69181409  0.49624411  0.12061498  1
  Na  Na9  1  0.27670248  0.31416445  0.02457740  1
  Na  Na10  1  0.32108011  0.83629450  0.08471579  1
  Na  Na11  1  0.99386699  0.59582038  0.00777744  1
  Na  Na12  1  0.78498262  0.21839631  0.13015829  1
  Na  Na13  1  0.10484211  0.50248784  0.19415317  1
  Na  Na14  1  0.78283431  0.70324229  0.20383740  1
  Na  Na15  1  0.38640310  0.48775205  0.13095600  1
  Na  Na16  1  0.40933559  0.05449158  0.17422066  1
  Na  Na17  1  0.65056517  0.35482286  0.21763450  1
  Na  Na18  1  0.22049153  0.84402776  0.16135426  1
  Na  Na19  1  0.56219260  0.12492950  0.23914678  1
  Na  Na20  1  0.29849177  0.07493686  0.24651469  1
  Na  Na21  1  0.99436021  0.78469132  0.18518182  1
  Na  Na22  1  0.91389797  0.40458570  0.21027982  1
  Na  Na23  1  0.61271234  0.10006752  0.15503442  1
  Na  Na24  1  0.43085151  0.77581808  0.25302114  1
  Na  Na25  1  0.82767549  0.99042116  0.32628676  1
  Na  Na26  1  0.43055158  0.25999680  0.32686754  1
  Na  Na27  1  0.10884296  0.97674892  0.26240535  1
  Na  Na28  1  0.98861184  0.63653323  0.29437917  1
  Na  Na29  1  0.29503546  0.92040875  0.35463431  1
  Na  Na30  1  0.80334104  0.42530148  0.28256310  1
  Na  Na31  1  0.18082669  0.71986102  0.35658394  1
  Na  Na32  1  0.88908728  0.64794512  0.37133111  1
  Na  Na33  1  0.59994111  0.38021068  0.30157086  1
  Na  Na34  1  0.52015766  0.98502313  0.33619367  1
  Na  Na35  1  0.21777448  0.69566189  0.27135477  1
  Na  Na36  1  0.88536982  0.39661805  0.36238211  1
  Na  Na37  1  0.52586322  0.53520344  0.44864806  1
  Na  Na38  1  0.87464940  0.98033910  0.43022995  1
  Na  Na39  1  0.79707305  0.49298242  0.45199550  1
  Na  Na40  1  0.47697761  0.31929300  0.45070794  1
  Na  Na41  1  0.36198313  0.00490481  0.43967837  1
  Na  Na42  1  0.21507314  0.88715847  0.44842763  1
  Na  Na43  1  0.93317552  0.16909771  0.43200055  1
  Zr  Zr44  1  0.53718104  0.48386748  0.07700731  1
  Zr  Zr45  1  0.15280706  0.19843479  0.02262786  1
  Zr  Zr46  1  0.91688002  0.21892224  0.00581031  1
  Zr  Zr47  1  0.15833458  0.52670381  0.06061120  1
  Zr  Zr48  1  0.35546242  0.69912584  0.02772605  1
  Zr  Zr49  1  0.67078108  0.04901851  0.06721013  1
  Zr  Zr50  1  0.04273857  0.98329035  0.08612193  1
  Zr  Zr51  1  0.70687974  0.73290038  0.02838258  1
  Zr  Zr52  1  0.13896617  0.07263562  0.20511431  1
  Zr  Zr53  1  0.83405777  0.78673500  0.14418944  1
  Zr  Zr54  1  0.48117865  0.82455746  0.12673128  1
  Zr  Zr55  1  0.77484595  0.11436303  0.19090418  1
  Zr  Zr56  1  0.96630132  0.32698404  0.12794190  1
  Zr  Zr57  1  0.26774219  0.62021540  0.18924360  1
  Zr  Zr58  1  0.64062183  0.56786311  0.20132217  1
  Zr  Zr59  1  0.33026550  0.27995491  0.13903536  1
  Zr  Zr60  1  0.73058062  0.65577407  0.32995082  1
  Zr  Zr61  1  0.43796872  0.36529909  0.26590090  1
  Zr  Zr62  1  0.07359099  0.40690325  0.25152263  1
  Zr  Zr63  1  0.37776911  0.69322283  0.31254009  1
  Zr  Zr64  1  0.57128630  0.91226949  0.25529371  1
  Zr  Zr65  1  0.88199504  0.20008292  0.31764055  1
  Zr  Zr66  1  0.24616140  0.15319455  0.32886881  1
  Zr  Zr67  1  0.94457158  0.85984127  0.26759321  1
  Zr  Zr68  1  0.29291064  0.26416557  0.45061603  1
  Zr  Zr69  1  0.05006113  0.95713418  0.39573958  1
  Zr  Zr70  1  0.67816338  0.99327360  0.38014535  1
  Zr  Zr71  1  0.05603645  0.28623090  0.43391409  1
  Zr  Zr72  1  0.16812121  0.49733950  0.36969859  1
  Zr  Zr73  1  0.50048815  0.75106165  0.42815990  1
  Zr  Zr74  1  0.85072575  0.78582934  0.42934242  1
  Zr  Zr75  1  0.54046136  0.43197447  0.38935805  1
  Si  Si76  1  0.55457969  0.99479008  0.11636553  1
  Si  Si77  1  0.18290758  0.73274265  0.05576954  1
  Si  Si78  1  0.43669647  0.33574422  0.08429128  1
  Si  Si79  1  0.17405489  0.97613953  0.02325751  1
  Si  Si80  1  0.85402513  0.98448472  0.12540626  1
  Si  Si81  1  0.56245455  0.67417973  0.06146215  1
  Si  Si82  1  0.14733176  0.32411354  0.08388425  1
  Si  Si83  1  0.15152250  0.57783511  0.24463591  1
  Si  Si84  1  0.85253501  0.28160089  0.18099954  1
  Si  Si85  1  0.06087514  0.90189183  0.21221995  1
  Si  Si86  1  0.76361291  0.61019555  0.15141289  1
  Si  Si87  1  0.44939356  0.56568652  0.24445472  1
  Si  Si88  1  0.15078608  0.27124432  0.18453420  1
  Si  Si89  1  0.76299617  0.91417459  0.21227366  1
  Si  Si90  1  0.45561225  0.62939401  0.14495345  1
  Si  Si91  1  0.77398326  0.14599155  0.37226358  1
  Si  Si92  1  0.44829612  0.87001214  0.30549312  1
  Si  Si93  1  0.65706565  0.48544648  0.34045084  1
  Si  Si94  1  0.36022981  0.19815777  0.27577008  1
  Si  Si95  1  0.06425850  0.15720359  0.37292437  1
  Si  Si96  1  0.75580510  0.85168975  0.31169130  1
  Si  Si97  1  0.35858904  0.49535336  0.33119637  1
  Si  Si98  1  0.06187322  0.20839076  0.27217809  1
  Si  Si99  1  0.03517736  0.50857288  0.43289881  1
  Si  Si100  1  0.01553891  0.75854260  0.39831416  1
  Si  Si101  1  0.64901407  0.80568355  0.39513101  1
  P  P102  1  0.83065999  0.27870836  0.07601347  1
  P  P103  1  0.85747494  0.75128653  0.06821239  1
  P  P104  1  0.44141564  0.87056478  0.20169065  1
  P  P105  1  0.13281078  0.56852311  0.14060001  1
  P  P106  1  0.17992249  0.02923947  0.12905857  1
  P  P107  1  0.47002358  0.32120646  0.19099839  1
  P  P108  1  0.03145347  0.45081094  0.32744307  1
  P  P109  1  0.74266343  0.15865029  0.26576164  1
  P  P110  1  0.77027324  0.60954975  0.25498730  1
  P  P111  1  0.07967653  0.91256436  0.31594601  1
  P  P112  1  0.35123407  0.72972728  0.38841834  1
  P  P113  1  0.38264484  0.20076003  0.38103220  1
  O  O114  1  0.22051082  0.70451309  0.02225146  1
  O  O115  1  0.57164227  0.01782550  0.08430324  1
  O  O116  1  0.14576568  0.97460633  0.05695988  1
  O  O117  1  0.39001322  0.33978655  0.11580348  1
  O  O118  1  0.60467378  0.55902567  0.07555646  1
  O  O119  1  0.25721311  0.19542711  0.00283417  1
  O  O120  1  0.80670591  0.23676498  0.98504708  1
  O  O121  1  0.12124406  0.42400553  0.06513024  1
  O  O122  1  0.47602477  0.53033108  0.03699739  1
  O  O123  1  0.87479797  0.75299637  0.10040981  1
  O  O124  1  0.83185894  0.28680475  0.04353046  1
  O  O125  1  0.12011693  0.57002232  0.10854318  1
  O  O126  1  0.09220650  0.15107188  0.11948831  1
  O  O127  1  0.78456947  0.86542319  0.05360238  1
  O  O128  1  0.90499724  0.15226183  0.08380779  1
  O  O129  1  0.59870891  0.87746229  0.01107423  1
  O  O130  1  0.70763677  0.33564542  0.08569131  1
  O  O131  1  0.29737708  0.97507040  0.11667767  1
  O  O132  1  0.97564924  0.67044275  0.05414964  1
  O  O133  1  0.87189839  0.33034576  0.09075414  1
  O  O134  1  0.15022973  0.95939519  0.11658067  1
  O  O135  1  0.79869827  0.70291616  0.06535652  1
  O  O136  1  0.28988658  0.72359904  0.06759549  1
  O  O137  1  0.99133267  0.28961956  0.00637178  1
  O  O138  1  0.04954097  0.05789599  0.00736804  1
  O  O139  1  0.33584947  0.38923222  0.06074829  1
  O  O140  1  0.45028134  0.73110528  0.04190840  1
  O  O141  1  0.78823791  0.00992688  0.09553309  1
  O  O142  1  0.25284711  0.26960568  0.10604222  1
  O  O143  1  0.18337620  0.22325879  0.06221098  1
  O  O144  1  0.49520552  0.54352024  0.11817929  1
  O  O145  1  0.17385225  0.50930242  0.02059607  1
  O  O146  1  0.51586963  0.76926533  0.08588151  1
  O  O147  1  0.55079281  0.21050427  0.07654046  1
  O  O148  1  0.25940129  0.85352169  0.00894152  1
  O  O149  1  0.83152844  0.62873998  0.00424506  1
  O  O150  1  0.06619473  0.85753442  0.06589587  1
  O  O151  1  0.46932530  0.41496905  0.08523446  1
  O  O152  1  0.22877746  0.03627804  0.02121491  1
  O  O153  1  0.49709806  0.93952631  0.11730560  1
  O  O154  1  0.18239990  0.63960835  0.06826732  1
  O  O155  1  0.03341463  0.36910743  0.10061300  1
  O  O156  1  0.68422848  0.07204295  0.02793967  1
  O  O157  1  0.96455543  0.97038052  0.11773940  1
  O  O158  1  0.66296724  0.64508174  0.04091107  1
  O  O159  1  0.85811731  0.31053277  0.14816131  1
  O  O160  1  0.16018276  0.60660003  0.21187811  1
  O  O161  1  0.75696703  0.58098806  0.18414479  1
  O  O162  1  0.05270063  0.87287159  0.24498225  1
  O  O163  1  0.19816752  0.15522943  0.19999894  1
  O  O164  1  0.89600147  0.86911703  0.13977946  1
  O  O165  1  0.40802753  0.75135028  0.13395147  1
  O  O166  1  0.70906330  0.03674611  0.20000873  1
  O  O167  1  0.18177215  0.01582953  0.16133964  1
  O  O168  1  0.45621080  0.31182714  0.22308522  1
  O  O169  1  0.43500658  0.89100270  0.16958158  1
  O  O170  1  0.75678300  0.16784721  0.23368310  1
  O  O171  1  0.69201338  0.73576656  0.24801030  1
  O  O172  1  0.39517385  0.44520610  0.18217475  1
  O  O173  1  0.51983210  0.74429270  0.20862892  1
  O  O174  1  0.19829191  0.44913506  0.15244797  1
  O  O175  1  0.32316189  0.92696920  0.21449470  1
  O  O176  1  0.01401903  0.64530071  0.15535388  1
  O  O177  1  0.88879301  0.55298878  0.24231558  1
  O  O178  1  0.59531848  0.26390455  0.18556275  1
  O  O179  1  0.48625064  0.92309730  0.21542625  1
  O  O180  1  0.19338351  0.61136134  0.14970222  1
  O  O181  1  0.72546960  0.55699835  0.24126040  1
  O  O182  1  0.43882136  0.26291997  0.17394307  1
  O  O183  1  0.97807782  0.20362094  0.19579049  1
  O  O184  1  0.67366502  0.92000916  0.13468352  1
  O  O185  1  0.63520103  0.69587764  0.13867521  1
  O  O186  1  0.93569967  0.97911136  0.19719687  1
  O  O187  1  0.04797998  0.31314085  0.16238015  1
  O  O188  1  0.33985231  0.61517693  0.22463940  1
  O  O189  1  0.56834273  0.57258906  0.16511439  1
  O  O190  1  0.87206212  0.86509168  0.23227269  1
  O  O191  1  0.81178140  0.82141933  0.18701649  1
  O  O192  1  0.12159069  0.10705534  0.24835803  1
  O  O193  1  0.77073849  0.08925712  0.14755462  1
  O  O194  1  0.09115114  0.37258222  0.20833822  1
  O  O195  1  0.14041311  0.79060303  0.19168547  1
  O  O196  1  0.83634802  0.49905787  0.13123913  1
  O  O197  1  0.46830474  0.11154970  0.13524259  1
  O  O198  1  0.76798491  0.39645933  0.20009455  1
  O  O199  1  0.11397045  0.96156276  0.21218803  1
  O  O200  1  0.81771165  0.66903853  0.14985072  1
  O  O201  1  0.09749492  0.51899059  0.24456232  1
  O  O202  1  0.79952430  0.22207434  0.18065104  1
  O  O203  1  0.66408473  0.92949412  0.22966237  1
  O  O204  1  0.35507826  0.64381441  0.16185067  1
  O  O205  1  0.54783577  0.55059378  0.22686582  1
  O  O206  1  0.25742851  0.24648143  0.16875114  1
  O  O207  1  0.45534092  0.89877342  0.27272917  1
  O  O208  1  0.82297071  0.13903476  0.34081176  1
  O  O209  1  0.35468689  0.16895530  0.30856905  1
  O  O210  1  0.64040452  0.46259003  0.37261372  1
  O  O211  1  0.80325483  0.72958263  0.32263790  1
  O  O212  1  0.50368874  0.44294340  0.25662912  1
  O  O213  1  0.01450896  0.32421972  0.25656721  1
  O  O214  1  0.31480171  0.61136806  0.31674609  1
  O  O215  1  0.77624632  0.58943560  0.28711166  1
  O  O216  1  0.09329233  0.91275466  0.34793023  1
  O  O217  1  0.02927577  0.46389253  0.29517128  1
  O  O218  1  0.33612436  0.72659009  0.35616825  1
  O  O219  1  0.30723694  0.32798225  0.37384698  1
  O  O220  1  0.01361586  0.03150787  0.30374637  1
  O  O221  1  0.11975666  0.32938731  0.33719567  1
  O  O222  1  0.81782947  0.03471655  0.27467353  1
  O  O223  1  0.91426353  0.50513565  0.33996035  1
  O  O224  1  0.61742540  0.21563116  0.27107604  1
  O  O225  1  0.50593176  0.14348369  0.37150138  1
  O  O226  1  0.19838296  0.83525260  0.30112090  1
  O  O227  1  0.06108211  0.52116855  0.33956869  1
  O  O228  1  0.77326117  0.21752655  0.28278883  1
  O  O229  1  0.34092446  0.15010714  0.36586597  1
  O  O230  1  0.01961408  0.86861560  0.30741415  1
  O  O231  1  0.57648590  0.78512378  0.31834525  1
  O  O232  1  0.27677458  0.50005830  0.25965445  1
  O  O233  1  0.23445463  0.27683922  0.26103284  1
  O  O234  1  0.53793737  0.55945077  0.32218244  1
  O  O235  1  0.64369077  0.90785303  0.29134719  1
  O  O236  1  0.95932071  0.21056274  0.35064251  1
  O  O237  1  0.16439763  0.16697266  0.29439250  1
  O  O238  1  0.42155486  0.47254667  0.36136639  1
  O  O239  1  0.44363620  0.39041843  0.30918760  1
  O  O240  1  0.69747352  0.70965693  0.37088497  1
  O  O241  1  0.40126497  0.65806217  0.26976844  1
  O  O242  1  0.71553569  0.93849636  0.33820768  1
  O  O243  1  0.74390398  0.36850389  0.32163635  1
  O  O244  1  0.44393561  0.08367100  0.25650346  1
  O  O245  1  0.07198934  0.68931619  0.26511651  1
  O  O246  1  0.37502635  0.98132857  0.32558300  1
  O  O247  1  0.71377926  0.54142624  0.33940407  1
  O  O248  1  0.41378029  0.25719680  0.27622367  1
  O  O249  1  0.74417355  0.06424259  0.37223239  1
  O  O250  1  0.39497834  0.81039358  0.30706015  1
  O  O251  1  0.25035494  0.50535383  0.33850641  1
  O  O252  1  0.95498957  0.23350445  0.28796098  1
  O  O253  1  0.17839690  0.11198502  0.35629629  1
  O  O254  1  0.85712695  0.83621816  0.29482040  1
  O  O255  1  0.06141021  0.51261820  0.39916466  1
  O  O256  1  0.98665971  0.77906755  0.43237924  1
  O  O257  1  0.40189812  0.24724564  0.47170204  1
  O  O258  1  0.09006867  0.05768710  0.39184981  1
  O  O259  1  0.60931734  0.91958631  0.38089728  1
  O  O260  1  0.95112264  0.28967053  0.45360252  1
  O  O261  1  0.38128528  0.19075288  0.41349158  1
  O  O262  1  0.72915690  0.95477497  0.42133379  1
  O  O263  1  0.60864699  0.60683042  0.44563259  1
  O  O264  1  0.42537172  0.61572924  0.40315865  1
  O  O265  1  0.23225632  0.80948211  0.40212780  1
  O  O266  1  0.40766701  0.78041309  0.39148523  1
  O  O267  1  0.16095884  0.42532601  0.44815077  1
  O  O268  1  0.87285816  0.09718301  0.39611004  1
  O  O269  1  0.90273635  0.77481372  0.38784632  1
  O  O270  1  0.21718064  0.19475003  0.45026511  1
  O  O271  1  0.75913395  0.74971629  0.41548031  1
  O  O272  1  0.03540551  0.97251881  0.43579611  1
  O  O273  1  0.02743278  0.25880509  0.39441066  1
  O  O274  1  0.37589329  0.85676629  0.45213784  1
  O  O275  1  0.12986129  0.63494957  0.38686117  1
  O  O276  1  0.65787193  0.27139061  0.37887958  1
  O  O277  1  0.95108868  0.63024968  0.44780800  1
  O  O278  1  0.01782793  0.85131262  0.38661648  1
  O  O279  1  0.98050750  0.44837461  0.43487548  1
  O  O280  1  0.54610725  0.83663947  0.41495219  1
  O  O281  1  0.52919879  0.40707914  0.42863328  1
