# generated using pymatgen
data_Na9Zr6Si5P3O34
_symmetry_space_group_name_H-M   'P 1'
_cell_length_a   9.15937100
_cell_length_b   16.04975191
_cell_length_c   55.59154400
_cell_angle_alpha   90.00000000
_cell_angle_beta   90.00000000
_cell_angle_gamma   55.20191359
_symmetry_Int_Tables_number   1
_chemical_formula_structural   Na9Zr6Si5P3O34
_chemical_formula_sum   'Na36 Zr24 Si20 P12 O136'
_cell_volume   6710.80887098
_cell_formula_units_Z   4
loop_
 _symmetry_equiv_pos_site_id
 _symmetry_equiv_pos_as_xyz
  1  'x, y, z'
loop_
 _atom_site_type_symbol
 _atom_site_label
 _atom_site_symmetry_multiplicity
 _atom_site_fract_x
 _atom_site_fract_y
 _atom_site_fract_z
 _atom_site_occupancy
  Na  Na0  1  0.80318946  0.82947507  0.10094342  1
  Na  Na1  1  0.60897573  0.29528616  0.03745095  1
  Na  Na2  1  0.16028762  0.19192666  0.05891047  1
  Na  Na3  1  0.18137362  0.70454710  0.14956788  1
  Na  Na4  1  0.40834014  0.20467021  0.14946352  1
  Na  Na5  1  0.45508897  0.69193745  0.05888927  1
  Na  Na6  1  0.80009159  0.79526333  0.03744930  1
  Na  Na7  1  0.53732899  0.32929203  0.10106229  1
  Na  Na8  1  0.87247978  0.02321802  0.12151617  1
  Na  Na9  1  0.82619181  0.53147082  0.00392024  1
  Na  Na10  1  0.10961305  0.03162272  0.00398397  1
  Na  Na11  1  0.08005115  0.52374581  0.12152307  1
  Na  Na12  1  0.76339028  0.86397343  0.26261515  1
  Na  Na13  1  0.77785514  0.35062259  0.17900569  1
  Na  Na14  1  0.15137188  0.22124690  0.23020576  1
  Na  Na15  1  0.13674242  0.73436404  0.31370635  1
  Na  Na16  1  0.39416271  0.23427048  0.31375748  1
  Na  Na17  1  0.40572317  0.72118534  0.23029165  1
  Na  Na18  1  0.52046318  0.85046971  0.17902004  1
  Na  Na19  1  0.50848124  0.36406072  0.26252790  1
  Na  Na20  1  0.84207930  0.05071767  0.28824566  1
  Na  Na21  1  0.85759025  0.53484784  0.20455717  1
  Na  Na22  1  0.07178068  0.03505269  0.20455326  1
  Na  Na23  1  0.05665178  0.55028498  0.28825917  1
  Na  Na24  1  0.75551697  0.89238902  0.43378330  1
  Na  Na25  1  0.73351915  0.38017602  0.34327486  1
  Na  Na26  1  0.11242803  0.25552771  0.39160331  1
  Na  Na27  1  0.30693773  0.78918054  0.45535516  1
  Na  Na28  1  0.11705345  0.28911777  0.45529715  1
  Na  Na29  1  0.37805768  0.75506839  0.39174414  1
  Na  Na30  1  0.50605427  0.88023559  0.34336213  1
  Na  Na31  1  0.46164386  0.39231120  0.43386755  1
  Na  Na32  1  0.80766848  0.05297474  0.48848954  1
  Na  Na33  1  0.83530508  0.56107791  0.37121405  1
  Na  Na34  1  0.04270530  0.06145663  0.37119201  1
  Na  Na35  1  0.08878623  0.55311815  0.48864266  1
  Zr  Zr36  1  0.76854676  0.01290617  0.01821215  1
  Zr  Zr37  1  0.83975540  0.41343009  0.08512388  1
  Zr  Zr38  1  0.11499723  0.12806688  0.15553228  1
  Zr  Zr39  1  0.13487463  0.61502233  0.07360996  1
  Zr  Zr40  1  0.63389066  0.11508428  0.07366775  1
  Zr  Zr41  1  0.62819645  0.62799569  0.15554189  1
  Zr  Zr42  1  0.33241338  0.91336473  0.08518327  1
  Zr  Zr43  1  0.20503297  0.51243187  0.01816690  1
  Zr  Zr44  1  0.82719140  0.92841065  0.17011493  1
  Zr  Zr45  1  0.81055432  0.44295106  0.25360152  1
  Zr  Zr46  1  0.08729088  0.15650561  0.32264489  1
  Zr  Zr47  1  0.10395889  0.64236688  0.23923223  1
  Zr  Zr48  1  0.61094065  0.14238572  0.23915448  1
  Zr  Zr49  1  0.59931496  0.65664167  0.32272086  1
  Zr  Zr50  1  0.30347918  0.94296240  0.25355298  1
  Zr  Zr51  1  0.31502057  0.42851434  0.17008393  1
  Zr  Zr52  1  0.79977869  0.95663161  0.33715295  1
  Zr  Zr53  1  0.78112585  0.46922815  0.41905212  1
  Zr  Zr54  1  0.14847933  0.07158892  0.47437594  1
  Zr  Zr55  1  0.07555723  0.67116392  0.40758912  1
  Zr  Zr56  1  0.58346040  0.17120600  0.40760277  1
  Zr  Zr57  1  0.71078647  0.57151093  0.47447693  1
  Zr  Zr58  1  0.28198089  0.96917302  0.41898758  1
  Zr  Zr59  1  0.28703806  0.45663699  0.33721126  1
  Si  Si60  1  0.00175513  0.38466472  0.14580592  1
  Si  Si61  1  0.01695307  0.87128405  0.06435178  1
  Si  Si62  1  0.95748166  0.15654498  0.09557930  1
  Si  Si63  1  0.72844923  0.65659484  0.09561194  1
  Si  Si64  1  0.23983261  0.37120979  0.06441707  1
  Si  Si65  1  0.22820834  0.88454522  0.14586500  1
  Si  Si66  1  0.97485499  0.41279163  0.31353411  1
  Si  Si67  1  0.98923664  0.89922598  0.23022468  1
  Si  Si68  1  0.93987724  0.67217655  0.17929281  1
  Si  Si69  1  0.92493294  0.18621168  0.26257493  1
  Si  Si70  1  0.70241686  0.68622172  0.26265031  1
  Si  Si71  1  0.71504935  0.17214918  0.17920668  1
  Si  Si72  1  0.21183218  0.39927237  0.23016760  1
  Si  Si73  1  0.19936391  0.91288195  0.31351202  1
  Si  Si74  1  0.95792368  0.92805622  0.39709621  1
  Si  Si75  1  0.91327683  0.69988490  0.34690674  1
  Si  Si76  1  0.89992701  0.21298724  0.42821180  1
  Si  Si77  1  0.67592239  0.71301312  0.42828786  1
  Si  Si78  1  0.68673792  0.20008311  0.34686880  1
  Si  Si79  1  0.18733549  0.42812898  0.39722131  1
  P  P80  1  0.51841324  0.01978052  0.12128622  1
  P  P81  1  0.53947450  0.50625194  0.03640758  1
  P  P82  1  0.44710554  0.00612533  0.03644820  1
  P  P83  1  0.44093467  0.51992083  0.12124957  1
  P  P84  1  0.49147994  0.04978265  0.28812225  1
  P  P85  1  0.50564706  0.53535014  0.20456594  1
  P  P86  1  0.42288651  0.03538716  0.20453140  1
  P  P87  1  0.40918195  0.54955793  0.28825644  1
  P  P88  1  0.46977356  0.07791183  0.45628536  1
  P  P89  1  0.47418015  0.56481583  0.37147131  1
  P  P90  1  0.39664098  0.06512476  0.37142559  1
  P  P91  1  0.37626501  0.57807391  0.45631764  1
  O  O92  1  0.85142322  0.96364238  0.08023480  1
  O  O93  1  0.83680031  0.47440106  0.16232291  1
  O  O94  1  0.12976384  0.06559419  0.08070873  1
  O  O95  1  0.10627021  0.58197941  0.16319854  1
  O  O96  1  0.72928535  0.08183714  0.16313931  1
  O  O97  1  0.73786840  0.56572224  0.08072226  1
  O  O98  1  0.21317577  0.97449316  0.16235243  1
  O  O99  1  0.22014835  0.46373006  0.08028216  1
  O  O100  1  0.59361801  0.96236735  0.01601279  1
  O  O101  1  0.59248061  0.45732545  0.10308957  1
  O  O102  1  0.36263528  0.07893347  0.13922888  1
  O  O103  1  0.37105950  0.57107713  0.05319996  1
  O  O104  1  0.48608877  0.07087243  0.05324973  1
  O  O105  1  0.47795893  0.57949568  0.13912920  1
  O  O106  1  0.49184774  0.95729147  0.10311150  1
  O  O107  1  0.48068589  0.46233689  0.01598358  1
  O  O108  1  0.69560447  0.94418015  0.13487930  1
  O  O109  1  0.69159465  0.41540335  0.05119842  1
  O  O110  1  0.26006949  0.07461019  0.02613332  1
  O  O111  1  0.26278941  0.59959623  0.10837129  1
  O  O112  1  0.53646131  0.09976624  0.10841768  1
  O  O113  1  0.58970411  0.57458843  0.02603785  1
  O  O114  1  0.47689600  0.91518190  0.05120669  1
  O  O115  1  0.41531964  0.44434888  0.13493173  1
  O  O116  1  0.95442818  0.88601053  0.03588335  1
  O  O117  1  0.95009915  0.40511405  0.11719399  1
  O  O118  1  0.99656986  0.13828693  0.12466923  1
  O  O119  1  0.03128241  0.62291581  0.04052563  1
  O  O120  1  0.72137373  0.12327575  0.04060485  1
  O  O121  1  0.72672366  0.63816592  0.12470896  1
  O  O122  1  0.23798301  0.90521431  0.11722858  1
  O  O123  1  0.27412085  0.38553917  0.03596810  1
  O  O124  1  0.07094502  0.36249889  0.06632713  1
  O  O125  1  0.05005761  0.88318729  0.14941414  1
  O  O126  1  0.90521343  0.65912965  0.09188191  1
  O  O127  1  0.88558911  0.02321615  0.99277129  1
  O  O128  1  0.06791260  0.52205744  0.99273042  1
  O  O129  1  0.77570275  0.15895253  0.09194693  1
  O  O130  1  0.18230815  0.38369192  0.14928636  1
  O  O131  1  0.20339818  0.86236168  0.06634617  1
  O  O132  1  0.91412373  0.26483015  0.08633419  1
  O  O133  1  0.04730226  0.27513011  0.15508659  1
  O  O134  1  0.04247980  0.76591812  0.07330237  1
  O  O135  1  0.42461675  0.26593439  0.07349331  1
  O  O136  1  0.40239908  0.77517320  0.15507714  1
  O  O137  1  0.55510652  0.76483757  0.08639482  1
  O  O138  1  0.82171813  0.98908655  0.24624456  1
  O  O139  1  0.80864402  0.50322924  0.32960104  1
  O  O140  1  0.09250720  0.09630612  0.24657092  1
  O  O141  1  0.07772654  0.61011958  0.33035458  1
  O  O142  1  0.70171198  0.11021581  0.33037951  1
  O  O143  1  0.71490096  0.59628703  0.24662628  1
  O  O144  1  0.18463890  0.00326146  0.32961059  1
  O  O145  1  0.19960946  0.48901191  0.24624608  1
  O  O146  1  0.57881243  0.97499978  0.18661837  1
  O  O147  1  0.56321084  0.48941431  0.27004400  1
  O  O148  1  0.33532926  0.10990584  0.30602818  1
  O  O149  1  0.35164869  0.59557754  0.22279105  1
  O  O150  1  0.45658102  0.09577038  0.22268075  1
  O  O151  1  0.44436633  0.60992177  0.30617472  1
  O  O152  1  0.45813097  0.98967012  0.26984704  1
  O  O153  1  0.47027320  0.47496642  0.18668209  1
  O  O154  1  0.66773830  0.97159011  0.30148071  1
  O  O155  1  0.68333014  0.45766196  0.21768915  1
  O  O156  1  0.24644460  0.11339143  0.19120192  1
  O  O157  1  0.23148583  0.62735511  0.27513770  1
  O  O158  1  0.51334209  0.12780645  0.27508932  1
  O  O159  1  0.52563574  0.61344646  0.19119125  1
  O  O160  1  0.40105543  0.95757964  0.21768805  1
  O  O161  1  0.38946038  0.47127387  0.30158051  1
  O  O162  1  0.94081027  0.92019327  0.20143761  1
  O  O163  1  0.92449529  0.43450765  0.28483054  1
  O  O164  1  0.97305079  0.16486895  0.29137090  1
  O  O165  1  0.99027624  0.65074921  0.20799449  1
  O  O166  1  0.70821070  0.15043197  0.20791139  1
  O  O167  1  0.69652885  0.66506131  0.29143446  1
  O  O168  1  0.20701243  0.93449887  0.28482588  1
  O  O169  1  0.21716223  0.42067723  0.20138075  1
  O  O170  1  0.03515684  0.39698897  0.23343282  1
  O  O171  1  0.02331738  0.90986473  0.31650900  1
  O  O172  1  0.87927116  0.68835396  0.25940008  1
  O  O173  1  0.89112321  0.17505493  0.17612823  1
  O  O174  1  0.75830291  0.67469661  0.17623710  1
  O  O175  1  0.74385177  0.18839737  0.25927209  1
  O  O176  1  0.15695270  0.40972100  0.31662018  1
  O  O177  1  0.17028674  0.89715297  0.23343916  1
  O  O178  1  0.90100894  0.78044860  0.17050443  1
  O  O179  1  0.88358300  0.29517384  0.25390101  1
  O  O180  1  0.01319134  0.30460809  0.32229625  1
  O  O181  1  0.03126413  0.79010738  0.23894842  1
  O  O182  1  0.38848312  0.29018190  0.23877373  1
  O  O183  1  0.37726266  0.80473586  0.32232970  1
  O  O184  1  0.52595291  0.79515644  0.25392748  1
  O  O185  1  0.53692257  0.28042370  0.17048492  1
  O  O186  1  0.78614504  0.01901484  0.41204907  1
  O  O187  1  0.06507580  0.12063516  0.41231176  1
  O  O188  1  0.69547111  0.62064388  0.41237942  1
  O  O189  1  0.17710131  0.51912478  0.41215973  1
  O  O190  1  0.55204905  0.00595199  0.35342520  1
  O  O191  1  0.54491954  0.51337551  0.43954720  1
  O  O192  1  0.32331066  0.12202761  0.47672379  1
  O  O193  1  0.32280795  0.62717219  0.38966815  1
  O  O194  1  0.42358549  0.12749702  0.38958245  1
  O  O195  1  0.43501396  0.62197959  0.47674195  1
  O  O196  1  0.43007033  0.01327756  0.43956302  1
  O  O197  1  0.43699471  0.50551753  0.35353417  1
  O  O198  1  0.65686242  0.00940050  0.46658273  1
  O  O199  1  0.65237467  0.48494725  0.38431293  1
  O  O200  1  0.21943552  0.14067342  0.35783435  1
  O  O201  1  0.22400661  0.66899246  0.44155801  1
  O  O202  1  0.44018253  0.16878358  0.44150802  1
  O  O203  1  0.49957387  0.64061725  0.35786286  1
  O  O204  1  0.37910674  0.98494278  0.38429588  1
  O  O205  1  0.32626239  0.50957493  0.46664572  1
  O  O206  1  0.91815145  0.94657506  0.36802556  1
  O  O207  1  0.88504260  0.46115524  0.45210060  1
  O  O208  1  0.96333174  0.19854503  0.45663908  1
  O  O209  1  0.96532192  0.67914734  0.37551596  1
  O  O210  1  0.67674235  0.17956047  0.37550184  1
  O  O211  1  0.64190313  0.69847620  0.45672294  1
  O  O212  1  0.19400341  0.96134276  0.45203866  1
  O  O213  1  0.18989463  0.44635175  0.36813698  1
  O  O214  1  0.01055850  0.42549857  0.40080335  1
  O  O215  1  0.03095962  0.06194320  0.49984835  1
  O  O216  1  0.84440468  0.72206192  0.42639112  1
  O  O217  1  0.86487214  0.20148387  0.34340057  1
  O  O218  1  0.73221897  0.70137258  0.34348657  1
  O  O219  1  0.71341294  0.22182990  0.42637056  1
  O  O220  1  0.84762308  0.56197670  0.49993699  1
  O  O221  1  0.13989600  0.92552578  0.40069376  1
  O  O222  1  0.86810588  0.80944331  0.33767446  1
  O  O223  1  0.87355641  0.31844109  0.41916955  1
  O  O224  1  0.00114853  0.81978934  0.40634509  1
  O  O225  1  0.36065896  0.31993423  0.40650259  1
  O  O226  1  0.49106512  0.81838893  0.41924664  1
  O  O227  1  0.51274547  0.30948833  0.33762668  1
