# generated using pymatgen
data_Na17Zr12Si10(PO13)5
_symmetry_space_group_name_H-M   'P 1'
_cell_length_a   9.27295600
_cell_length_b   15.80284349
_cell_length_c   45.79685300
_cell_angle_alpha   90.00000000
_cell_angle_beta   90.00000000
_cell_angle_gamma   56.43985526
_symmetry_Int_Tables_number   1
_chemical_formula_structural   Na17Zr12Si10(PO13)5
_chemical_formula_sum   'Na34 Zr24 Si20 P10 O130'
_cell_volume   5592.34006858
_cell_formula_units_Z   2
loop_
 _symmetry_equiv_pos_site_id
 _symmetry_equiv_pos_as_xyz
  1  'x, y, z'
loop_
 _atom_site_type_symbol
 _atom_site_label
 _atom_site_symmetry_multiplicity
 _atom_site_fract_x
 _atom_site_fract_y
 _atom_site_fract_z
 _atom_site_occupancy
  Na  Na0  1  0.55548666  0.72355886  0.04802864  1
  Na  Na1  1  0.02508668  0.24466295  0.01887708  1
  Na  Na2  1  0.89227099  0.06082564  0.06134932  1
  Na  Na3  1  0.70679028  0.47092665  0.07657094  1
  Na  Na4  1  0.17004112  0.98070354  0.00520972  1
  Na  Na5  1  0.41867630  0.14443222  0.11630545  1
  Na  Na6  1  0.60067501  0.27234349  0.16775502  1
  Na  Na7  1  0.14282302  0.78675662  0.10703557  1
  Na  Na8  1  0.93726377  0.64607533  0.16415227  1
  Na  Na9  1  0.76617777  0.95194699  0.16962623  1
  Na  Na10  1  0.25474569  0.45488412  0.11194124  1
  Na  Na11  1  0.42682564  0.63867731  0.21720396  1
  Na  Na12  1  0.58992447  0.77324024  0.26642613  1
  Na  Na13  1  0.08789228  0.27854765  0.21541106  1
  Na  Na14  1  0.91959164  0.13866264  0.26532454  1
  Na  Na15  1  0.75999446  0.45333301  0.26833625  1
  Na  Na16  1  0.25666529  0.95636762  0.21206366  1
  Na  Na17  1  0.41948258  0.13879145  0.31581813  1
  Na  Na18  1  0.58763345  0.27872712  0.36567802  1
  Na  Na19  1  0.08974916  0.77332999  0.31456561  1
  Na  Na20  1  0.92750586  0.63902491  0.36352485  1
  Na  Na21  1  0.75630987  0.95621569  0.36906248  1
  Na  Na22  1  0.25982750  0.45334134  0.31270222  1
  Na  Na23  1  0.43738721  0.64663559  0.41701363  1
  Na  Na24  1  0.64281763  0.78607318  0.47417569  1
  Na  Na25  1  0.10039776  0.27271357  0.41331944  1
  Na  Na26  1  0.91841310  0.14412817  0.46479131  1
  Na  Na27  1  0.75430062  0.45452281  0.46911883  1
  Na  Na28  1  0.26498630  0.95229559  0.41148363  1
  Na  Na29  1  0.39286145  0.06085336  0.51991769  1
  Na  Na30  1  0.52571934  0.24411264  0.56221167  1
  Na  Na31  1  0.05520327  0.72476912  0.53316537  1
  Na  Na32  1  0.66869310  0.98102598  0.57607413  1
  Na  Na33  1  0.19596036  0.47475597  0.50401811  1
  Zr  Zr34  1  0.96131500  0.53531579  0.04815004  1
  Zr  Zr35  1  0.92746964  0.85506448  0.03668806  1
  Zr  Zr36  1  0.54647624  0.36320239  0.04373449  1
  Zr  Zr37  1  0.42406279  0.03577151  0.03985833  1
  Zr  Zr38  1  0.95502388  0.05524321  0.14071345  1
  Zr  Zr39  1  0.06207233  0.35413421  0.13766501  1
  Zr  Zr40  1  0.56549572  0.85555132  0.14332445  1
  Zr  Zr41  1  0.43736276  0.56136028  0.13957944  1
  Zr  Zr42  1  0.94613421  0.55714282  0.24082893  1
  Zr  Zr43  1  0.06378966  0.85566164  0.24070779  1
  Zr  Zr44  1  0.56114509  0.35617145  0.24095755  1
  Zr  Zr45  1  0.44709931  0.05896145  0.23951770  1
  Zr  Zr46  1  0.94665027  0.05896970  0.34156152  1
  Zr  Zr47  1  0.06060115  0.35628001  0.34007918  1
  Zr  Zr48  1  0.56331697  0.85575235  0.34036275  1
  Zr  Zr49  1  0.44558394  0.55733348  0.34017734  1
  Zr  Zr50  1  0.93607094  0.56131543  0.44129862  1
  Zr  Zr51  1  0.06483818  0.85542283  0.43778750  1
  Zr  Zr52  1  0.56119103  0.35401859  0.44345341  1
  Zr  Zr53  1  0.45431234  0.05527477  0.44030258  1
  Zr  Zr54  1  0.92389700  0.03506697  0.54111906  1
  Zr  Zr55  1  0.04694676  0.36167838  0.53754433  1
  Zr  Zr56  1  0.42704076  0.85497424  0.54428714  1
  Zr  Zr57  1  0.45905685  0.53464848  0.53270718  1
  Si  Si58  1  0.26205429  0.59806344  0.06445151  1
  Si  Si59  1  0.23881353  0.29714229  0.06329015  1
  Si  Si60  1  0.27192150  0.09784083  0.16821423  1
  Si  Si61  1  0.73704678  0.31525768  0.11417114  1
  Si  Si62  1  0.24367100  0.81546679  0.16876708  1
  Si  Si63  1  0.76626042  0.59821606  0.11541210  1
  Si  Si64  1  0.26794762  0.59588839  0.26828227  1
  Si  Si65  1  0.74139465  0.81640721  0.21442399  1
  Si  Si66  1  0.24255016  0.31648896  0.26838713  1
  Si  Si67  1  0.77056047  0.09601267  0.21276193  1
  Si  Si68  1  0.26982912  0.09608443  0.36826094  1
  Si  Si69  1  0.74224551  0.31650408  0.31268124  1
  Si  Si70  1  0.24083632  0.81650301  0.36663985  1
  Si  Si71  1  0.76740763  0.59602182  0.31277262  1
  Si  Si72  1  0.26512550  0.59824171  0.46552565  1
  Si  Si73  1  0.74252768  0.81534247  0.41228922  1
  Si  Si74  1  0.23643540  0.31526834  0.46692804  1
  Si  Si75  1  0.77156251  0.09770071  0.41286740  1
  Si  Si76  1  0.73915089  0.29624482  0.51773997  1
  Si  Si77  1  0.76012248  0.59751806  0.51671766  1
  P  P78  1  0.73739308  0.96078731  0.10076932  1
  P  P79  1  0.27723173  0.92311351  0.08487839  1
  P  P80  1  0.75160164  0.45643101  0.19747008  1
  P  P81  1  0.25140121  0.45538743  0.18122902  1
  P  P82  1  0.75483368  0.95860037  0.29907723  1
  P  P83  1  0.25491766  0.95870751  0.28198287  1
  P  P84  1  0.75031225  0.45545610  0.39973877  1
  P  P85  1  0.25060407  0.45654799  0.38357394  1
  P  P86  1  0.77642633  0.92294862  0.49619890  1
  P  P87  1  0.23752585  0.96038152  0.48019544  1
  O  O88  1  0.45186840  0.51855505  0.04839421  1
  O  O89  1  0.05040141  0.38232014  0.04707280  1
  O  O90  1  0.89461056  0.90726737  0.07889242  1
  O  O91  1  0.56785305  0.01897196  0.08364774  1
  O  O92  1  0.30265461  0.82233759  0.07680007  1
  O  O93  1  0.29134647  0.97292457  0.05604783  1
  O  O94  1  0.16296011  0.53735448  0.06349100  1
  O  O95  1  0.39194972  0.31060620  0.05077951  1
  O  O96  1  0.67577870  0.92224608  0.02869765  1
  O  O97  1  0.77363926  0.59726257  0.07912009  1
  O  O98  1  0.98968093  0.94002819  0.02154500  1
  O  O99  1  0.69787793  0.31815368  0.07908441  1
  O  O100  1  0.28276787  0.07440936  0.00664794  1
  O  O101  1  0.81966158  0.62210725  0.01936463  1
  O  O102  1  0.13638216  0.70874387  0.04863960  1
  O  O103  1  0.72624940  0.29520693  0.01742940  1
  O  O104  1  0.28606366  0.18403230  0.05541204  1
  O  O105  1  0.46138217  0.00964426  0.15537817  1
  O  O106  1  0.55591988  0.40451576  0.12984001  1
  O  O107  1  0.06427106  0.90351007  0.15262017  1
  O  O108  1  0.95751492  0.50777406  0.12765241  1
  O  O109  1  0.09529467  0.00150412  0.09864355  1
  O  O110  1  0.91330940  0.39921692  0.17749934  1
  O  O111  1  0.41884803  0.90814429  0.10593017  1
  O  O112  1  0.58083956  0.51635935  0.17994097  1
  O  O113  1  0.75508925  0.03911043  0.11831157  1
  O  O114  1  0.25550503  0.37423735  0.16133576  1
  O  O115  1  0.75642540  0.87790035  0.12124918  1
  O  O116  1  0.24925783  0.53610727  0.16109937  1
  O  O117  1  0.12975709  0.06934519  0.16095818  1
  O  O118  1  0.88416642  0.34250076  0.11684565  1
  O  O119  1  0.39320278  0.83965392  0.16485033  1
  O  O120  1  0.62414389  0.56962550  0.12145846  1
  O  O121  1  0.79460615  0.09574248  0.17709973  1
  O  O122  1  0.21944478  0.31537602  0.09944540  1
  O  O123  1  0.73303599  0.81205899  0.17876130  1
  O  O124  1  0.29635544  0.60538468  0.09976350  1
  O  O125  1  0.80051636  0.20529364  0.12788656  1
  O  O126  1  0.21064376  0.20782826  0.15336925  1
  O  O127  1  0.71584805  0.70568451  0.12905254  1
  O  O128  1  0.29796436  0.70700459  0.15421328  1
  O  O129  1  0.45161190  0.51017257  0.25248062  1
  O  O130  1  0.55520407  0.90481399  0.22883323  1
  O  O131  1  0.06009255  0.40218189  0.25243847  1
  O  O132  1  0.95185375  0.01042090  0.22901658  1
  O  O133  1  0.08490915  0.51353457  0.19988911  1
  O  O134  1  0.92235461  0.90226929  0.28067177  1
  O  O135  1  0.41492393  0.40038715  0.20066124  1
  O  O136  1  0.59112469  0.01446150  0.27969494  1
  O  O137  1  0.75727650  0.53397624  0.21756784  1
  O  O138  1  0.25750532  0.87716864  0.26252193  1
  O  O139  1  0.75449872  0.37538702  0.21732499  1
  O  O140  1  0.25006570  0.03975252  0.26202257  1
  O  O141  1  0.12165851  0.57056722  0.26139772  1
  O  O142  1  0.88739175  0.84192779  0.22107876  1
  O  O143  1  0.38844381  0.34304465  0.26268954  1
  O  O144  1  0.62254919  0.07088265  0.21812245  1
  O  O145  1  0.78447909  0.59512735  0.27688753  1
  O  O146  1  0.22217481  0.81146538  0.20432333  1
  O  O147  1  0.72452839  0.31435234  0.27681015  1
  O  O148  1  0.27755950  0.10531965  0.20408690  1
  O  O149  1  0.79644882  0.70655795  0.22803183  1
  O  O150  1  0.21080158  0.70789264  0.25619971  1
  O  O151  1  0.70707243  0.20854782  0.22557816  1
  O  O152  1  0.30310931  0.20553567  0.25514899  1
  O  O153  1  0.45140853  0.01039061  0.35210216  1
  O  O154  1  0.55961724  0.40222254  0.32858856  1
  O  O155  1  0.05454804  0.90490766  0.35226896  1
  O  O156  1  0.95072671  0.51037663  0.32867165  1
  O  O157  1  0.09143206  0.01448005  0.30142313  1
  O  O158  1  0.91392122  0.40046383  0.38033775  1
  O  O159  1  0.42256337  0.90248470  0.30035039  1
  O  O160  1  0.58395892  0.51427989  0.38107637  1
  O  O161  1  0.75018414  0.03973523  0.31896660  1
  O  O162  1  0.25394302  0.37525171  0.36377773  1
  O  O163  1  0.75731584  0.87724031  0.31859641  1
  O  O164  1  0.25689118  0.53380919  0.36343594  1
  O  O165  1  0.12217024  0.07067917  0.36300133  1
  O  O166  1  0.88787865  0.34330617  0.31830016  1
  O  O167  1  0.38691356  0.84194868  0.35995592  1
  O  O168  1  0.62076250  0.57085308  0.31948814  1
  O  O169  1  0.77715009  0.10525953  0.37698605  1
  O  O170  1  0.22430105  0.31473914  0.30425934  1
  O  O171  1  0.72216236  0.81128779  0.37669967  1
  O  O172  1  0.28365929  0.59526282  0.30418596  1
  O  O173  1  0.80302624  0.20561627  0.32600174  1
  O  O174  1  0.20627932  0.20851010  0.35532618  1
  O  O175  1  0.71009977  0.70811025  0.32481178  1
  O  O176  1  0.29590532  0.70671639  0.35295029  1
  O  O177  1  0.45689560  0.50758471  0.45353893  1
  O  O178  1  0.56306380  0.90383780  0.42827230  1
  O  O179  1  0.05590084  0.40426078  0.45104404  1
  O  O180  1  0.96085344  0.00951562  0.42574459  1
  O  O181  1  0.07930515  0.51673767  0.40094494  1
  O  O182  1  0.91868294  0.90780295  0.47526303  1
  O  O183  1  0.41187385  0.39954189  0.40364758  1
  O  O184  1  0.59476458  0.00134109  0.48236548  1
  O  O185  1  0.74857817  0.53579057  0.42000579  1
  O  O186  1  0.25665392  0.87725186  0.45980831  1
  O  O187  1  0.75367444  0.37436786  0.41952033  1
  O  O188  1  0.25451538  0.03875153  0.46252793  1
  O  O189  1  0.12265855  0.57022329  0.45910981  1
  O  O190  1  0.89267757  0.83897521  0.41643816  1
  O  O191  1  0.38334662  0.34262685  0.46435989  1
  O  O192  1  0.62951748  0.06912693  0.42008590  1
  O  O193  1  0.79773333  0.60417894  0.48148839  1
  O  O194  1  0.23225381  0.81213933  0.40229554  1
  O  O195  1  0.71942393  0.31491054  0.48159922  1
  O  O196  1  0.29378320  0.09629805  0.40390773  1
  O  O197  1  0.79496742  0.70720686  0.42686211  1
  O  O198  1  0.21597705  0.70557386  0.45198189  1
  O  O199  1  0.71013808  0.20770290  0.42773617  1
  O  O200  1  0.30015607  0.20511830  0.45331085  1
  O  O201  1  0.55160234  0.38125169  0.53413746  1
  O  O202  1  0.94860570  0.51766063  0.53311607  1
  O  O203  1  0.06808971  0.01847483  0.49734646  1
  O  O204  1  0.39477998  0.90733000  0.50207836  1
  O  O205  1  0.78999602  0.97283440  0.52506548  1
  O  O206  1  0.80174294  0.82223665  0.50430035  1
  O  O207  1  0.17558607  0.92135195  0.55221476  1
  O  O208  1  0.89280516  0.30924328  0.53026061  1
  O  O209  1  0.65898720  0.53803865  0.51723951  1
  O  O210  1  0.78332917  0.07378603  0.57442776  1
  O  O211  1  0.19551910  0.31891025  0.50194458  1
  O  O212  1  0.48889035  0.93993158  0.55960595  1
  O  O213  1  0.27025923  0.59730426  0.50185359  1
  O  O214  1  0.78629053  0.18311059  0.52553079  1
  O  O215  1  0.22831133  0.29221710  0.56352844  1
  O  O216  1  0.63507415  0.70848273  0.53241467  1
  O  O217  1  0.31848961  0.62111022  0.56165167  1
