# generated using pymatgen
data_Na24Zr16Si14(P2O29)3
_symmetry_space_group_name_H-M   'P 1'
_cell_length_a   9.15937100
_cell_length_b   24.11698144
_cell_length_c   43.78738300
_cell_angle_alpha   90.00000000
_cell_angle_beta   90.00000000
_cell_angle_gamma   67.67936926
_symmetry_Int_Tables_number   1
_chemical_formula_structural   Na24Zr16Si14(P2O29)3
_chemical_formula_sum   'Na48 Zr32 Si28 P12 O174'
_cell_volume   8947.74517401
_cell_formula_units_Z   2
loop_
 _symmetry_equiv_pos_site_id
 _symmetry_equiv_pos_as_xyz
  1  'x, y, z'
loop_
 _atom_site_type_symbol
 _atom_site_label
 _atom_site_symmetry_multiplicity
 _atom_site_fract_x
 _atom_site_fract_y
 _atom_site_fract_z
 _atom_site_occupancy
  Na  Na0  1  0.05587648  0.85794429  0.07908134  1
  Na  Na1  1  0.75920491  0.36770926  0.01689326  1
  Na  Na2  1  0.55228231  0.49455347  0.00635378  1
  Na  Na3  1  0.64737163  0.03202733  0.07929724  1
  Na  Na4  1  0.36874191  0.55166051  0.08369325  1
  Na  Na5  1  0.46143481  0.95650295  0.03464992  1
  Na  Na6  1  0.45696748  0.65099913  0.01444661  1
  Na  Na7  1  0.10928407  0.46555306  0.08768280  1
  Na  Na8  1  0.94537749  0.58594048  0.01513188  1
  Na  Na9  1  0.90620716  0.22049396  0.09679607  1
  Na  Na10  1  0.67047088  0.71204598  0.06983395  1
  Na  Na11  1  0.52706798  0.08067255  0.01034983  1
  Na  Na12  1  0.63763610  0.23553403  0.20775612  1
  Na  Na13  1  0.78160570  0.57636253  0.14320976  1
  Na  Na14  1  0.41461927  0.71523504  0.14400581  1
  Na  Na15  1  0.19363315  0.40734884  0.21629864  1
  Na  Na16  1  0.99979299  0.88911900  0.21102750  1
  Na  Na17  1  0.17472132  0.24479209  0.15710122  1
  Na  Na18  1  0.05201296  0.06608916  0.14234997  1
  Na  Na19  1  0.90423909  0.74091603  0.20558493  1
  Na  Na20  1  0.73388229  0.88880054  0.14316208  1
  Na  Na21  1  0.55425409  0.55922751  0.20937502  1
  Na  Na22  1  0.34084667  0.05667829  0.20731546  1
  Na  Na23  1  0.51024102  0.39003216  0.14700750  1
  Na  Na24  1  0.37930717  0.54051943  0.32167979  1
  Na  Na25  1  0.48909563  0.89740588  0.26826830  1
  Na  Na26  1  0.09936435  0.04474625  0.27340216  1
  Na  Na27  1  0.89950734  0.71920980  0.33654988  1
  Na  Na28  1  0.64960021  0.20918812  0.33567662  1
  Na  Na29  1  0.82369426  0.55017000  0.27110431  1
  Na  Na30  1  0.72344596  0.37838002  0.26273623  1
  Na  Na31  1  0.56030742  0.07062446  0.33484717  1
  Na  Na32  1  0.38721665  0.22608813  0.26967204  1
  Na  Na33  1  0.22620910  0.89647425  0.33610710  1
  Na  Na34  1  0.00519643  0.39522965  0.33180936  1
  Na  Na35  1  0.16904656  0.72865015  0.27168200  1
  Na  Na36  1  0.08898821  0.82900330  0.44423834  1
  Na  Na37  1  0.18660029  0.23381427  0.39521849  1
  Na  Na38  1  0.75478292  0.31998183  0.39121452  1
  Na  Na39  1  0.47337648  0.13425504  0.46430045  1
  Na  Na40  1  0.20840699  0.41780961  0.46192421  1
  Na  Na41  1  0.48699689  0.92742868  0.39989795  1
  Na  Na42  1  0.42607853  0.75349180  0.39958055  1
  Na  Na43  1  0.25575653  0.29085891  0.47251964  1
  Na  Na44  1  0.06175147  0.56495435  0.38205173  1
  Na  Na45  1  0.83239350  0.19907397  0.46365466  1
  Na  Na46  1  0.40386782  0.70461303  0.46846848  1
  Na  Na47  1  0.80934706  0.07338795  0.40884467  1
  Zr  Zr48  1  0.06850718  0.68289543  0.04056927  1
  Zr  Zr49  1  0.89554832  0.35641650  0.09344345  1
  Zr  Zr50  1  0.68469491  0.57958289  0.06369234  1
  Zr  Zr51  1  0.87158534  0.92966030  0.01962312  1
  Zr  Zr52  1  0.35669552  0.38180026  0.02011865  1
  Zr  Zr53  1  0.20403230  0.07846046  0.07258374  1
  Zr  Zr54  1  0.41211472  0.85751265  0.09175889  1
  Zr  Zr55  1  0.55533534  0.20017243  0.04202343  1
  Zr  Zr56  1  0.73243607  0.02276432  0.15648995  1
  Zr  Zr57  1  0.56273286  0.69129591  0.21796416  1
  Zr  Zr58  1  0.34401009  0.92314263  0.19685041  1
  Zr  Zr59  1  0.50354449  0.25439578  0.13425882  1
  Zr  Zr60  1  0.99770236  0.75508645  0.13138148  1
  Zr  Zr61  1  0.82055871  0.42653775  0.19611593  1
  Zr  Zr62  1  0.07177748  0.18802819  0.22061927  1
  Zr  Zr63  1  0.24127752  0.52044195  0.15715329  1
  Zr  Zr64  1  0.38826291  0.35881453  0.28273125  1
  Zr  Zr65  1  0.22311199  0.02997538  0.34749297  1
  Zr  Zr66  1  0.99711709  0.26472355  0.32173160  1
  Zr  Zr67  1  0.16279168  0.59734386  0.25821182  1
  Zr  Zr68  1  0.65995201  0.09405484  0.26089306  1
  Zr  Zr69  1  0.49287502  0.76256043  0.32244078  1
  Zr  Zr70  1  0.72713027  0.53095839  0.34454056  1
  Zr  Zr71  1  0.90472120  0.86211935  0.28207886  1
  Zr  Zr72  1  0.07561263  0.70693382  0.40635254  1
  Zr  Zr73  1  0.83469834  0.40352636  0.45855932  1
  Zr  Zr74  1  0.67037087  0.58498784  0.43680672  1
  Zr  Zr75  1  0.84197047  0.92793906  0.38716216  1
  Zr  Zr76  1  0.32286680  0.42902172  0.38536625  1
  Zr  Zr77  1  0.14918646  0.10220883  0.43817152  1
  Zr  Zr78  1  0.44560487  0.85569768  0.45939482  1
  Zr  Zr79  1  0.55855837  0.20582060  0.41516133  1
  Si  Si80  1  0.79508648  0.81646481  0.06240382  1
  Si  Si81  1  0.77680058  0.12477647  0.09672409  1
  Si  Si82  1  0.93444046  0.44712878  0.02992849  1
  Si  Si83  1  0.10324613  0.96392645  0.04306173  1
  Si  Si84  1  0.99720099  0.61621260  0.09892720  1
  Si  Si85  1  0.54849565  0.33759086  0.07152627  1
  Si  Si86  1  0.63063539  0.48840789  0.12918588  1
  Si  Si87  1  0.46536910  0.15308420  0.19305686  1
  Si  Si88  1  0.43362386  0.46270763  0.22516379  1
  Si  Si89  1  0.60422666  0.79161502  0.15907083  1
  Si  Si90  1  0.82099556  0.29307437  0.16324134  1
  Si  Si91  1  0.65847642  0.96204248  0.22413908  1
  Si  Si92  1  0.23924360  0.65684064  0.19061979  1
  Si  Si93  1  0.41612175  0.98554880  0.13090917  1
  Si  Si94  1  0.29724278  0.82315552  0.25478333  1
  Si  Si95  1  0.12181094  0.49240281  0.31556291  1
  Si  Si96  1  0.10183644  0.79984848  0.34802218  1
  Si  Si97  1  0.26752103  0.12824252  0.28819093  1
  Si  Si98  1  0.48650848  0.63228634  0.28580118  1
  Si  Si99  1  0.32249328  0.29695385  0.34967726  1
  Si  Si100  1  0.90239370  0.99372727  0.31983544  1
  Si  Si101  1  0.07381343  0.32244942  0.25368740  1
  Si  Si102  1  0.94458886  0.16893848  0.37995557  1
  Si  Si103  1  0.74542230  0.82172086  0.43588009  1
  Si  Si104  1  0.93805384  0.44755296  0.40710756  1
  Si  Si105  1  0.14308051  0.96869094  0.41658839  1
  Si  Si106  1  0.54265550  0.33830048  0.44895814  1
  Si  Si107  1  0.74071426  0.66050142  0.38222375  1
  P  P108  1  0.23103922  0.22122682  0.08207954  1
  P  P109  1  0.33078014  0.72603484  0.07841726  1
  P  P110  1  0.08075428  0.89072922  0.14495603  1
  P  P111  1  0.90731046  0.55757423  0.20711775  1
  P  P112  1  0.99175591  0.05683253  0.20944666  1
  P  P113  1  0.15637568  0.38650624  0.14519624  1
  P  P114  1  0.73702315  0.22776385  0.27174438  1
  P  P115  1  0.57721436  0.89443239  0.33400154  1
  P  P116  1  0.64414197  0.39882172  0.33363338  1
  P  P117  1  0.82012357  0.72848015  0.26947194  1
  P  P118  1  0.38811758  0.56413494  0.39669851  1
  P  P119  1  0.49790062  0.05938875  0.40022716  1
  O  O120  1  0.87276716  0.81568930  0.09640840  1
  O  O121  1  0.81588082  0.44761994  0.00313338  1
  O  O122  1  0.69313331  0.12220433  0.06340976  1
  O  O123  1  0.08357134  0.60961255  0.06476289  1
  O  O124  1  0.07218686  0.94373010  0.00800391  1
  O  O125  1  0.69629649  0.63781326  0.03415407  1
  O  O126  1  0.50069039  0.32039960  0.10436586  1
  O  O127  1  0.25589967  0.71052760  0.04868539  1
  O  O128  1  0.06851621  0.38093414  0.11600983  1
  O  O129  1  0.51253199  0.56445090  0.04358319  1
  O  O130  1  0.32517437  0.22921989  0.10995528  1
  O  O131  1  0.20682161  0.74293911  0.10467598  1
  O  O132  1  0.40227125  0.05698060  0.05260609  1
  O  O133  1  0.19585248  0.87612242  0.11773322  1
  O  O134  1  0.33187609  0.21135110  0.05248770  1
  O  O135  1  0.07794785  0.27568609  0.07694947  1
  O  O136  1  0.47755949  0.67265682  0.08823567  1
  O  O137  1  0.66632949  0.98023669  0.00966555  1
  O  O138  1  0.48058277  0.41042867  0.99690960  1
  O  O139  1  0.18518332  0.16628912  0.08645295  1
  O  O140  1  0.36729252  0.78218014  0.07060689  1
  O  O141  1  0.85378827  0.74835775  0.04832794  1
  O  O142  1  0.72088082  0.42113584  0.11456988  1
  O  O143  1  0.89725440  0.51103077  0.04859824  1
  O  O144  1  0.67483872  0.19511275  0.10785985  1
  O  O145  1  0.98904735  0.68133179  0.11253087  1
  O  O146  1  0.12178333  0.02811589  0.04492582  1
  O  O147  1  0.46089306  0.91997100  0.11498360  1
  O  O148  1  0.51616327  0.29595617  0.04212470  1
  O  O149  1  0.73269516  0.32896606  0.06847805  1
  O  O150  1  0.08639026  0.65115605  0.00231835  1
  O  O151  1  0.93482769  0.96204806  0.05863996  1
  O  O152  1  0.82278226  0.61504804  0.09718304  1
  O  O153  1  0.95921157  0.11819248  0.09350409  1
  O  O154  1  0.12470312  0.42660744  0.01884018  1
  O  O155  1  0.55987633  0.17278337  0.00356665  1
  O  O156  1  0.60240823  0.84495468  0.06355552  1
  O  O157  1  0.75976258  0.07513124  0.12043193  1
  O  O158  1  0.93178036  0.39768462  0.05637403  1
  O  O159  1  0.64243689  0.54105845  0.10778427  1
  O  O160  1  0.86748299  0.85521164  0.03989040  1
  O  O161  1  0.41525920  0.40407472  0.06142185  1
  O  O162  1  0.27362858  0.03608297  0.11177353  1
  O  O163  1  0.25984153  0.91359164  0.05922483  1
  O  O164  1  0.11883593  0.55817516  0.11777855  1
  O  O165  1  0.54152690  0.15828233  0.22638972  1
  O  O166  1  0.70458064  0.49109546  0.16342922  1
  O  O167  1  0.52923126  0.79209018  0.12497514  1
  O  O168  1  0.35707827  0.45804108  0.19185694  1
  O  O169  1  0.73581301  0.95884600  0.19001794  1
  O  O170  1  0.90592989  0.29287233  0.13033934  1
  O  O171  1  0.34312177  0.98824539  0.16519447  1
  O  O172  1  0.15499362  0.66169956  0.22419514  1
  O  O173  1  0.90958881  0.04185830  0.18162901  1
  O  O174  1  0.74456353  0.71220213  0.24087288  1
  O  O175  1  0.16177323  0.90251586  0.17406131  1
  O  O176  1  0.98509816  0.57614930  0.23455812  1
  O  O177  1  0.88380028  0.07314947  0.23806084  1
  O  O178  1  0.04409615  0.40297301  0.17315475  1
  O  O179  1  0.85173765  0.20929687  0.24427066  1
  O  O180  1  0.01546052  0.54048036  0.17882867  1
  O  O181  1  0.93010456  0.94644108  0.13758521  1
  O  O182  1  0.75180856  0.60950469  0.19769333  1
  O  O183  1  0.14429137  0.00289096  0.21824003  1
  O  O184  1  0.29280437  0.32602213  0.15297931  1
  O  O185  1  0.02838899  0.83734889  0.15116175  1
  O  O186  1  0.86948729  0.50284311  0.21805853  1
  O  O187  1  0.03725657  0.11030080  0.19965040  1
  O  O188  1  0.22114455  0.43605981  0.13897214  1
  O  O189  1  0.55606683  0.08698104  0.17795672  1
  O  O190  1  0.39009656  0.75728747  0.23884959  1
  O  O191  1  0.51761993  0.85656055  0.17636908  1
  O  O192  1  0.34221056  0.53056101  0.23867318  1
  O  O193  1  0.61999629  0.02793878  0.24002992  1
  O  O194  1  0.76577005  0.36040101  0.17826551  1
  O  O195  1  0.11863803  0.25453954  0.24022869  1
  O  O196  1  0.26906997  0.59130584  0.17527224  1
  O  O197  1  0.41346947  0.66185636  0.19289300  1
  O  O198  1  0.58119914  0.99759110  0.12989630  1
  O  O199  1  0.65741575  0.27935833  0.16031718  1
  O  O200  1  0.49020132  0.95218379  0.22341353  1
  O  O201  1  0.62113968  0.45345203  0.22329234  1
  O  O202  1  0.79318068  0.78144269  0.15698166  1
  O  O203  1  0.44500898  0.49496327  0.13244895  1
  O  O204  1  0.27763598  0.16310368  0.19543568  1
  O  O205  1  0.41637901  0.41057937  0.24706212  1
  O  O206  1  0.58541865  0.73770609  0.17961544  1
  O  O207  1  0.31719527  0.87640710  0.23416230  1
  O  O208  1  0.48011282  0.20558913  0.17077322  1
  O  O209  1  0.12607420  0.71158544  0.16882068  1
  O  O210  1  0.95234293  0.37457682  0.23177774  1
  O  O211  1  0.94669373  0.24171615  0.18503212  1
  O  O212  1  0.78539177  0.90897500  0.24475145  1
  O  O213  1  0.20603375  0.49255216  0.34850636  1
  O  O214  1  0.36872791  0.82630793  0.28886225  1
  O  O215  1  0.19291155  0.12342452  0.25461859  1
  O  O216  1  0.03396029  0.79702720  0.31377550  1
  O  O217  1  0.40155377  0.29419531  0.31541309  1
  O  O218  1  0.57323956  0.62701103  0.25248285  1
  O  O219  1  0.98788305  0.32710103  0.28699212  1
  O  O220  1  0.82881519  0.99343596  0.35400214  1
  O  O221  1  0.56447147  0.38238492  0.30570726  1
  O  O222  1  0.40870523  0.04211381  0.37392928  1
  O  O223  1  0.81126232  0.24465838  0.30005825  1
  O  O224  1  0.66308422  0.90931792  0.36113655  1
  O  O225  1  0.54506009  0.40476989  0.36284456  1
  O  O226  1  0.70839679  0.74334920  0.29734967  1
  O  O227  1  0.49852759  0.55590410  0.36884616  1
  O  O228  1  0.68106194  0.88267762  0.30480190  1
  O  O229  1  0.58981477  0.28255300  0.26083822  1
  O  O230  1  0.41772970  0.94768388  0.32780130  1
  O  O231  1  0.80765262  0.34905351  0.33990413  1
  O  O232  1  0.97273135  0.67505179  0.27923626  1
  O  O233  1  0.68525530  0.17583947  0.28111189  1
  O  O234  1  0.53827044  0.83871317  0.34148392  1
  O  O235  1  0.66049523  0.45909884  0.32569333  1
  O  O236  1  0.86464923  0.78244049  0.26065262  1
  O  O237  1  0.20116873  0.42509976  0.30052248  1
  O  O238  1  0.06683339  0.10372779  0.36644062  1
  O  O239  1  0.16624443  0.19376934  0.30356595  1
  O  O240  1  0.01549113  0.86538778  0.36397115  1
  O  O241  1  0.27763428  0.36430766  0.36420640  1
  O  O242  1  0.44508440  0.69834777  0.30093166  1
  O  O243  1  0.77953899  0.59009098  0.37116550  1
  O  O244  1  0.94459432  0.92878550  0.30261716  1
  O  O245  1  0.07159492  0.00346304  0.32191734  1
  O  O246  1  0.24256460  0.33189175  0.25564187  1
  O  O247  1  0.31880223  0.62226132  0.28338703  1
  O  O248  1  0.15011524  0.29020910  0.34640711  1
  O  O249  1  0.29096736  0.78790191  0.34899766  1
  O  O250  1  0.45183004  0.12322064  0.28597402  1
  O  O251  1  0.10924593  0.83306072  0.25563678  1
  O  O252  1  0.93071407  0.50628527  0.31847254  1
  O  O253  1  0.06053516  0.74932767  0.36719784  1
  O  O254  1  0.26374504  0.07346385  0.30997147  1
  O  O255  1  0.95024335  0.22692011  0.36106585  1
  O  O256  1  0.14518781  0.54371639  0.29382056  1
  O  O257  1  0.77628659  0.04781216  0.29929372  1
  O  O258  1  0.62423612  0.71007185  0.35851926  1
  O  O259  1  0.60593020  0.57968178  0.30806170  1
  O  O260  1  0.43998280  0.24440312  0.37107411  1
  O  O261  1  0.67434729  0.84171212  0.47096843  1
  O  O262  1  0.01741135  0.17567943  0.41412256  1
  O  O263  1  0.85642409  0.46463728  0.37423125  1
  O  O264  1  0.68652164  0.14742549  0.44464498  1
  O  O265  1  0.21940039  0.96948282  0.38258011  1
  O  O266  1  0.65198456  0.66310975  0.41555391  1
  O  O267  1  0.42483982  0.33799630  0.47573348  1
  O  O268  1  0.23094676  0.72844852  0.42624817  1
  O  O269  1  0.46918459  0.57396598  0.42630308  1
  O  O270  1  0.39140431  0.07496990  0.42986338  1
  O  O271  1  0.35612176  0.22101261  0.43528504  1
  O  O272  1  0.23259763  0.61914665  0.39227703  1
  O  O273  1  0.01592589  0.37500443  0.48176057  1
  O  O274  1  0.64678056  0.00340929  0.40823704  1
  O  O275  1  0.34352632  0.50978009  0.40189655  1
  O  O276  1  0.34151972  0.80507219  0.46925405  1
  O  O277  1  0.53752883  0.11281927  0.39037687  1
  O  O278  1  0.89267833  0.75763692  0.43392442  1
  O  O279  1  0.82238737  0.48919703  0.43649962  1
  O  O280  1  0.06497949  0.03682873  0.43058918  1
  O  O281  1  0.63367822  0.27434462  0.43033881  1
  O  O282  1  0.69182754  0.35896592  0.45998429  1
  O  O283  1  0.90984292  0.66721265  0.38541681  1
  O  O284  1  0.00796825  0.93991279  0.41544156  1
  O  O285  1  0.62016903  0.61216391  0.47530266  1
  O  O286  1  0.10426111  0.13380971  0.47645821  1
  O  O287  1  0.10487261  0.45627894  0.41023057  1
  O  O288  1  0.76779432  0.17017798  0.38166715  1
  O  O289  1  0.57334736  0.82341736  0.42035342  1
  O  O290  1  0.93745039  0.38110872  0.41720374  1
  O  O291  1  0.80074992  0.87218443  0.41972014  1
  O  O292  1  0.44133647  0.38754541  0.42241460  1
  O  O293  1  0.29305304  0.93026836  0.43914947  1
