# generated using pymatgen
data_Na11Zr6Si6P3O37
_symmetry_space_group_name_H-M   'P 1'
_cell_length_a   9.07514300
_cell_length_b   9.06848800
_cell_length_c   45.56167100
_cell_angle_alpha   90.00000000
_cell_angle_beta   90.00000000
_cell_angle_gamma   90.00000000
_symmetry_Int_Tables_number   1
_chemical_formula_structural   Na11Zr6Si6P3O37
_chemical_formula_sum   'Na22 Zr12 Si12 P6 O74'
_cell_volume   3749.62644461
_cell_formula_units_Z   2
loop_
 _symmetry_equiv_pos_site_id
 _symmetry_equiv_pos_as_xyz
  1  'x, y, z'
loop_
 _atom_site_type_symbol
 _atom_site_label
 _atom_site_symmetry_multiplicity
 _atom_site_fract_x
 _atom_site_fract_y
 _atom_site_fract_z
 _atom_site_occupancy
  Na  Na0  1  0.80408395  0.77466981  0.02835604  1
  Na  Na1  1  0.63050388  0.39093973  0.01710078  1
  Na  Na2  1  0.06152276  0.13177774  0.02089265  1
  Na  Na3  1  0.35747889  0.92948323  0.04775087  1
  Na  Na4  1  0.57554199  0.42022356  0.09316904  1
  Na  Na5  1  0.05011761  0.23489739  0.09550999  1
  Na  Na6  1  0.20357456  0.20137783  0.18781714  1
  Na  Na7  1  0.91079061  0.96096215  0.14522360  1
  Na  Na8  1  0.41716928  0.72715993  0.14708161  1
  Na  Na9  1  0.70605984  0.46729047  0.18607322  1
  Na  Na10  1  0.05178409  0.93937637  0.23959420  1
  Na  Na11  1  0.55166023  0.73954746  0.23964998  1
  Na  Na12  1  0.68612617  0.72658077  0.33198942  1
  Na  Na13  1  0.39722372  0.46731824  0.29308991  1
  Na  Na14  1  0.89984749  0.20192250  0.29124390  1
  Na  Na15  1  0.19217868  0.96106335  0.33398424  1
  Na  Na16  1  0.52748735  0.42024195  0.38613329  1
  Na  Na17  1  0.05299736  0.23485587  0.38370360  1
  Na  Na18  1  0.04207554  0.13112119  0.45828451  1
  Na  Na19  1  0.74456165  0.92917185  0.43144007  1
  Na  Na20  1  0.29901667  0.77460311  0.45065201  1
  Na  Na21  1  0.47259971  0.39048678  0.46219957  1
  Zr  Zr22  1  0.27524726  0.57091776  0.06975478  1
  Zr  Zr23  1  0.35591467  0.09857202  0.12348511  1
  Zr  Zr24  1  0.85366213  0.58806412  0.12220763  1
  Zr  Zr25  1  0.77617389  0.09445327  0.05843843  1
  Zr  Zr26  1  0.76661704  0.08772132  0.20978716  1
  Zr  Zr27  1  0.83785798  0.59435068  0.26840778  1
  Zr  Zr28  1  0.33712537  0.08790194  0.26941641  1
  Zr  Zr29  1  0.26589093  0.59423637  0.21070475  1
  Zr  Zr30  1  0.24942512  0.58790350  0.35690636  1
  Zr  Zr31  1  0.32747156  0.09456731  0.42071213  1
  Zr  Zr32  1  0.82789818  0.57085980  0.40938088  1
  Zr  Zr33  1  0.74747492  0.09854845  0.35567397  1
  Si  Si34  1  0.90659424  0.46120121  0.05051038  1
  Si  Si35  1  0.72268047  0.22558698  0.13482080  1
  Si  Si36  1  0.21572686  0.44732684  0.13717782  1
  Si  Si37  1  0.39484039  0.23473214  0.05017839  1
  Si  Si38  1  0.40325668  0.95222395  0.19869319  1
  Si  Si39  1  0.20239431  0.72898982  0.28127220  1
  Si  Si40  1  0.70053157  0.95226315  0.28053579  1
  Si  Si41  1  0.90118483  0.72874333  0.19784610  1
  Si  Si42  1  0.88759770  0.44713116  0.34194698  1
  Si  Si43  1  0.70875863  0.23481167  0.42900979  1
  Si  Si44  1  0.19677732  0.46112145  0.42863718  1
  Si  Si45  1  0.38043351  0.22557629  0.34437351  1
  P  P46  1  0.56556180  0.79738097  0.08988359  1
  P  P47  1  0.07176731  0.88438140  0.09083457  1
  P  P48  1  0.05205711  0.29856155  0.23954881  1
  P  P49  1  0.55200282  0.38274054  0.23961744  1
  P  P50  1  0.53731933  0.79729621  0.38901762  1
  P  P51  1  0.03163276  0.88419014  0.38846036  1
  O  O52  1  0.82003164  0.51388954  0.08066784  1
  O  O53  1  0.81775262  0.14875316  0.10882068  1
  O  O54  1  0.32513430  0.51030901  0.11035067  1
  O  O55  1  0.32117499  0.19005386  0.08226864  1
  O  O56  1  0.18649862  0.78796557  0.07379566  1
  O  O57  1  0.45610250  0.90207416  0.10580275  1
  O  O58  1  0.95765832  0.78582366  0.10671545  1
  O  O59  1  0.67767901  0.88448864  0.07166345  1
  O  O60  1  0.99984817  0.98811160  0.06845965  1
  O  O61  1  0.63431768  0.69796299  0.11383137  1
  O  O62  1  0.14950183  0.97501525  0.11533214  1
  O  O63  1  0.47508957  0.70300501  0.06720954  1
  O  O64  1  0.08437228  0.50233625  0.05569594  1
  O  O65  1  0.54607437  0.20212007  0.12803550  1
  O  O66  1  0.04997614  0.48834699  0.12635669  1
  O  O67  1  0.57597970  0.20312506  0.05270653  1
  O  O68  1  0.39461887  0.41999767  0.04698795  1
  O  O69  1  0.22352552  0.26777356  0.13955406  1
  O  O70  1  0.73791010  0.40742939  0.13683953  1
  O  O71  1  0.90563213  0.27953217  0.05044870  1
  O  O72  1  0.83092899  0.53271326  0.02205975  1
  O  O73  1  0.31391899  0.14515931  0.02451909  1
  O  O74  1  0.81606449  0.01973846  0.02094279  1
  O  O75  1  0.29895603  0.02762954  0.22395119  1
  O  O76  1  0.30445457  0.65372451  0.25550426  1
  O  O77  1  0.80452916  0.02761293  0.25522189  1
  O  O78  1  0.79900133  0.65372672  0.22362082  1
  O  O79  1  0.66795697  0.28846220  0.22360931  1
  O  O80  1  0.93594512  0.39255359  0.25554545  1
  O  O81  1  0.43615737  0.28841754  0.25565004  1
  O  O82  1  0.16797877  0.39223793  0.22343013  1
  O  O83  1  0.48013773  0.48152471  0.21580502  1
  O  O84  1  0.12382424  0.20002437  0.26335434  1
  O  O85  1  0.62355107  0.48178529  0.26341755  1
  O  O86  1  0.98031165  0.19932916  0.21583813  1
  O  O87  1  0.57621806  0.98292915  0.20665573  1
  O  O88  1  0.02956840  0.69510771  0.27321109  1
  O  O89  1  0.52745138  0.98306345  0.27268337  1
  O  O90  1  0.07399256  0.69463876  0.20586113  1
  O  O91  1  0.89172780  0.90965526  0.19740004  1
  O  O92  1  0.71314009  0.77148715  0.28109903  1
  O  O93  1  0.21201138  0.90980161  0.28176003  1
  O  O94  1  0.39053105  0.77144922  0.19806361  1
  O  O95  1  0.76973073  0.15892437  0.16700622  1
  O  O96  1  0.35704766  0.01189490  0.16602183  1
  O  O97  1  0.84993360  0.66869210  0.16553596  1
  O  O98  1  0.27122979  0.52546725  0.16711055  1
  O  O99  1  0.77824898  0.51043463  0.36875652  1
  O  O100  1  0.78199775  0.19067386  0.39685997  1
  O  O101  1  0.28325055  0.51376238  0.39846485  1
  O  O102  1  0.28547018  0.14892150  0.37041240  1
  O  O103  1  0.14531690  0.78547473  0.37249074  1
  O  O104  1  0.42533125  0.88471582  0.40720528  1
  O  O105  1  0.91641303  0.78797023  0.40543888  1
  O  O106  1  0.64725357  0.90166208  0.37315891  1
  O  O107  1  0.95419097  0.97549537  0.36402289  1
  O  O108  1  0.62744674  0.70251512  0.41169346  1
  O  O109  1  0.10388463  0.98737108  0.41088718  1
  O  O110  1  0.46850378  0.69804184  0.36505943  1
  O  O111  1  0.05341947  0.48780479  0.35276441  1
  O  O112  1  0.52760553  0.20318952  0.42651086  1
  O  O113  1  0.01899891  0.50247338  0.42341520  1
  O  O114  1  0.55701757  0.20156169  0.35114343  1
  O  O115  1  0.36559483  0.40742766  0.34233538  1
  O  O116  1  0.19766526  0.27943314  0.42878796  1
  O  O117  1  0.70872238  0.42005893  0.43225554  1
  O  O118  1  0.87959703  0.26767227  0.33952954  1
  O  O119  1  0.25300596  0.66853042  0.31358652  1
  O  O120  1  0.83236549  0.52530597  0.31199186  1
  O  O121  1  0.33317309  0.15898255  0.31220677  1
  O  O122  1  0.74738872  0.01177106  0.31316904  1
  O  O123  1  0.78968383  0.14487222  0.45460803  1
  O  O124  1  0.28811193  0.01944217  0.45819464  1
  O  O125  1  0.27262063  0.53273688  0.45706764  1
