# generated using pymatgen
data_Na8Zr5Si5P2O29
_symmetry_space_group_name_H-M   'P 1'
_cell_length_a   9.15937100
_cell_length_b   16.04975191
_cell_length_c   55.59154400
_cell_angle_alpha   90.00000000
_cell_angle_beta   90.00000000
_cell_angle_gamma   55.20191359
_symmetry_Int_Tables_number   1
_chemical_formula_structural   Na8Zr5Si5P2O29
_chemical_formula_sum   'Na32 Zr20 Si20 P8 O116'
_cell_volume   6710.80887098
_cell_formula_units_Z   4
loop_
 _symmetry_equiv_pos_site_id
 _symmetry_equiv_pos_as_xyz
  1  'x, y, z'
loop_
 _atom_site_type_symbol
 _atom_site_label
 _atom_site_symmetry_multiplicity
 _atom_site_fract_x
 _atom_site_fract_y
 _atom_site_fract_z
 _atom_site_occupancy
  Na  Na0  1  0.80351696  0.80507698  0.05742645  1
  Na  Na1  1  0.77835295  0.34063487  0.14837334  1
  Na  Na2  1  0.24311766  0.17555150  0.03671070  1
  Na  Na3  1  0.17177155  0.69620122  0.11535881  1
  Na  Na4  1  0.43590363  0.19652445  0.11523844  1
  Na  Na5  1  0.40616455  0.67526230  0.03673535  1
  Na  Na6  1  0.54021272  0.84069663  0.14824666  1
  Na  Na7  1  0.58670752  0.30517879  0.05717686  1
  Na  Na8  1  0.87610553  0.01039956  0.09054082  1
  Na  Na9  1  0.90345430  0.52517985  0.01494583  1
  Na  Na10  1  0.04579219  0.02512020  0.01490414  1
  Na  Na11  1  0.10320104  0.51045882  0.09051469  1
  Na  Na12  1  0.76830113  0.85734218  0.23271460  1
  Na  Na13  1  0.75381498  0.37829810  0.31774890  1
  Na  Na14  1  0.15537009  0.21744674  0.20005840  1
  Na  Na15  1  0.14504876  0.73436043  0.28421666  1
  Na  Na16  1  0.38638505  0.23437937  0.28419912  1
  Na  Na17  1  0.40980412  0.71736521  0.20004954  1
  Na  Na18  1  0.49027731  0.87822469  0.31759160  1
  Na  Na19  1  0.51701601  0.35734052  0.23266448  1
  Na  Na20  1  0.84674534  0.04442604  0.25813949  1
  Na  Na21  1  0.86143150  0.52961914  0.17482727  1
  Na  Na22  1  0.07906887  0.02967852  0.17479655  1
  Na  Na23  1  0.06426074  0.54462549  0.25818389  1
  Na  Na24  1  0.68296064  0.89885624  0.39620904  1
  Na  Na25  1  0.12271497  0.26902693  0.37557728  1
  Na  Na26  1  0.33951109  0.76923510  0.37546504  1
  Na  Na27  1  0.52031580  0.39854535  0.39626432  1
  Na  Na28  1  0.87966157  0.04924455  0.41811882  1
  Na  Na29  1  0.82244872  0.56395131  0.34246897  1
  Na  Na30  1  0.05030342  0.06383117  0.34246214  1
  Na  Na31  1  0.02199215  0.54939031  0.41813233  1
  Zr  Zr32  1  0.83185518  0.91997439  0.14069490  1
  Zr  Zr33  1  0.86285473  0.39866740  0.05922641  1
  Zr  Zr34  1  0.12303822  0.11888211  0.12423441  1
  Zr  Zr35  1  0.21120119  0.56196863  0.03904187  1
  Zr  Zr36  1  0.66496066  0.06183417  0.03909472  1
  Zr  Zr37  1  0.63905994  0.61881738  0.12426454  1
  Zr  Zr38  1  0.33981910  0.89864856  0.05917366  1
  Zr  Zr39  1  0.32791040  0.42002429  0.14071009  1
  Zr  Zr40  1  0.80215880  0.95584850  0.30869931  1
  Zr  Zr41  1  0.81474548  0.43863262  0.22400804  1
  Zr  Zr42  1  0.09353450  0.15471966  0.29234937  1
  Zr  Zr43  1  0.11058978  0.63595567  0.20905946  1
  Zr  Zr44  1  0.61740161  0.13592624  0.20902990  1
  Zr  Zr45  1  0.59721450  0.65461378  0.29234577  1
  Zr  Zr46  1  0.30770914  0.93856223  0.22393667  1
  Zr  Zr47  1  0.28624988  0.45578325  0.30874915  1
  Zr  Zr48  1  0.71494897  0.51204872  0.39394151  1
  Zr  Zr49  1  0.06229658  0.67599495  0.37383266  1
  Zr  Zr50  1  0.58606632  0.17588172  0.37379090  1
  Zr  Zr51  1  0.26158137  0.01183817  0.39393717  1
  Si  Si52  1  0.01703777  0.37399907  0.11804065  1
  Si  Si53  1  0.01351826  0.86548504  0.03501789  1
  Si  Si54  1  0.95023628  0.66225942  0.14905775  1
  Si  Si55  1  0.97540111  0.14131486  0.06279269  1
  Si  Si56  1  0.74195669  0.64138089  0.06287267  1
  Si  Si57  1  0.72516492  0.16219961  0.14904263  1
  Si  Si58  1  0.25548044  0.36559431  0.03499608  1
  Si  Si59  1  0.23484916  0.87379766  0.11794426  1
  Si  Si60  1  0.97501772  0.41231122  0.28402680  1
  Si  Si61  1  0.99431630  0.89325391  0.20056792  1
  Si  Si62  1  0.90819698  0.70073927  0.31499960  1
  Si  Si63  1  0.93101828  0.18115516  0.23245061  1
  Si  Si64  1  0.70653683  0.68114344  0.23245953  1
  Si  Si65  1  0.69052352  0.20079764  0.31495239  1
  Si  Si66  1  0.21884951  0.39339061  0.20057836  1
  Si  Si67  1  0.20046471  0.91233452  0.28394701  1
  Si  Si68  1  0.94988374  0.93333849  0.37013141  1
  Si  Si69  1  0.91314826  0.20836863  0.39799324  1
  Si  Si70  1  0.67007980  0.70862992  0.39804829  1
  Si  Si71  1  0.18366223  0.43314474  0.37016692  1
  P  P72  1  0.53292894  0.00570299  0.09096449  1
  P  P73  1  0.45564068  0.50558847  0.09088628  1
  P  P74  1  0.49877626  0.04467625  0.25851990  1
  P  P75  1  0.51356386  0.53012596  0.17446330  1
  P  P76  1  0.42586954  0.03012093  0.17442877  1
  P  P77  1  0.41139256  0.54469044  0.25856753  1
  P  P78  1  0.46982280  0.56880472  0.34210859  1
  P  P79  1  0.39306046  0.06860751  0.34207745  1
  O  O80  1  0.87307030  0.92175952  0.05790025  1
  O  O81  1  0.84525995  0.46621812  0.13265228  1
  O  O82  1  0.16244068  0.05250338  0.04877775  1
  O  O83  1  0.11699289  0.57333373  0.13286081  1
  O  O84  1  0.73648056  0.07323230  0.13283812  1
  O  O85  1  0.73243504  0.55257376  0.04885982  1
  O  O86  1  0.22221370  0.96617371  0.13249145  1
  O  O87  1  0.28356665  0.42192389  0.05784888  1
  O  O88  1  0.58513312  0.96731983  0.15713999  1
  O  O89  1  0.61843904  0.43624511  0.07435106  1
  O  O90  1  0.36606561  0.07362853  0.10706585  1
  O  O91  1  0.41811209  0.53644964  0.02650325  1
  O  O92  1  0.50873136  0.03655177  0.02657947  1
  O  O93  1  0.48732701  0.57335699  0.10695570  1
  O  O94  1  0.50817403  0.93656154  0.07445504  1
  O  O95  1  0.47990295  0.46727400  0.15719556  1
  O  O96  1  0.69795420  0.93651602  0.10673767  1
  O  O97  1  0.25242661  0.10556105  0.16025943  1
  O  O98  1  0.28300737  0.58061882  0.07627433  1
  O  O99  1  0.55576222  0.08060390  0.07633438  1
  O  O100  1  0.53573457  0.60565687  0.16026553  1
  O  O101  1  0.42875087  0.43667008  0.10672479  1
  O  O102  1  0.88708727  0.96021012  0.01544581  1
  O  O103  1  0.97471244  0.39350199  0.08882670  1
  O  O104  1  0.00801372  0.12689317  0.09222693  1
  O  O105  1  0.73804063  0.62697414  0.09229643  1
  O  O106  1  0.23805011  0.89312373  0.08872064  1
  O  O107  1  0.19201202  0.46029729  0.01540124  1
  O  O108  1  0.07254601  0.36356024  0.03744382  1
  O  O109  1  0.06129930  0.87041974  0.12115041  1
  O  O110  1  0.92229335  0.63126772  0.05458963  1
  O  O111  1  0.90225603  0.16362210  0.14493909  1
  O  O112  1  0.77038294  0.66361604  0.14496815  1
  O  O113  1  0.81532448  0.13123364  0.05447008  1
  O  O114  1  0.19744794  0.37060851  0.12116303  1
  O  O115  1  0.20049154  0.86349115  0.03735511  1
  O  O116  1  0.90591740  0.77220142  0.14086360  1
  O  O117  1  0.92762997  0.25372274  0.05416482  1
  O  O118  1  0.04922764  0.26650553  0.12543143  1
  O  O119  1  0.07474930  0.74770614  0.03271374  1
  O  O120  1  0.42964580  0.24784652  0.03266771  1
  O  O121  1  0.41769851  0.76642312  0.12536208  1
  O  O122  1  0.56509584  0.75375712  0.05420156  1
  O  O123  1  0.54942614  0.27220610  0.14092152  1
  O  O124  1  0.82588255  0.98261038  0.21655996  1
  O  O125  1  0.80825934  0.50130714  0.30019102  1
  O  O126  1  0.09936712  0.09193030  0.21639807  1
  O  O127  1  0.07999869  0.60839075  0.30040975  1
  O  O128  1  0.70373343  0.10839113  0.30033910  1
  O  O129  1  0.71649030  0.59196356  0.21642679  1
  O  O130  1  0.18939175  0.00130912  0.30011255  1
  O  O131  1  0.20896638  0.48261195  0.21657767  1
  O  O132  1  0.55935906  0.00118704  0.32584314  1
  O  O133  1  0.56814416  0.48260149  0.24077385  1
  O  O134  1  0.33992624  0.10766417  0.27585783  1
  O  O135  1  0.35699952  0.59241948  0.19227083  1
  O  O136  1  0.45797701  0.09247870  0.19220500  1
  O  O137  1  0.44484063  0.60742559  0.27590422  1
  O  O138  1  0.46618681  0.98254439  0.24075475  1
  O  O139  1  0.43826267  0.50119055  0.32596576  1
  O  O140  1  0.67248266  0.96910954  0.27262755  1
  O  O141  1  0.68941783  0.45364042  0.18809220  1
  O  O142  1  0.22751053  0.13774530  0.32638475  1
  O  O143  1  0.23558629  0.62127145  0.24493080  1
  O  O144  1  0.52143156  0.12114244  0.24482873  1
  O  O145  1  0.49668996  0.63790572  0.32633076  1
  O  O146  1  0.40314779  0.95361181  0.18806980  1
  O  O147  1  0.38897187  0.46906436  0.27266914  1
  O  O148  1  0.94611838  0.91387585  0.17185080  1
  O  O149  1  0.92847935  0.43296439  0.25519708  1
  O  O150  1  0.97961846  0.16051836  0.26115856  1
  O  O151  1  0.99676896  0.64139381  0.17787413  1
  O  O152  1  0.72084654  0.14110665  0.17785911  1
  O  O153  1  0.69974283  0.66023074  0.26116419  1
  O  O154  1  0.20457889  0.93320613  0.25511107  1
  O  O155  1  0.22533513  0.41416006  0.17184864  1
  O  O156  1  0.04092496  0.39245187  0.20409727  1
  O  O157  1  0.02340004  0.91093164  0.28805596  1
  O  O158  1  0.88465301  0.68190897  0.22898790  1
  O  O159  1  0.86424034  0.20412042  0.31188430  1
  O  O160  1  0.72795958  0.70390696  0.31188844  1
  O  O161  1  0.75144519  0.18179487  0.22900022  1
  O  O162  1  0.15478169  0.41106935  0.28804192  1
  O  O163  1  0.17431767  0.89216870  0.20400957  1
  O  O164  1  0.87574580  0.80819793  0.30750371  1
  O  O165  1  0.88757004  0.29090141  0.22390702  1
  O  O166  1  0.01910915  0.30249489  0.29224139  1
  O  O167  1  0.03677308  0.78379630  0.20913600  1
  O  O168  1  0.39548976  0.28381579  0.20903821  1
  O  O169  1  0.37638169  0.80249472  0.29209690  1
  O  O170  1  0.53039803  0.79089193  0.22395524  1
  O  O171  1  0.50779626  0.30815235  0.30746917  1
  O  O172  1  0.76337124  0.02205735  0.38423323  1
  O  O173  1  0.05374688  0.15200348  0.37513475  1
  O  O174  1  0.64236544  0.65228085  0.37516375  1
  O  O175  1  0.19269729  0.52205569  0.38420747  1
  O  O176  1  0.50857288  0.53710217  0.40653600  1
  O  O177  1  0.30715180  0.63788322  0.35868603  1
  O  O178  1  0.41797743  0.13760884  0.35861559  1
  O  O179  1  0.41736950  0.03736129  0.40648851  1
  O  O180  1  0.64255908  0.49364271  0.35669553  1
  O  O181  1  0.37122622  0.99328397  0.35669239  1
  O  O182  1  0.91648510  0.94779644  0.34071957  1
  O  O183  1  0.03909739  0.11360959  0.41756941  1
  O  O184  1  0.95031765  0.68141952  0.34422523  1
  O  O185  1  0.68687242  0.18150206  0.34417251  1
  O  O186  1  0.73372728  0.61384081  0.41761201  1
  O  O187  1  0.18759126  0.44762797  0.34074179  1
  O  O188  1  0.00367724  0.44283789  0.37842852  1
  O  O189  1  0.85269761  0.71102209  0.39566817  1
  O  O190  1  0.72574169  0.21077010  0.39561874  1
  O  O191  1  0.11068538  0.94296187  0.37830808  1
  O  O192  1  0.85206697  0.32612163  0.40028375  1
  O  O193  1  0.99735518  0.82095926  0.37875379  1
  O  O194  1  0.36100518  0.32076378  0.37875616  1
  O  O195  1  0.49551694  0.82640800  0.40033121  1
