# generated using pymatgen
data_Na31Zr22Si18P9O118
_symmetry_space_group_name_H-M   'P 1'
_cell_length_a   9.15937100
_cell_length_b   16.28925272
_cell_length_c   46.86931700
_cell_angle_alpha   90.00000000
_cell_angle_beta   90.00000000
_cell_angle_gamma   73.67128847
_symmetry_Int_Tables_number   1
_chemical_formula_structural   Na31Zr22Si18P9O118
_chemical_formula_sum   'Na31 Zr22 Si18 P9 O118'
_cell_volume   6710.80899833
_cell_formula_units_Z   1
loop_
 _symmetry_equiv_pos_site_id
 _symmetry_equiv_pos_as_xyz
  1  'x, y, z'
loop_
 _atom_site_type_symbol
 _atom_site_label
 _atom_site_symmetry_multiplicity
 _atom_site_fract_x
 _atom_site_fract_y
 _atom_site_fract_z
 _atom_site_occupancy
  Na  Na0  1  0.10449309  0.77702350  0.13643151  1
  Na  Na1  1  0.30188795  0.40660008  0.00890278  1
  Na  Na2  1  0.83865585  0.85396147  0.04031830  1
  Na  Na3  1  0.53107695  0.32161329  0.10952645  1
  Na  Na4  1  0.68096441  0.62323051  0.15756084  1
  Na  Na5  1  0.15540355  0.06961174  0.03562818  1
  Na  Na6  1  0.96494721  0.52514882  0.10283516  1
  Na  Na7  1  0.29540547  0.93213108  0.10207467  1
  Na  Na8  1  0.49000405  0.58443039  0.01031094  1
  Na  Na9  1  0.63439172  0.66722589  0.06032171  1
  Na  Na10  1  0.37301619  0.19464195  0.14790201  1
  Na  Na11  1  0.57475916  0.83703675  0.30097844  1
  Na  Na12  1  0.83336933  0.30499915  0.21930535  1
  Na  Na13  1  0.30119310  0.88266731  0.19722317  1
  Na  Na14  1  0.03017937  0.41269935  0.27677958  1
  Na  Na15  1  0.14892845  0.68342642  0.32225255  1
  Na  Na16  1  0.40779834  0.15515146  0.23921550  1
  Na  Na17  1  0.71324874  0.04654067  0.18157841  1
  Na  Na18  1  0.45151813  0.57797652  0.26156762  1
  Na  Na19  1  0.75400866  0.00654548  0.26826258  1
  Na  Na20  1  0.03093668  0.45304983  0.19001623  1
  Na  Na21  1  0.11409267  0.73010150  0.22904820  1
  Na  Na22  1  0.83847879  0.26434812  0.31054615  1
  Na  Na23  1  0.49056286  0.38884658  0.42259334  1
  Na  Na24  1  0.76168664  0.93447541  0.35554350  1
  Na  Na25  1  0.97896935  0.05204188  0.44932380  1
  Na  Na26  1  0.12384529  0.13719543  0.34882699  1
  Na  Na27  1  0.96337408  0.60504475  0.41783518  1
  Na  Na28  1  0.34449327  0.87377449  0.44809061  1
  Na  Na29  1  0.49776541  0.52657390  0.35634913  1
  Na  Na30  1  0.57199109  0.79135862  0.39807229  1
  Zr  Zr31  1  0.10191142  0.04290444  0.15221345  1
  Zr  Zr32  1  0.36951817  0.50986430  0.07518504  1
  Zr  Zr33  1  0.89168705  0.49255177  0.02614171  1
  Zr  Zr34  1  0.56961119  0.06596522  0.10130061  1
  Zr  Zr35  1  0.25216223  0.79230906  0.05548906  1
  Zr  Zr36  1  0.95147360  0.34225364  0.13871276  1
  Zr  Zr37  1  0.72792355  0.77868691  0.11056904  1
  Zr  Zr38  1  0.02397985  0.27979673  0.03517855  1
  Zr  Zr39  1  0.56408724  0.11708950  0.31958481  1
  Zr  Zr40  1  0.83273584  0.58080855  0.23635654  1
  Zr  Zr41  1  0.31023796  0.61124672  0.17915463  1
  Zr  Zr42  1  0.03893957  0.14671799  0.26315568  1
  Zr  Zr43  1  0.68435054  0.87828334  0.22202614  1
  Zr  Zr44  1  0.41486679  0.41642978  0.30612543  1
  Zr  Zr45  1  0.19177157  0.84793358  0.27917492  1
  Zr  Zr46  1  0.45616926  0.31263496  0.19518195  1
  Zr  Zr47  1  0.31495532  0.66632906  0.40283182  1
  Zr  Zr48  1  0.77676057  0.68024789  0.34772878  1
  Zr  Zr49  1  0.57393969  0.17862339  0.42302876  1
  Zr  Zr50  1  0.15003142  0.94866738  0.38312418  1
  Zr  Zr51  1  0.65477144  0.96599119  0.43212461  1
  Zr  Zr52  1  0.90560301  0.39319031  0.35701413  1
  Si  Si53  1  0.42379212  0.68618470  0.11194078  1
  Si  Si54  1  0.51451253  0.90671483  0.05427813  1
  Si  Si55  1  0.25580374  0.43206455  0.13915865  1
  Si  Si56  1  0.19181565  0.17363768  0.09922780  1
  Si  Si57  1  0.50122912  0.94921006  0.15438949  1
  Si  Si58  1  0.75353699  0.42518400  0.07400181  1
  Si  Si59  1  0.88223770  0.75612718  0.27828357  1
  Si  Si60  1  0.14363160  0.21906140  0.19457217  1
  Si  Si61  1  0.99703394  0.96935366  0.22192847  1
  Si  Si62  1  0.72062225  0.50970863  0.30388050  1
  Si  Si63  1  0.90888689  0.70317526  0.18008214  1
  Si  Si64  1  0.63320002  0.24044373  0.26377738  1
  Si  Si65  1  0.95836438  0.02708177  0.31917384  1
  Si  Si66  1  0.23668708  0.49004703  0.23636322  1
  Si  Si67  1  0.63555691  0.28565592  0.35913393  1
  Si  Si68  1  0.44983772  0.03315778  0.38420525  1
  Si  Si69  1  0.38023495  0.77253970  0.34638471  1
  Si  Si70  1  0.69134324  0.55249893  0.40402990  1
  P  P71  1  0.94414355  0.92804221  0.09780682  1
  P  P72  1  0.01028070  0.65394392  0.05954866  1
  P  P73  1  0.73425541  0.18999899  0.14493807  1
  P  P74  1  0.41059178  0.99760863  0.27145335  1
  P  P75  1  0.67877721  0.46167133  0.18676505  1
  P  P76  1  0.46251408  0.72955682  0.22919762  1
  P  P77  1  0.19437358  0.26918983  0.31339890  1
  P  P78  1  0.14272293  0.53054566  0.36062468  1
  P  P79  1  0.93480607  0.80466877  0.39873304  1
  O  O80  1  0.30338286  0.77230021  0.09757123  1
  O  O81  1  0.61560368  0.82310179  0.07349408  1
  O  O82  1  0.37581094  0.34715798  0.15339746  1
  O  O83  1  0.16148706  0.08723469  0.11304451  1
  O  O84  1  0.53196143  0.03859239  0.14160452  1
  O  O85  1  0.77371024  0.51985084  0.06496373  1
  O  O86  1  0.13522671  0.58916257  0.07679695  1
  O  O87  1  0.86557425  0.10881664  0.15149270  1
  O  O88  1  0.79899227  0.00442234  0.09370480  1
  O  O89  1  0.06275156  0.73183870  0.04885237  1
  O  O90  1  0.79063826  0.26895914  0.13929354  1
  O  O91  1  0.89547208  0.84723096  0.10694048  1
  O  O92  1  0.08014299  0.38474828  0.01931287  1
  O  O93  1  0.04475710  0.94573811  0.12258835  1
  O  O94  1  0.37387904  0.49716592  0.03509130  1
  O  O95  1  0.95983399  0.60683797  0.03398650  1
  O  O96  1  0.64620947  0.17492048  0.11791046  1
  O  O97  1  0.03210930  0.90869348  0.06930590  1
  O  O98  1  0.77820942  0.44924354  0.15954932  1
  O  O99  1  0.87351430  0.68479359  0.08047456  1
  O  O100  1  0.43977049  0.60733050  0.08987545  1
  O  O101  1  0.48711432  0.98896402  0.07811681  1
  O  O102  1  0.26344444  0.51719891  0.15744734  1
  O  O103  1  0.40050499  0.71179957  0.03586305  1
  O  O104  1  0.12449470  0.25192290  0.12188217  1
  O  O105  1  0.58782853  0.87199000  0.13336123  1
  O  O106  1  0.81903779  0.37021370  0.04438496  1
  O  O107  1  0.31921868  0.95608999  0.15409276  1
  O  O108  1  0.58446999  0.42164051  0.08183870  1
  O  O109  1  0.74315576  0.52557705  0.99921456  1
  O  O110  1  0.37670816  0.16334494  0.09723618  1
  O  O111  1  0.33647247  0.89729852  0.05118695  1
  O  O112  1  0.07774951  0.43014286  0.14159081  1
  O  O113  1  0.59617820  0.69542096  0.11533523  1
  O  O114  1  0.02900915  0.19505795  0.00938888  1
  O  O115  1  0.60322350  0.92180491  0.02687283  1
  O  O116  1  0.29670962  0.43537908  0.10527277  1
  O  O117  1  0.35510041  0.67342373  0.14317796  1
  O  O118  1  0.87228600  0.39158221  0.10019930  1
  O  O119  1  0.84601869  0.71586865  0.14725581  1
  O  O120  1  0.12147991  0.19584439  0.06717426  1
  O  O121  1  0.76017426  0.84041569  0.26397573  1
  O  O122  1  0.01936724  0.30383986  0.18153666  1
  O  O123  1  0.11641569  0.88548290  0.23672183  1
  O  O124  1  0.84032928  0.42026067  0.31669960  1
  O  O125  1  0.87099681  0.61906027  0.19447469  1
  O  O126  1  0.59386821  0.15560438  0.27680096  1
  O  O127  1  0.99395330  0.11192687  0.30497838  1
  O  O128  1  0.27165278  0.57414388  0.22163148  1
  O  O129  1  0.59755734  0.64901482  0.23393570  1
  O  O130  1  0.32981157  0.19019577  0.31898380  1
  O  O131  1  0.27327626  0.07660848  0.26582086  1
  O  O132  1  0.54568501  0.54360476  0.18256490  1
  O  O133  1  0.51795900  0.80980871  0.22452371  1
  O  O134  1  0.24447976  0.35044394  0.30693384  1
  O  O135  1  0.35952882  0.91570561  0.27578966  1
  O  O136  1  0.62054079  0.38263949  0.19241215  1
  O  O137  1  0.49791465  0.01029320  0.29860694  1
  O  O138  1  0.77736881  0.47168362  0.21283943  1
  O  O139  1  0.36960904  0.71931294  0.20242594  1
  O  O140  1  0.09851604  0.25475225  0.28738092  1
  O  O141  1  0.51889334  0.98742593  0.24533872  1
  O  O142  1  0.26074386  0.51316610  0.33581855  1
  O  O143  1  0.35909785  0.74014995  0.25593856  1
  O  O144  1  0.62374479  0.20456824  0.17092715  1
  O  O145  1  0.88798765  0.67323196  0.25770610  1
  O  O146  1  0.15637445  0.13545828  0.17405882  1
  O  O147  1  0.98223431  0.05285117  0.24280866  1
  O  O148  1  0.73110399  0.58693038  0.32483497  1
  O  O149  1  0.83292082  0.78599678  0.20078706  1
  O  O150  1  0.56172721  0.32397599  0.28428161  1
  O  O151  1  0.05074128  0.94200370  0.30083886  1
  O  O152  1  0.30567656  0.40676191  0.21542830  1
  O  O153  1  0.77824886  0.02936770  0.31670390  1
  O  O154  1  0.05246912  0.49916083  0.23780419  1
  O  O155  1  0.09252527  0.69384554  0.17955927  1
  O  O156  1  0.81800014  0.22927307  0.26213505  1
  O  O157  1  0.82207032  0.96007564  0.22054100  1
  O  O158  1  0.54515573  0.50338940  0.30429661  1
  O  O159  1  0.05664339  0.76535208  0.27860428  1
  O  O160  1  0.31721566  0.23038205  0.19632047  1
  O  O161  1  0.05452226  0.98204253  0.18951180  1
  O  O162  1  0.77814112  0.51882906  0.27160197  1
  O  O163  1  0.83316573  0.74367940  0.31123331  1
  O  O164  1  0.08877565  0.20505494  0.22701948  1
  O  O165  1  0.56815427  0.93977217  0.18666682  1
  O  O166  1  0.30688480  0.47716493  0.26879461  1
  O  O167  1  0.29749524  0.78598857  0.31527432  1
  O  O168  1  0.56449919  0.25438354  0.23132500  1
  O  O169  1  0.51895753  0.37206208  0.34532941  1
  O  O170  1  0.56523858  0.93860996  0.39315839  1
  O  O171  1  0.34623218  0.68631939  0.36072248  1
  O  O172  1  0.70779307  0.63620915  0.38474822  1
  O  O173  1  0.06533619  0.72684629  0.40943540  1
  O  O174  1  0.73531374  0.07395910  0.43898908  1
  O  O175  1  0.01294965  0.61143013  0.35165872  1
  O  O176  1  0.99502705  0.86927431  0.38138152  1
  O  O177  1  0.07427984  0.45400541  0.36467095  1
  O  O178  1  0.21177545  0.54957269  0.38914078  1
  O  O179  1  0.82870089  0.77365965  0.37792533  1
  O  O180  1  0.14182182  0.96135358  0.42320501  1
  O  O181  1  0.83773627  0.85210518  0.42429468  1
  O  O182  1  0.09125557  0.28402075  0.34042090  1
  O  O183  1  0.38279582  0.74661203  0.42255613  1
  O  O184  1  0.64656900  0.20738904  0.33645811  1
  O  O185  1  0.45995163  0.08783574  0.41391928  1
  O  O186  1  0.31811042  0.85106055  0.36862755  1
  O  O187  1  0.74632162  0.47038535  0.38014447  1
  O  O188  1  0.50415451  0.56145172  0.40721819  1
  O  O189  1  0.56170635  0.76333567  0.34277367  1
  O  O190  1  0.49254742  0.26295242  0.44884805  1
  O  O191  1  0.27736634  0.03649112  0.37630628  1
  O  O192  1  0.53930160  0.93243213  0.45894551  1
  O  O193  1  0.81019295  0.29582976  0.36121679  1
  O  O194  1  0.53444544  0.06753452  0.35810322  1
  O  O195  1  0.58707756  0.26311134  0.39114328  1
  O  O196  1  0.00251297  0.02337896  0.35307028  1
  O  O197  1  0.79576755  0.53766704  0.43134537  1
