# generated using pymatgen
data_Na24Zr14Si12P6O79
_symmetry_space_group_name_H-M   'P 1'
_cell_length_a   9.15937100
_cell_length_b   24.11698144
_cell_length_c   43.78738300
_cell_angle_alpha   90.00000000
_cell_angle_beta   90.00000000
_cell_angle_gamma   67.67936926
_symmetry_Int_Tables_number   1
_chemical_formula_structural   Na24Zr14Si12P6O79
_chemical_formula_sum   'Na48 Zr28 Si24 P12 O158'
_cell_volume   8947.74517401
_cell_formula_units_Z   2
loop_
 _symmetry_equiv_pos_site_id
 _symmetry_equiv_pos_as_xyz
  1  'x, y, z'
loop_
 _atom_site_type_symbol
 _atom_site_label
 _atom_site_symmetry_multiplicity
 _atom_site_fract_x
 _atom_site_fract_y
 _atom_site_fract_z
 _atom_site_occupancy
  Na  Na0  1  0.06113882  0.88463576  0.04156633  1
  Na  Na1  1  0.31028710  0.09791343  0.00193597  1
  Na  Na2  1  0.76121052  0.39718375  0.02425184  1
  Na  Na3  1  0.53288932  0.02230554  0.07024544  1
  Na  Na4  1  0.44698977  0.46150905  0.06004114  1
  Na  Na5  1  0.38688993  0.92057127  0.02268992  1
  Na  Na6  1  0.55851520  0.71895350  0.01601207  1
  Na  Na7  1  0.22338974  0.36564385  0.05797577  1
  Na  Na8  1  0.91343701  0.60588101  0.00600882  1
  Na  Na9  1  0.92903572  0.20008819  0.02875043  1
  Na  Na10  1  0.71665491  0.67514713  0.07640614  1
  Na  Na11  1  0.91188522  0.05195115  0.00944758  1
  Na  Na12  1  0.72276428  0.17683914  0.18842143  1
  Na  Na13  1  0.92267479  0.48702368  0.11961025  1
  Na  Na14  1  0.48578765  0.65770101  0.13284417  1
  Na  Na15  1  0.28202334  0.34376933  0.19636283  1
  Na  Na16  1  0.03435132  0.86947765  0.20191380  1
  Na  Na17  1  0.08638267  0.13624380  0.11656581  1
  Na  Na18  1  0.09198033  0.98485037  0.11432939  1
  Na  Na19  1  0.92000207  0.66604233  0.18687273  1
  Na  Na20  1  0.73942950  0.85114240  0.13703875  1
  Na  Na21  1  0.60221160  0.51673983  0.18860930  1
  Na  Na22  1  0.37119300  0.01497069  0.18118011  1
  Na  Na23  1  0.56876372  0.35069184  0.13995714  1
  Na  Na24  1  0.15367851  0.56917122  0.33252069  1
  Na  Na25  1  0.57191152  0.83429709  0.24656932  1
  Na  Na26  1  0.06173706  0.03247074  0.26113553  1
  Na  Na27  1  0.85810838  0.72011391  0.33419461  1
  Na  Na28  1  0.69160619  0.21809467  0.32931594  1
  Na  Na29  1  0.87056723  0.51317587  0.25707777  1
  Na  Na30  1  0.75724328  0.33146677  0.24510170  1
  Na  Na31  1  0.59701458  0.04837958  0.31638787  1
  Na  Na32  1  0.42847986  0.18825918  0.26262856  1
  Na  Na33  1  0.23662299  0.85383201  0.31179959  1
  Na  Na34  1  0.05655604  0.35484568  0.30722078  1
  Na  Na35  1  0.19649299  0.69004402  0.26604229  1
  Na  Na36  1  0.03036452  0.78541168  0.42600479  1
  Na  Na37  1  0.16419013  0.24507193  0.38905323  1
  Na  Na38  1  0.74689591  0.34151866  0.39207970  1
  Na  Na39  1  0.79088848  0.98660938  0.43281698  1
  Na  Na40  1  0.30180826  0.60788617  0.44700291  1
  Na  Na41  1  0.63279467  0.81906974  0.40716575  1
  Na  Na42  1  0.37347079  0.68290968  0.37841607  1
  Na  Na43  1  0.34934653  0.30865268  0.42541906  1
  Na  Na44  1  0.12518468  0.50546520  0.42050937  1
  Na  Na45  1  0.92053583  0.09884319  0.44314389  1
  Na  Na46  1  0.81159112  0.65359801  0.43957535  1
  Na  Na47  1  0.86088125  0.03065925  0.37257627  1
  Zr  Zr48  1  0.08979121  0.66715651  0.05065041  1
  Zr  Zr49  1  0.94753738  0.31068131  0.07725982  1
  Zr  Zr50  1  0.68877023  0.54940104  0.05437184  1
  Zr  Zr51  1  0.52775136  0.22392229  0.12198420  1
  Zr  Zr52  1  0.02525285  0.71710100  0.11903202  1
  Zr  Zr53  1  0.18161704  0.03936044  0.04901616  1
  Zr  Zr54  1  0.44088218  0.81042825  0.07463400  1
  Zr  Zr55  1  0.56849245  0.18328505  0.05243874  1
  Zr  Zr56  1  0.75381081  0.98305936  0.13894208  1
  Zr  Zr57  1  0.58911698  0.65015073  0.20723807  1
  Zr  Zr58  1  0.36562200  0.88063510  0.17984357  1
  Zr  Zr59  1  0.19828822  0.55671746  0.24393175  1
  Zr  Zr60  1  0.68464735  0.05558509  0.24183686  1
  Zr  Zr61  1  0.86676663  0.38410618  0.18220173  1
  Zr  Zr62  1  0.10929099  0.14758988  0.20526895  1
  Zr  Zr63  1  0.28334263  0.48059450  0.13979314  1
  Zr  Zr64  1  0.42671656  0.32276565  0.26757562  1
  Zr  Zr65  1  0.25571660  0.98751208  0.33029194  1
  Zr  Zr66  1  0.04066081  0.22348648  0.30933135  1
  Zr  Zr67  1  0.85789809  0.89489561  0.37400505  1
  Zr  Zr68  1  0.36434755  0.39431127  0.37226011  1
  Zr  Zr69  1  0.51626510  0.72148659  0.30965842  1
  Zr  Zr70  1  0.76964557  0.48201761  0.32717707  1
  Zr  Zr71  1  0.92112497  0.82489240  0.26895397  1
  Zr  Zr72  1  0.05588363  0.66634633  0.39992073  1
  Zr  Zr73  1  0.73056301  0.52250687  0.39674942  1
  Zr  Zr74  1  0.21906736  0.03822111  0.39855222  1
  Zr  Zr75  1  0.58226353  0.15627388  0.39461550  1
  Si  Si76  1  0.67504079  0.44269514  0.11407528  1
  Si  Si77  1  0.82947614  0.77801381  0.04275431  1
  Si  Si78  1  0.80803943  0.08481771  0.08378033  1
  Si  Si79  1  0.05001685  0.56754931  0.07862911  1
  Si  Si80  1  0.59666791  0.29857621  0.04851906  1
  Si  Si81  1  0.43848602  0.94088259  0.11123677  1
  Si  Si82  1  0.32129394  0.78243461  0.24075380  1
  Si  Si83  1  0.49142066  0.11577324  0.17560584  1
  Si  Si84  1  0.46761885  0.42256397  0.20896684  1
  Si  Si85  1  0.63026690  0.74730260  0.14580033  1
  Si  Si86  1  0.87104989  0.24867113  0.14707848  1
  Si  Si87  1  0.68021265  0.92309530  0.20809043  1
  Si  Si88  1  0.27539156  0.61335102  0.17565350  1
  Si  Si89  1  0.11074175  0.28140387  0.23980020  1
  Si  Si90  1  0.98027349  0.13772986  0.37056338  1
  Si  Si91  1  0.16211684  0.45698572  0.30264408  1
  Si  Si92  1  0.11592114  0.76457142  0.33737700  1
  Si  Si93  1  0.29822203  0.09084679  0.27345129  1
  Si  Si94  1  0.51964507  0.58854879  0.27276890  1
  Si  Si95  1  0.35485243  0.26271501  0.33504089  1
  Si  Si96  1  0.91996053  0.95861433  0.30313040  1
  Si  Si97  1  0.77292489  0.62087200  0.36519770  1
  Si  Si98  1  0.98831350  0.40736031  0.40088855  1
  Si  Si99  1  0.17890950  0.92762655  0.40651385  1
  P  P100  1  0.27396837  0.17497305  0.06436336  1
  P  P101  1  0.38201335  0.67114495  0.06654417  1
  P  P102  1  0.10681133  0.84880478  0.12674616  1
  P  P103  1  0.94323516  0.52024935  0.19095620  1
  P  P104  1  0.01844000  0.01562726  0.18994507  1
  P  P105  1  0.19389947  0.35062193  0.13014621  1
  P  P106  1  0.77958475  0.18579784  0.25818850  1
  P  P107  1  0.60017255  0.85593445  0.32218150  1
  P  P108  1  0.68972522  0.35475475  0.31858474  1
  P  P109  1  0.84475078  0.68982666  0.25877814  1
  P  P110  1  0.41941046  0.53042295  0.38479127  1
  P  P111  1  0.51939825  0.03406177  0.38246715  1
  O  O112  1  0.94411734  0.74778353  0.07435234  1
  O  O113  1  0.06847684  0.10495777  0.01887544  1
  O  O114  1  0.55425038  0.73887729  0.11367956  1
  O  O115  1  0.73319516  0.09802051  0.04789440  1
  O  O116  1  0.10469980  0.58129387  0.04369108  1
  O  O117  1  0.95450870  0.24323983  0.11439542  1
  O  O118  1  0.69614829  0.61676135  0.02886521  1
  O  O119  1  0.54508483  0.26551573  0.07886967  1
  O  O120  1  0.31850641  0.65214654  0.03674185  1
  O  O121  1  0.13607959  0.32415199  0.10346695  1
  O  O122  1  0.63259844  0.49566644  0.03021396  1
  O  O123  1  0.37637817  0.19881960  0.08614736  1
  O  O124  1  0.23639151  0.68685438  0.08867811  1
  O  O125  1  0.39075175  0.01355042  0.02876581  1
  O  O126  1  0.21614397  0.83556104  0.09902119  1
  O  O127  1  0.38225441  0.16355430  0.03431928  1
  O  O128  1  0.96449271  0.90864845  0.12161380  1
  O  O129  1  0.11430883  0.22371664  0.05739426  1
  O  O130  1  0.51616570  0.61921055  0.08194894  1
  O  O131  1  0.26940056  0.11676224  0.07647436  1
  O  O132  1  0.42480905  0.72441839  0.05993597  1
  O  O133  1  0.20578121  0.41050267  0.12027218  1
  O  O134  1  0.92600172  0.71270636  0.02102203  1
  O  O135  1  0.76979672  0.37686733  0.09906583  1
  O  O136  1  0.68936768  0.15305820  0.09637206  1
  O  O137  1  0.99983225  0.63867491  0.09171384  1
  O  O138  1  0.10140770  0.97914066  0.03549715  1
  O  O139  1  0.49806051  0.87418217  0.09570897  1
  O  O140  1  0.61285778  0.24009295  0.02447245  1
  O  O141  1  0.77809840  0.29468848  0.04989755  1
  O  O142  1  0.60285650  0.95321744  0.11708917  1
  O  O143  1  0.90340953  0.54642879  0.07661640  1
  O  O144  1  0.98965346  0.07613870  0.08729107  1
  O  O145  1  0.49178562  0.44614123  0.11713198  1
  O  O146  1  0.66065675  0.77216785  0.05050641  1
  O  O147  1  0.76621567  0.03166039  0.09997307  1
  O  O148  1  0.99735628  0.35539772  0.04620385  1
  O  O149  1  0.68609992  0.49785913  0.09477834  1
  O  O150  1  0.84934004  0.83652270  0.03130508  1
  O  O151  1  0.46697203  0.36405084  0.04233440  1
  O  O152  1  0.31337003  0.99313235  0.09116552  1
  O  O153  1  0.33753233  0.84124315  0.03782481  1
  O  O154  1  0.19353446  0.52143739  0.09822429  1
  O  O155  1  0.57597955  0.11934928  0.20820741  1
  O  O156  1  0.75003174  0.44448497  0.14814949  1
  O  O157  1  0.21103065  0.08718957  0.24163346  1
  O  O158  1  0.38995053  0.41904368  0.17533929  1
  O  O159  1  0.76967842  0.92065641  0.17513591  1
  O  O160  1  0.61082515  0.58423675  0.23991627  1
  O  O161  1  0.35549471  0.93956481  0.14484569  1
  O  O162  1  0.17996053  0.61712679  0.20730526  1
  O  O163  1  0.93058803  0.01010440  0.16060681  1
  O  O164  1  0.76204757  0.67418148  0.23089424  1
  O  O165  1  0.19255459  0.85139117  0.15693258  1
  O  O166  1  0.02267139  0.53533185  0.21922549  1
  O  O167  1  0.90545749  0.03234839  0.21797529  1
  O  O168  1  0.08951714  0.36085162  0.15897754  1
  O  O169  1  0.88996214  0.16897916  0.22998167  1
  O  O170  1  0.05018362  0.50861226  0.16221098  1
  O  O171  1  0.64180434  0.24613355  0.25061906  1
  O  O172  1  0.78672101  0.57404860  0.18436198  1
  O  O173  1  0.15345902  0.95440030  0.19723822  1
  O  O174  1  0.36320465  0.30559557  0.13966824  1
  O  O175  1  0.03882937  0.79788409  0.13051720  1
  O  O176  1  0.90573741  0.46440008  0.19957611  1
  O  O177  1  0.08643413  0.06473030  0.18525809  1
  O  O178  1  0.85819204  0.75101070  0.25162940  1
  O  O179  1  0.58195904  0.05069152  0.15915965  1
  O  O180  1  0.40604280  0.71504732  0.22613817  1
  O  O181  1  0.55082399  0.81434338  0.16075757  1
  O  O182  1  0.37410907  0.48785976  0.22475264  1
  O  O183  1  0.63493620  0.98997204  0.22299963  1
  O  O184  1  0.82805344  0.31380299  0.16416831  1
  O  O185  1  0.14976563  0.21592412  0.22388983  1
  O  O186  1  0.32476728  0.54753032  0.15936376  1
  O  O187  1  0.44248864  0.62283253  0.17988764  1
  O  O188  1  0.27967576  0.29063207  0.24296918  1
  O  O189  1  0.69181696  0.24390365  0.14339299  1
  O  O190  1  0.51507064  0.91140176  0.20385783  1
  O  O191  1  0.65551221  0.41279832  0.20611748  1
  O  O192  1  0.82071342  0.73733690  0.14034750  1
  O  O193  1  0.13199409  0.79541617  0.24486087  1
  O  O194  1  0.31005802  0.12096153  0.17996287  1
  O  O195  1  0.45878399  0.36642186  0.22901744  1
  O  O196  1  0.63075838  0.69579991  0.17016053  1
  O  O197  1  0.34136396  0.83302355  0.21788274  1
  O  O198  1  0.50464233  0.17037151  0.15454452  1
  O  O199  1  0.15776269  0.66496548  0.15211032  1
  O  O200  1  0.98899653  0.33593067  0.21920151  1
  O  O201  1  0.96613998  0.19139184  0.16928427  1
  O  O202  1  0.80034045  0.87170826  0.23069068  1
  O  O203  1  0.23512156  0.46180921  0.33533670  1
  O  O204  1  0.40671923  0.78460683  0.27360201  1
  O  O205  1  0.87136561  0.44087430  0.37059828  1
  O  O206  1  0.03000430  0.76604104  0.30378707  1
  O  O207  1  0.43533580  0.26129981  0.30105543  1
  O  O208  1  0.23702667  0.95722789  0.37511387  1
  O  O209  1  0.02350650  0.28358288  0.27292265  1
  O  O210  1  0.82566425  0.96718097  0.33509146  1
  O  O211  1  0.60215056  0.34825351  0.28947018  1
  O  O212  1  0.40448323  0.01894012  0.36026081  1
  O  O213  1  0.86936907  0.19213512  0.28727720  1
  O  O214  1  0.68398196  0.86923585  0.34978081  1
  O  O215  1  0.58060166  0.37788535  0.34591673  1
  O  O216  1  0.74671967  0.69559549  0.28825965  1
  O  O217  1  0.56940795  0.50651989  0.36299410  1
  O  O218  1  0.68979716  0.85374502  0.29188354  1
  O  O219  1  0.29831423  0.58853142  0.37257104  1
  O  O220  1  0.43014215  0.90694303  0.31871428  1
  O  O221  1  0.82056655  0.29332867  0.32677470  1
  O  O222  1  0.01069896  0.64056137  0.26315131  1
  O  O223  1  0.71462616  0.13594240  0.26364622  1
  O  O224  1  0.57777710  0.79614308  0.32737023  1
  O  O225  1  0.77043163  0.39995200  0.31135458  1
  O  O226  1  0.55070343  0.08587485  0.36720179  1
  O  O227  1  0.24853166  0.39163185  0.28547560  1
  O  O228  1  0.07198650  0.06650745  0.35751281  1
  O  O229  1  0.21833724  0.15657234  0.28987036  1
  O  O230  1  0.04341958  0.83161046  0.35270039  1
  O  O231  1  0.31973397  0.32751884  0.35087541  1
  O  O232  1  0.48197137  0.65369005  0.28910983  1
  O  O233  1  0.78966975  0.55283135  0.35264343  1
  O  O234  1  0.97100697  0.89211562  0.28773860  1
  O  O235  1  0.09245773  0.96672626  0.30898092  1
  O  O236  1  0.93719015  0.62952336  0.36169677  1
  O  O237  1  0.34770479  0.58407407  0.26834088  1
  O  O238  1  0.17821193  0.25987644  0.33118020  1
  O  O239  1  0.30524803  0.75151942  0.33141663  1
  O  O240  1  0.48441739  0.08117338  0.26916804  1
  O  O241  1  0.79112778  0.15937095  0.37235925  1
  O  O242  1  0.97410803  0.46150014  0.30569638  1
  O  O243  1  0.09424052  0.71281164  0.35768074  1
  O  O244  1  0.28316648  0.03900456  0.29668714  1
  O  O245  1  0.03318736  0.18366505  0.35112725  1
  O  O246  1  0.14707904  0.51340766  0.28030312  1
  O  O247  1  0.82135011  0.01140130  0.27891333  1
  O  O248  1  0.62460044  0.67379613  0.34889416  1
  O  O249  1  0.64033693  0.53386224  0.29396591  1
  O  O250  1  0.47526474  0.20643517  0.35385913  1
  O  O251  1  0.06197092  0.12397951  0.40552773  1
  O  O252  1  0.72405241  0.08898471  0.42015481  1
  O  O253  1  0.07402138  0.60082422  0.43011179  1
  O  O254  1  0.72482322  0.60782179  0.40113199  1
  O  O255  1  0.21428747  0.69196190  0.41997902  1
  O  O256  1  0.50471349  0.54211935  0.41478204  1
  O  O257  1  0.41805894  0.05310398  0.41230412  1
  O  O258  1  0.41883380  0.21020619  0.41872014  1
  O  O259  1  0.66792712  0.98040577  0.38901598  1
  O  O260  1  0.35781709  0.48156571  0.39184155  1
  O  O261  1  0.85544911  0.72636341  0.41353086  1
  O  O262  1  0.88758124  0.46584157  0.42497118  1
  O  O263  1  0.14475737  0.99304524  0.42815238  1
  O  O264  1  0.99842726  0.93434385  0.39805717  1
  O  O265  1  0.16259327  0.41071087  0.39963262  1
  O  O266  1  0.98869297  0.34193441  0.40698412  1
  O  O267  1  0.81898195  0.86350326  0.41084176  1
  O  O268  1  0.50200676  0.35063691  0.40377834  1
  O  O269  1  0.31226171  0.86867489  0.41842279  1
