# generated using pymatgen
data_Na17Zr12Si10(PO13)5
_symmetry_space_group_name_H-M   'P 1'
_cell_length_a   9.27295600
_cell_length_b   15.80284349
_cell_length_c   45.79685300
_cell_angle_alpha   90.00000000
_cell_angle_beta   90.00000000
_cell_angle_gamma   56.43985526
_symmetry_Int_Tables_number   1
_chemical_formula_structural   Na17Zr12Si10(PO13)5
_chemical_formula_sum   'Na34 Zr24 Si20 P10 O130'
_cell_volume   5592.34006858
_cell_formula_units_Z   2
loop_
 _symmetry_equiv_pos_site_id
 _symmetry_equiv_pos_as_xyz
  1  'x, y, z'
loop_
 _atom_site_type_symbol
 _atom_site_label
 _atom_site_symmetry_multiplicity
 _atom_site_fract_x
 _atom_site_fract_y
 _atom_site_fract_z
 _atom_site_occupancy
  Na  Na0  1  0.80282454  0.37785473  0.98504886  1
  Na  Na1  1  0.56184614  0.62947915  0.02988952  1
  Na  Na2  1  0.26919257  0.04542256  0.01007942  1
  Na  Na3  1  0.90057077  0.07056266  0.04948559  1
  Na  Na4  1  0.75054519  0.38060754  0.05665618  1
  Na  Na5  1  0.26418367  0.37915562  0.09669951  1
  Na  Na6  1  0.35233795  0.05035731  0.08653775  1
  Na  Na7  1  0.56562915  0.20060869  0.14725715  1
  Na  Na8  1  0.02220294  0.66470631  0.11380156  1
  Na  Na9  1  0.82182356  0.55423425  0.16010992  1
  Na  Na10  1  0.73213624  0.88999355  0.15636097  1
  Na  Na11  1  0.23527604  0.88728130  0.19728066  1
  Na  Na12  1  0.35508495  0.55416155  0.19423877  1
  Na  Na13  1  0.55997621  0.69805622  0.24888986  1
  Na  Na14  1  0.05321183  0.20001034  0.20604017  1
  Na  Na15  1  0.83961799  0.05885294  0.25896939  1
  Na  Na16  1  0.73301323  0.38943243  0.25402230  1
  Na  Na17  1  0.23226949  0.38987046  0.29831104  1
  Na  Na18  1  0.33964029  0.05870035  0.29326520  1
  Na  Na19  1  0.55304356  0.19955618  0.34609908  1
  Na  Na20  1  0.06035550  0.69832453  0.30339900  1
  Na  Na21  1  0.85590273  0.55393505  0.35799992  1
  Na  Na22  1  0.73614490  0.88689186  0.35496234  1
  Na  Na23  1  0.23192740  0.89014853  0.39598435  1
  Na  Na24  1  0.32113560  0.55439557  0.39212329  1
  Na  Na25  1  0.52294368  0.66510249  0.43809007  1
  Na  Na26  1  0.06621080  0.20041782  0.40484631  1
  Na  Na27  1  0.85256458  0.04962357  0.46568654  1
  Na  Na28  1  0.76441593  0.37892323  0.45552154  1
  Na  Na29  1  0.25054100  0.38017580  0.49573837  1
  Na  Na30  1  0.40050146  0.06979200  0.50270068  1
  Na  Na31  1  0.76700311  0.04688885  0.54223161  1
  Na  Na32  1  0.06254469  0.62999661  0.52195507  1
  Na  Na33  1  0.29416234  0.38141338  0.56781671  1
  Zr  Zr34  1  0.99472075  0.45764998  0.03219114  1
  Zr  Zr35  1  0.09269435  0.79969076  0.04621782  1
  Zr  Zr36  1  0.56053210  0.28430292  0.02658359  1
  Zr  Zr37  1  0.62274074  0.01577995  0.02452520  1
  Zr  Zr38  1  0.93974263  0.98221159  0.12701643  1
  Zr  Zr39  1  0.06483720  0.27960552  0.12423344  1
  Zr  Zr40  1  0.54742949  0.78352498  0.12872900  1
  Zr  Zr41  1  0.43891969  0.48665701  0.12231478  1
  Zr  Zr42  1  0.94105594  0.48344749  0.22718617  1
  Zr  Zr43  1  0.05160004  0.78232855  0.22563642  1
  Zr  Zr44  1  0.55228052  0.28428647  0.22646897  1
  Zr  Zr45  1  0.43544103  0.98669472  0.22386866  1
  Zr  Zr46  1  0.93566671  0.98659150  0.32833243  1
  Zr  Zr47  1  0.05238310  0.28412481  0.32582985  1
  Zr  Zr48  1  0.55194908  0.78228658  0.32654692  1
  Zr  Zr49  1  0.44090765  0.48362041  0.32513336  1
  Zr  Zr50  1  0.93911935  0.48636483  0.42994689  1
  Zr  Zr51  1  0.04781707  0.78336968  0.42360000  1
  Zr  Zr52  1  0.56505748  0.27945013  0.42791781  1
  Zr  Zr53  1  0.44049376  0.98177992  0.42518698  1
  Zr  Zr54  1  0.12225069  0.01544122  0.52783515  1
  Zr  Zr55  1  0.06036241  0.28375989  0.52553980  1
  Zr  Zr56  1  0.59277349  0.79923479  0.50621544  1
  Zr  Zr57  1  0.49444422  0.45705623  0.52009583  1
  Si  Si58  1  0.26918502  0.53829672  0.05082512  1
  Si  Si59  1  0.74074815  0.24136268  0.09781363  1
  Si  Si60  1  0.23018133  0.24513548  0.05059069  1
  Si  Si61  1  0.76204096  0.52653224  0.09834455  1
  Si  Si62  1  0.26080899  0.02575855  0.15368068  1
  Si  Si63  1  0.73094116  0.74236674  0.19916903  1
  Si  Si64  1  0.22684973  0.74078758  0.15414716  1
  Si  Si65  1  0.75620001  0.02692850  0.19798607  1
  Si  Si66  1  0.25694217  0.52442463  0.25431731  1
  Si  Si67  1  0.73260855  0.24430432  0.29850280  1
  Si  Si68  1  0.23289936  0.24409211  0.25377664  1
  Si  Si69  1  0.75713192  0.52436735  0.29799784  1
  Si  Si70  1  0.25664380  0.02654664  0.35422890  1
  Si  Si71  1  0.72813579  0.74049180  0.39801245  1
  Si  Si72  1  0.23154328  0.74244523  0.35320094  1
  Si  Si73  1  0.76137786  0.02533048  0.39854073  1
  Si  Si74  1  0.26192885  0.52614250  0.45380487  1
  Si  Si75  1  0.73039052  0.24479347  0.50151695  1
  Si  Si76  1  0.24140153  0.24099059  0.45440141  1
  Si  Si77  1  0.76868455  0.53782485  0.50131340  1
  P  P78  1  0.75907195  0.87489283  0.08789780  1
  P  P79  1  0.25933022  0.89560216  0.06692308  1
  P  P80  1  0.75082940  0.38414148  0.18252709  1
  P  P81  1  0.24611645  0.38800571  0.16700700  1
  P  P82  1  0.74336555  0.88791777  0.28417084  1
  P  P83  1  0.24327698  0.88803793  0.26801925  1
  P  P84  1  0.74601930  0.38803989  0.38523877  1
  P  P85  1  0.25117642  0.38394684  0.36969548  1
  P  P86  1  0.75970143  0.89496351  0.48550739  1
  P  P87  1  0.25983975  0.87456971  0.46439940  1
  O  O88  1  0.45349788  0.44123460  0.03979581  1
  O  O89  1  0.03161579  0.31184648  0.03657815  1
  O  O90  1  0.09002328  0.90740814  0.08056169  1
  O  O91  1  0.94660983  0.79214533  0.07715137  1
  O  O92  1  0.40004911  0.85623839  0.09009095  1
  O  O93  1  0.62952196  0.92376051  0.06265300  1
  O  O94  1  0.31050581  0.81159642  0.04293478  1
  O  O95  1  0.67939503  0.29800575  0.99639166  1
  O  O96  1  0.20705239  0.99702313  0.05356829  1
  O  O97  1  0.10091249  0.53927755  0.03908385  1
  O  O98  1  0.90400520  0.90377091  0.02412041  1
  O  O99  1  0.29283223  0.32158320  0.03998204  1
  O  O100  1  0.52954981  0.99266766  0.99279936  1
  O  O101  1  0.79944539  0.52207494  0.06302388  1
  O  O102  1  0.21315532  0.24993738  0.08703208  1
  O  O103  1  0.72522580  0.24259623  0.06219566  1
  O  O104  1  0.26740986  0.53230368  0.08767402  1
  O  O105  1  0.83781562  0.50220609  0.00117808  1
  O  O106  1  0.24596965  0.64680790  0.04054478  1
  O  O107  1  0.64698126  0.13421695  0.02255297  1
  O  O108  1  0.35542473  0.12657151  0.04162484  1
  O  O109  1  0.45128152  0.93077258  0.14387746  1
  O  O110  1  0.55405841  0.32903396  0.11279373  1
  O  O111  1  0.04191820  0.83319697  0.14079305  1
  O  O112  1  0.93533754  0.43836537  0.11580251  1
  O  O113  1  0.08237418  0.44605719  0.18632780  1
  O  O114  1  0.92046109  0.31746975  0.16505372  1
  O  O115  1  0.41163073  0.32918609  0.18616669  1
  O  O116  1  0.58932861  0.44172923  0.16265499  1
  O  O117  1  0.75710747  0.96011007  0.10484835  1
  O  O118  1  0.24711521  0.30776740  0.14714370  1
  O  O119  1  0.72749071  0.81119237  0.10903030  1
  O  O120  1  0.25310949  0.46575294  0.14742245  1
  O  O121  1  0.11924879  0.99734899  0.14497369  1
  O  O122  1  0.88535391  0.26789584  0.10451037  1
  O  O123  1  0.37503374  0.76453017  0.14800068  1
  O  O124  1  0.60829752  0.50410501  0.10126370  1
  O  O125  1  0.77775094  0.03250519  0.16235198  1
  O  O126  1  0.21476303  0.73623540  0.19003157  1
  O  O127  1  0.71834041  0.73201358  0.16371067  1
  O  O128  1  0.25657301  0.03601511  0.18975276  1
  O  O129  1  0.80133148  0.12812827  0.10970098  1
  O  O130  1  0.21430649  0.12940340  0.13702405  1
  O  O131  1  0.69855324  0.63636292  0.11259419  1
  O  O132  1  0.28150222  0.63070481  0.14075145  1
  O  O133  1  0.43775964  0.43897808  0.23805890  1
  O  O134  1  0.54414043  0.83315942  0.21318542  1
  O  O135  1  0.04871588  0.32999579  0.23808927  1
  O  O136  1  0.93508659  0.93731777  0.21375046  1
  O  O137  1  0.08163271  0.94415450  0.28785516  1
  O  O138  1  0.91099254  0.82539493  0.26580643  1
  O  O139  1  0.41090763  0.82533247  0.28637664  1
  O  O140  1  0.58163317  0.94417175  0.26436551  1
  O  O141  1  0.75843132  0.46578570  0.20024651  1
  O  O142  1  0.23800298  0.81197017  0.24718764  1
  O  O143  1  0.73823412  0.31262633  0.20427439  1
  O  O144  1  0.25026556  0.96842203  0.24978284  1
  O  O145  1  0.11210184  0.49685937  0.24895982  1
  O  O146  1  0.87527208  0.77001647  0.20456110  1
  O  O147  1  0.37851257  0.27020370  0.24765180  1
  O  O148  1  0.60633626  0.00223655  0.20202477  1
  O  O149  1  0.77399134  0.52507466  0.26224877  1
  O  O150  1  0.21234423  0.24337273  0.28955785  1
  O  O151  1  0.71227625  0.24356075  0.26271531  1
  O  O152  1  0.27382750  0.52551549  0.29005492  1
  O  O153  1  0.78692534  0.63346883  0.21365268  1
  O  O154  1  0.19400219  0.63513564  0.24066706  1
  O  O155  1  0.69714661  0.13554128  0.21279034  1
  O  O156  1  0.29153787  0.13238574  0.24114999  1
  O  O157  1  0.43554909  0.93725510  0.33839535  1
  O  O158  1  0.54843081  0.33021093  0.31416316  1
  O  O159  1  0.04453961  0.83306485  0.33919006  1
  O  O160  1  0.93779937  0.43894550  0.31428777  1
  O  O161  1  0.09015023  0.44135787  0.38966645  1
  O  O162  1  0.91135927  0.32932429  0.36604396  1
  O  O163  1  0.42126078  0.31715984  0.38703453  1
  O  O164  1  0.58199003  0.44615936  0.36600026  1
  O  O165  1  0.75055910  0.96812968  0.30246446  1
  O  O166  1  0.23828499  0.31242285  0.34798403  1
  O  O167  1  0.73837018  0.81164943  0.30494531  1
  O  O168  1  0.25797657  0.46580226  0.35192593  1
  O  O169  1  0.10663142  0.00200239  0.35019289  1
  O  O170  1  0.87842819  0.27020562  0.30465748  1
  O  O171  1  0.37547735  0.77027944  0.34766273  1
  O  O172  1  0.61217012  0.49699601  0.30345653  1
  O  O173  1  0.75736119  0.03556639  0.36248520  1
  O  O174  1  0.21952192  0.73202024  0.38867479  1
  O  O175  1  0.71529731  0.73608855  0.36213346  1
  O  O176  1  0.27842615  0.03186620  0.38986530  1
  O  O177  1  0.79125409  0.13252133  0.31111942  1
  O  O178  1  0.19720938  0.13531481  0.33950015  1
  O  O179  1  0.69446456  0.63510759  0.31155592  1
  O  O180  1  0.28725895  0.63350396  0.33876646  1
  O  O181  1  0.43455473  0.43835777  0.43612938  1
  O  O182  1  0.54336071  0.83268362  0.41146765  1
  O  O183  1  0.05439448  0.32868067  0.43948594  1
  O  O184  1  0.95178812  0.93064248  0.40848461  1
  O  O185  1  0.12985547  0.92373029  0.48956812  1
  O  O186  1  0.89994620  0.85583601  0.46223321  1
  O  O187  1  0.44709917  0.79179240  0.47519523  1
  O  O188  1  0.59020869  0.90695883  0.47191374  1
  O  O189  1  0.75335925  0.46564548  0.40482444  1
  O  O190  1  0.22802197  0.81088125  0.44329471  1
  O  O191  1  0.74744940  0.30757181  0.40504478  1
  O  O192  1  0.25823509  0.95954742  0.44738769  1
  O  O193  1  0.10795565  0.50384509  0.45114187  1
  O  O194  1  0.87638878  0.76417038  0.40404409  1
  O  O195  1  0.38544492  0.26797754  0.44773034  1
  O  O196  1  0.62028690  0.99649435  0.40719030  1
  O  O197  1  0.76661585  0.53226444  0.46446789  1
  O  O198  1  0.22611401  0.24163984  0.49002504  1
  O  O199  1  0.71359358  0.24977014  0.46508294  1
  O  O200  1  0.30058740  0.52140298  0.48906594  1
  O  O201  1  0.78287684  0.63038619  0.41143497  1
  O  O202  1  0.19761097  0.63623391  0.43963482  1
  O  O203  1  0.71400249  0.12917758  0.41517324  1
  O  O204  1  0.30235732  0.12780614  0.44238337  1
  O  O205  1  0.53180516  0.31143891  0.51547414  1
  O  O206  1  0.95314099  0.44062141  0.51224645  1
  O  O207  1  0.70762043  0.99629006  0.49889824  1
  O  O208  1  0.17761888  0.29824763  0.55586618  1
  O  O209  1  0.81122899  0.81073297  0.50943565  1
  O  O210  1  0.02792871  0.99295249  0.55952512  1
  O  O211  1  0.79302521  0.32116095  0.51219417  1
  O  O212  1  0.40367479  0.90322891  0.52828875  1
  O  O213  1  0.60077850  0.53863427  0.51317905  1
  O  O214  1  0.85547637  0.12626584  0.51050413  1
  O  O215  1  0.14689439  0.13372384  0.52977933  1
  O  O216  1  0.74544068  0.64629959  0.51166659  1
  O  O217  1  0.33575072  0.50218090  0.55090315  1
