# generated using pymatgen
data_Na24Zr16Si14(P2O29)3
_symmetry_space_group_name_H-M   'P 1'
_cell_length_a   9.15937100
_cell_length_b   24.11698144
_cell_length_c   43.78738300
_cell_angle_alpha   90.00000000
_cell_angle_beta   90.00000000
_cell_angle_gamma   67.67936926
_symmetry_Int_Tables_number   1
_chemical_formula_structural   Na24Zr16Si14(P2O29)3
_chemical_formula_sum   'Na48 Zr32 Si28 P12 O174'
_cell_volume   8947.74517401
_cell_formula_units_Z   2
loop_
 _symmetry_equiv_pos_site_id
 _symmetry_equiv_pos_as_xyz
  1  'x, y, z'
loop_
 _atom_site_type_symbol
 _atom_site_label
 _atom_site_symmetry_multiplicity
 _atom_site_fract_x
 _atom_site_fract_y
 _atom_site_fract_z
 _atom_site_occupancy
  Na  Na0  1  0.00902056  0.87202684  0.09007082  1
  Na  Na1  1  0.90602867  0.29029684  0.04333228  1
  Na  Na2  1  0.58975618  0.49296586  0.02071556  1
  Na  Na3  1  0.51557465  0.08124862  0.08496301  1
  Na  Na4  1  0.35260541  0.57697313  0.09449676  1
  Na  Na5  1  0.37413406  0.85535150  0.03187176  1
  Na  Na6  1  0.45323247  0.65290605  0.02861983  1
  Na  Na7  1  0.15615461  0.47716388  0.09596272  1
  Na  Na8  1  0.90241152  0.59010468  0.01302509  1
  Na  Na9  1  0.85506505  0.24865283  0.10938490  1
  Na  Na10  1  0.65389579  0.72244571  0.08078830  1
  Na  Na11  1  0.76023601  0.09378479  0.02147597  1
  Na  Na12  1  0.65815686  0.23910566  0.20951861  1
  Na  Na13  1  0.76016458  0.59700686  0.15443614  1
  Na  Na14  1  0.37959372  0.73493756  0.15060653  1
  Na  Na15  1  0.17553078  0.42555792  0.22547590  1
  Na  Na16  1  0.96861993  0.93472815  0.22457899  1
  Na  Na17  1  0.14698772  0.26643276  0.16380413  1
  Na  Na18  1  0.04800185  0.08546295  0.15458075  1
  Na  Na19  1  0.87459157  0.76526791  0.21447647  1
  Na  Na20  1  0.68858416  0.91115107  0.15044879  1
  Na  Na21  1  0.52729879  0.58078422  0.21966612  1
  Na  Na22  1  0.30458945  0.08209884  0.21890754  1
  Na  Na23  1  0.48271542  0.41005637  0.15992855  1
  Na  Na24  1  0.28891506  0.59704841  0.34568520  1
  Na  Na25  1  0.49131519  0.90699409  0.27086323  1
  Na  Na26  1  0.01135844  0.09194714  0.28658133  1
  Na  Na27  1  0.90727002  0.73523050  0.34183667  1
  Na  Na28  1  0.61919962  0.24578118  0.34155265  1
  Na  Na29  1  0.79377246  0.56686043  0.28173818  1
  Na  Na30  1  0.69906161  0.39692803  0.27151415  1
  Na  Na31  1  0.52030055  0.06567437  0.33252977  1
  Na  Na32  1  0.36264127  0.24990434  0.27718685  1
  Na  Na33  1  0.18434488  0.92191752  0.33670794  1
  Na  Na34  1  0.97988055  0.42074147  0.34506478  1
  Na  Na35  1  0.14097074  0.75141343  0.27658958  1
  Na  Na36  1  0.07868824  0.83864171  0.47575706  1
  Na  Na37  1  0.15252888  0.25054889  0.41115195  1
  Na  Na38  1  0.65995757  0.45977571  0.40609749  1
  Na  Na39  1  0.76048399  0.04191317  0.45292293  1
  Na  Na40  1  0.21525225  0.67861698  0.46744639  1
  Na  Na41  1  0.51147919  0.85489960  0.40044912  1
  Na  Na42  1  0.31554039  0.75490461  0.40181045  1
  Na  Na43  1  0.29508579  0.47630567  0.46426220  1
  Na  Na44  1  0.01435449  0.60948944  0.41544673  1
  Na  Na45  1  0.90800207  0.23832212  0.47488539  1
  Na  Na46  1  0.76519289  0.74195292  0.48318502  1
  Na  Na47  1  0.81320686  0.08327687  0.38694972  1
  Zr  Zr48  1  0.03339974  0.69590625  0.04631224  1
  Zr  Zr49  1  0.88539253  0.37900498  0.10146184  1
  Zr  Zr50  1  0.69971728  0.58383741  0.07496435  1
  Zr  Zr51  1  0.80396422  0.96226394  0.03912362  1
  Zr  Zr52  1  0.36356542  0.40153116  0.02781526  1
  Zr  Zr53  1  0.07086612  0.12593595  0.07882275  1
  Zr  Zr54  1  0.36826353  0.87971638  0.10063442  1
  Zr  Zr55  1  0.62146667  0.21899423  0.05200426  1
  Zr  Zr56  1  0.68753662  0.04428437  0.16480628  1
  Zr  Zr57  1  0.53130658  0.71276557  0.22709169  1
  Zr  Zr58  1  0.30331632  0.94833633  0.20125293  1
  Zr  Zr59  1  0.47155309  0.27661338  0.14098652  1
  Zr  Zr60  1  0.95847427  0.77508408  0.13994558  1
  Zr  Zr61  1  0.79542738  0.44851490  0.20592348  1
  Zr  Zr62  1  0.04291034  0.21468606  0.22891643  1
  Zr  Zr63  1  0.22095912  0.54047914  0.16757690  1
  Zr  Zr64  1  0.36470574  0.38366207  0.29496019  1
  Zr  Zr65  1  0.19594270  0.05541171  0.35537597  1
  Zr  Zr66  1  0.97996132  0.28775280  0.33150574  1
  Zr  Zr67  1  0.13676633  0.61953460  0.26915100  1
  Zr  Zr68  1  0.62445691  0.11735433  0.26745528  1
  Zr  Zr69  1  0.44705235  0.79159269  0.32869393  1
  Zr  Zr70  1  0.71007965  0.55686330  0.35625580  1
  Zr  Zr71  1  0.87231971  0.88359181  0.29038278  1
  Zr  Zr72  1  0.96796358  0.74820036  0.42134965  1
  Zr  Zr73  1  0.86542755  0.36943485  0.45689485  1
  Zr  Zr74  1  0.63557000  0.63587803  0.44992790  1
  Zr  Zr75  1  0.78238818  0.95295411  0.39484207  1
  Zr  Zr76  1  0.30036027  0.45225175  0.39546482  1
  Zr  Zr77  1  0.04570162  0.11306852  0.44439200  1
  Zr  Zr78  1  0.30426848  0.93043400  0.46861478  1
  Zr  Zr79  1  0.59670749  0.20604585  0.41741799  1
  Si  Si80  1  0.74723058  0.83239790  0.07029767  1
  Si  Si81  1  0.73352322  0.14466724  0.10852302  1
  Si  Si82  1  0.93949409  0.46449212  0.04204684  1
  Si  Si83  1  0.06772615  0.98600347  0.05364046  1
  Si  Si84  1  0.97810460  0.63335027  0.10951388  1
  Si  Si85  1  0.54213572  0.35822221  0.08055471  1
  Si  Si86  1  0.61029261  0.50985133  0.13902824  1
  Si  Si87  1  0.43416929  0.17531380  0.20029071  1
  Si  Si88  1  0.40710027  0.48501581  0.23621378  1
  Si  Si89  1  0.56503603  0.81369938  0.16734254  1
  Si  Si90  1  0.79719976  0.31677884  0.17090789  1
  Si  Si91  1  0.61944623  0.98479280  0.23209907  1
  Si  Si92  1  0.20954069  0.67877808  0.19975675  1
  Si  Si93  1  0.36797506  0.01297677  0.13272699  1
  Si  Si94  1  0.26062670  0.84720300  0.26008664  1
  Si  Si95  1  0.10341462  0.51845498  0.32884096  1
  Si  Si96  1  0.05780987  0.82212167  0.35730868  1
  Si  Si97  1  0.23310615  0.15667096  0.29601885  1
  Si  Si98  1  0.45895800  0.65333742  0.29644168  1
  Si  Si99  1  0.30004217  0.31891771  0.36346739  1
  Si  Si100  1  0.87012788  0.01530551  0.32548227  1
  Si  Si101  1  0.04861379  0.34728546  0.26419957  1
  Si  Si102  1  0.93406135  0.18741610  0.38781425  1
  Si  Si103  1  0.72832264  0.86760635  0.45434161  1
  Si  Si104  1  0.92186650  0.49943809  0.42584704  1
  Si  Si105  1  0.12559213  0.97382811  0.41589509  1
  Si  Si106  1  0.60143676  0.34584545  0.44233876  1
  Si  Si107  1  0.69030411  0.69852051  0.38676610  1
  P  P108  1  0.24312209  0.23852538  0.08630502  1
  P  P109  1  0.28007070  0.74995746  0.08366338  1
  P  P110  1  0.03750434  0.91380230  0.15213766  1
  P  P111  1  0.88327337  0.57951833  0.21798833  1
  P  P112  1  0.95356323  0.08146232  0.21604992  1
  P  P113  1  0.13557150  0.40646848  0.15435224  1
  P  P114  1  0.71373903  0.25057641  0.28026985  1
  P  P115  1  0.53199454  0.92546383  0.34197777  1
  P  P116  1  0.63045675  0.41850118  0.34392461  1
  P  P117  1  0.78477729  0.75294810  0.27823609  1
  P  P118  1  0.38881136  0.58174591  0.41258962  1
  P  P119  1  0.42400692  0.09351163  0.40999848  1
  O  O120  1  0.81644186  0.83175134  0.10493154  1
  O  O121  1  0.88752384  0.19646012  0.06067533  1
  O  O122  1  0.83223372  0.49757992  0.01371512  1
  O  O123  1  0.68567072  0.13434223  0.07360987  1
  O  O124  1  0.06838287  0.62920267  0.07626550  1
  O  O125  1  0.99349993  0.97723139  0.01957511  1
  O  O126  1  0.69599095  0.64510559  0.04540073  1
  O  O127  1  0.46298554  0.34241531  0.11065720  1
  O  O128  1  0.22321065  0.72481080  0.05431081  1
  O  O129  1  0.52352659  0.56915485  0.05657350  1
  O  O130  1  0.30310355  0.24474282  0.11918504  1
  O  O131  1  0.15077147  0.76612400  0.10903417  1
  O  O132  1  0.62346230  0.03095382  0.03712952  1
  O  O133  1  0.37029188  0.23673681  0.06284914  1
  O  O134  1  0.08021848  0.29021813  0.08155260  1
  O  O135  1  0.43345774  0.70412313  0.09593170  1
  O  O136  1  0.44328559  0.44049672  0.00116876  1
  O  O137  1  0.21488583  0.17768481  0.08375049  1
  O  O138  1  0.29283424  0.81036406  0.07369745  1
  O  O139  1  0.82770797  0.76618837  0.05406551  1
  O  O140  1  0.71641917  0.44618072  0.12184406  1
  O  O141  1  0.91837427  0.51432023  0.06995658  1
  O  O142  1  0.64278926  0.21771436  0.11390128  1
  O  O143  1  0.95708964  0.69876710  0.12450690  1
  O  O144  1  0.06691724  0.05450079  0.05533533  1
  O  O145  1  0.41838149  0.94557947  0.11734319  1
  O  O146  1  0.53378323  0.31800953  0.04913356  1
  O  O147  1  0.73054717  0.34154125  0.08437333  1
  O  O148  1  0.04385696  0.66021062  0.00925421  1
  O  O149  1  0.92539346  0.97639095  0.07477729  1
  O  O150  1  0.80458766  0.63108067  0.10792451  1
  O  O151  1  0.92264642  0.13356711  0.11371444  1
  O  O152  1  0.13224569  0.43534610  0.03387713  1
  O  O153  1  0.63884927  0.19283869  0.01297814  1
  O  O154  1  0.55657044  0.84731293  0.07029594  1
  O  O155  1  0.89851537  0.40970635  0.05914051  1
  O  O156  1  0.60761377  0.56760489  0.11995763  1
  O  O157  1  0.79313186  0.88202612  0.05063392  1
  O  O158  1  0.42908551  0.42610764  0.06897635  1
  O  O159  1  0.25065945  0.06617278  0.11065145  1
  O  O160  1  0.23545904  0.93296056  0.06252761  1
  O  O161  1  0.50921981  0.18157421  0.23370693  1
  O  O162  1  0.68327659  0.51213251  0.17344983  1
  O  O163  1  0.48480678  0.81473983  0.13346499  1
  O  O164  1  0.33085591  0.47921365  0.20306795  1
  O  O165  1  0.71020539  0.98021453  0.19950688  1
  O  O166  1  0.89823349  0.31670834  0.14003089  1
  O  O167  1  0.28497285  0.01113250  0.16622510  1
  O  O168  1  0.12519607  0.68320570  0.23336374  1
  O  O169  1  0.86264859  0.07128469  0.18833591  1
  O  O170  1  0.06194886  0.39988969  0.12348518  1
  O  O171  1  0.12195526  0.92196544  0.18140316  1
  O  O172  1  0.95970091  0.59598765  0.24639397  1
  O  O173  1  0.84863761  0.09745557  0.24499499  1
  O  O174  1  0.01627019  0.42274606  0.18108514  1
  O  O175  1  0.15345172  0.90187031  0.12474221  1
  O  O176  1  0.99406922  0.56258078  0.19006131  1
  O  O177  1  0.88833283  0.97042407  0.14612375  1
  O  O178  1  0.72938546  0.63246415  0.20842289  1
  O  O179  1  0.10112194  0.02387164  0.22276006  1
  O  O180  1  0.27016811  0.34561725  0.16286542  1
  O  O181  1  0.98593644  0.85968310  0.15501317  1
  O  O182  1  0.84060709  0.52526150  0.22781324  1
  O  O183  1  0.00889977  0.13340208  0.20793993  1
  O  O184  1  0.20360674  0.45541770  0.14994288  1
  O  O185  1  0.50973104  0.10643313  0.18802819  1
  O  O186  1  0.35139158  0.77880231  0.24694070  1
  O  O187  1  0.48202824  0.88146560  0.18203999  1
  O  O188  1  0.31645118  0.55341991  0.24932717  1
  O  O189  1  0.58074995  0.05057512  0.24807071  1
  O  O190  1  0.73711912  0.38277790  0.18746703  1
  O  O191  1  0.08676703  0.28148437  0.24826860  1
  O  O192  1  0.24399883  0.61272520  0.18450018  1
  O  O193  1  0.38562925  0.68231972  0.20235550  1
  O  O194  1  0.53954387  0.01867000  0.13824118  1
  O  O195  1  0.63774454  0.30142937  0.16466449  1
  O  O196  1  0.44928080  0.97710815  0.22782644  1
  O  O197  1  0.59550791  0.47447709  0.23329114  1
  O  O198  1  0.75518767  0.80142706  0.16578047  1
  O  O199  1  0.42999642  0.51064929  0.14320408  1
  O  O200  1  0.24318395  0.19132824  0.20274823  1
  O  O201  1  0.68601758  0.10292869  0.13160900  1
  O  O202  1  0.54289345  0.76151669  0.18861171  1
  O  O203  1  0.28080375  0.89831205  0.23791168  1
  O  O204  1  0.46766709  0.22302476  0.17729364  1
  O  O205  1  0.09830093  0.73366501  0.17753308  1
  O  O206  1  0.93308700  0.39984939  0.24167536  1
  O  O207  1  0.91256114  0.26362032  0.19318018  1
  O  O208  1  0.10347886  0.57625552  0.12828021  1
  O  O209  1  0.18357302  0.51739950  0.36271559  1
  O  O210  1  0.33644947  0.85302213  0.29326689  1
  O  O211  1  0.15829555  0.15032627  0.26257987  1
  O  O212  1  0.98469176  0.81999417  0.32287766  1
  O  O213  1  0.38262408  0.32077152  0.32993410  1
  O  O214  1  0.54303822  0.64903406  0.26281605  1
  O  O215  1  0.95843826  0.35187017  0.29685461  1
  O  O216  1  0.76903588  0.01543008  0.35634732  1
  O  O217  1  0.54560733  0.41034332  0.31472792  1
  O  O218  1  0.70818317  0.73645811  0.24985598  1
  O  O219  1  0.80464430  0.26082159  0.30796485  1
  O  O220  1  0.60605878  0.93188236  0.37282872  1
  O  O221  1  0.51482114  0.43054555  0.37135683  1
  O  O222  1  0.67379353  0.77012469  0.30614298  1
  O  O223  1  0.81870795  0.23443717  0.25132577  1
  O  O224  1  0.65105898  0.90928117  0.31520771  1
  O  O225  1  0.56649036  0.30823564  0.27353504  1
  O  O226  1  0.39738847  0.98636678  0.33356672  1
  O  O227  1  0.77940451  0.36181847  0.34995055  1
  O  O228  1  0.93861699  0.69996260  0.28781267  1
  O  O229  1  0.65814460  0.19870828  0.28839229  1
  O  O230  1  0.46371290  0.87660356  0.34641871  1
  O  O231  1  0.68235450  0.47252513  0.34096376  1
  O  O232  1  0.82799462  0.80701627  0.26833175  1
  O  O233  1  0.18595495  0.45069807  0.31410453  1
  O  O234  1  0.02485266  0.11439381  0.38241147  1
  O  O235  1  0.15730687  0.22556294  0.30822269  1
  O  O236  1  0.95210527  0.88590220  0.37445060  1
  O  O237  1  0.25037842  0.38632389  0.37879541  1
  O  O238  1  0.42422674  0.71940846  0.31167911  1
  O  O239  1  0.71189748  0.63298637  0.37187175  1
  O  O240  1  0.93028299  0.94931366  0.30892570  1
  O  O241  1  0.02948263  0.03069784  0.33173054  1
  O  O242  1  0.21881064  0.35494333  0.26834162  1
  O  O243  1  0.28287040  0.64977416  0.29385233  1
  O  O244  1  0.12836393  0.31327382  0.35802680  1
  O  O245  1  0.23836398  0.82108738  0.35318194  1
  O  O246  1  0.42411013  0.14086130  0.29359810  1
  O  O247  1  0.07216747  0.85782260  0.26297118  1
  O  O248  1  0.91328602  0.53072117  0.33042471  1
  O  O249  1  0.38720038  0.43379877  0.25833398  1
  O  O250  1  0.20022619  0.10881394  0.31899162  1
  O  O251  1  0.98151482  0.22922318  0.36475793  1
  O  O252  1  0.12533941  0.57066602  0.30756730  1
  O  O253  1  0.75472705  0.06841445  0.30319202  1
  O  O254  1  0.56488129  0.75539826  0.36788180  1
  O  O255  1  0.57043390  0.59847819  0.31863062  1
  O  O256  1  0.73462258  0.93227965  0.25467690  1
  O  O257  1  0.83569682  0.83464103  0.48267026  1
  O  O258  1  0.98172127  0.19767218  0.42275024  1
  O  O259  1  0.85208609  0.50014554  0.39125291  1
  O  O260  1  0.78004440  0.13544511  0.43558689  1
  O  O261  1  0.97190312  0.68680427  0.45083896  1
  O  O262  1  0.20447107  0.98973723  0.38577269  1
  O  O263  1  0.59992507  0.70275741  0.42001233  1
  O  O264  1  0.67592915  0.35443626  0.47641603  1
  O  O265  1  0.14449244  0.76266727  0.43972903  1
  O  O266  1  0.36379852  0.08753772  0.37711265  1
  O  O267  1  0.44604099  0.60680457  0.44192837  1
  O  O268  1  0.29690879  0.09527753  0.43346771  1
  O  O269  1  0.51737792  0.56585070  0.38708109  1
  O  O270  1  0.04594256  0.30078393  0.45898484  1
  O  O271  1  0.23507772  0.62759359  0.40047454  1
  O  O272  1  0.58670794  0.04167600  0.41466686  1
  O  O273  1  0.37672911  0.52123619  0.42252552  1
  O  O274  1  0.22495474  0.89125323  0.49521080  1
  O  O275  1  0.45269078  0.15425825  0.41258041  1
  O  O276  1  0.74922420  0.81761249  0.42652226  1
  O  O277  1  0.84130409  0.56558340  0.44214019  1
  O  O278  1  0.13373890  0.01401609  0.44732371  1
  O  O279  1  0.60108377  0.27749965  0.44078085  1
  O  O280  1  0.74392535  0.35532491  0.42121452  1
  O  O281  1  0.86359261  0.70098675  0.38835431  1
  O  O282  1  0.93720820  0.99035964  0.41201728  1
  O  O283  1  0.62493590  0.67159303  0.48698039  1
  O  O284  1  0.02815436  0.13927575  0.48341662  1
  O  O285  1  0.11243089  0.48471004  0.42583518  1
  O  O286  1  0.74501547  0.19844820  0.38256431  1
  O  O287  1  0.53551843  0.89662969  0.46252682  1
  O  O288  1  0.05981354  0.76443782  0.37635623  1
  O  O289  1  0.87658810  0.44966291  0.44552240  1
  O  O290  1  0.76893976  0.92236577  0.43716917  1
  O  O291  1  0.43385775  0.39897911  0.43348385  1
  O  O292  1  0.23909500  0.90596883  0.42739955  1
  O  O293  1  0.41722065  0.26565003  0.38553931  1
