# generated using pymatgen
data_Na9Zr5Si5P3O32
_symmetry_space_group_name_H-M   'P 1'
_cell_length_a   9.15937100
_cell_length_b   16.04975191
_cell_length_c   55.59154400
_cell_angle_alpha   90.00000000
_cell_angle_beta   90.00000000
_cell_angle_gamma   55.20191359
_symmetry_Int_Tables_number   1
_chemical_formula_structural   Na9Zr5Si5P3O32
_chemical_formula_sum   'Na36 Zr20 Si20 P12 O128'
_cell_volume   6710.80887098
_cell_formula_units_Z   4
loop_
 _symmetry_equiv_pos_site_id
 _symmetry_equiv_pos_as_xyz
  1  'x, y, z'
loop_
 _atom_site_type_symbol
 _atom_site_label
 _atom_site_symmetry_multiplicity
 _atom_site_fract_x
 _atom_site_fract_y
 _atom_site_fract_z
 _atom_site_occupancy
  Na  Na0  1  0.75794365  0.81778400  0.06993253  1
  Na  Na1  1  0.40635052  0.39552488  0.00808584  1
  Na  Na2  1  0.21312296  0.18630222  0.04445269  1
  Na  Na3  1  0.16674585  0.69764053  0.13384430  1
  Na  Na4  1  0.39757364  0.19330027  0.14621180  1
  Na  Na5  1  0.44438087  0.66185934  0.06272823  1
  Na  Na6  1  0.54538467  0.76757430  0.01477890  1
  Na  Na7  1  0.58488843  0.31822411  0.06904613  1
  Na  Na8  1  0.87622636  0.01345683  0.11222129  1
  Na  Na9  1  0.87241847  0.51452122  0.02999569  1
  Na  Na10  1  0.09128047  0.01486137  0.02841275  1
  Na  Na11  1  0.10880091  0.50256936  0.10996411  1
  Na  Na12  1  0.75620226  0.86156127  0.24921002  1
  Na  Na13  1  0.78670832  0.34146641  0.16886838  1
  Na  Na14  1  0.16362876  0.21902334  0.22201908  1
  Na  Na15  1  0.13275997  0.73938639  0.30216677  1
  Na  Na16  1  0.37307851  0.23825478  0.30644518  1
  Na  Na17  1  0.41196802  0.71999138  0.21772733  1
  Na  Na18  1  0.54522120  0.84268389  0.16448631  1
  Na  Na19  1  0.50696883  0.36076681  0.25324166  1
  Na  Na20  1  0.83841723  0.05027310  0.27778934  1
  Na  Na21  1  0.86297962  0.52825873  0.19359666  1
  Na  Na22  1  0.08037973  0.03034455  0.19309003  1
  Na  Na23  1  0.05640534  0.55252399  0.27727403  1
  Na  Na24  1  0.70648297  0.89504116  0.42631409  1
  Na  Na25  1  0.75209664  0.38315890  0.33698096  1
  Na  Na26  1  0.16087933  0.26340089  0.40089796  1
  Na  Na27  1  0.51224791  0.68638038  0.46290493  1
  Na  Na28  1  0.37322866  0.31356144  0.45621866  1
  Na  Na29  1  0.33459315  0.76273735  0.40178890  1
  Na  Na30  1  0.52115078  0.88751161  0.32485585  1
  Na  Na31  1  0.47480336  0.41916140  0.40830472  1
  Na  Na32  1  0.82826203  0.06584830  0.44260129  1
  Na  Na33  1  0.81065243  0.57815926  0.36099867  1
  Na  Na34  1  0.04280055  0.06758433  0.35872776  1
  Na  Na35  1  0.04638914  0.56715250  0.44110153  1
  Zr  Zr36  1  0.83181298  0.92095576  0.15978223  1
  Zr  Zr37  1  0.86054621  0.39653425  0.07427913  1
  Zr  Zr38  1  0.11589609  0.12033641  0.14181781  1
  Zr  Zr39  1  0.16768066  0.58654543  0.05933726  1
  Zr  Zr40  1  0.70973508  0.04631641  0.05950050  1
  Zr  Zr41  1  0.64009452  0.61817139  0.14404765  1
  Zr  Zr42  1  0.34580648  0.89434800  0.07664012  1
  Zr  Zr43  1  0.32270799  0.42286409  0.15901889  1
  Zr  Zr44  1  0.80264805  0.96082479  0.32911784  1
  Zr  Zr45  1  0.80966660  0.44225603  0.24266618  1
  Zr  Zr46  1  0.08653079  0.16008871  0.31115847  1
  Zr  Zr47  1  0.10907347  0.63861012  0.22821759  1
  Zr  Zr48  1  0.61600481  0.13869126  0.22801155  1
  Zr  Zr49  1  0.59631726  0.65806249  0.31194456  1
  Zr  Zr50  1  0.30286705  0.94202042  0.24293082  1
  Zr  Zr51  1  0.27885382  0.46288729  0.32687167  1
  Zr  Zr52  1  0.75159841  0.49459291  0.41165039  1
  Zr  Zr53  1  0.05891133  0.68443356  0.39667416  1
  Zr  Zr54  1  0.57342089  0.18658713  0.39438018  1
  Zr  Zr55  1  0.20983795  0.03459925  0.41143121  1
  Si  Si56  1  0.01018155  0.37457168  0.13512478  1
  Si  Si57  1  0.03272687  0.85294157  0.05444076  1
  Si  Si58  1  0.96566147  0.13972109  0.08142475  1
  Si  Si59  1  0.75737242  0.63973622  0.08590918  1
  Si  Si60  1  0.23290471  0.38916631  0.05104110  1
  Si  Si61  1  0.23555434  0.87480794  0.13607654  1
  Si  Si62  1  0.97297835  0.41631603  0.30249984  1
  Si  Si63  1  0.99275413  0.89557954  0.21962660  1
  Si  Si64  1  0.94565206  0.66475039  0.16841940  1
  Si  Si65  1  0.92567918  0.18534533  0.25132991  1
  Si  Si66  1  0.70264210  0.68447342  0.25161853  1
  Si  Si67  1  0.72224601  0.16567772  0.16818997  1
  Si  Si68  1  0.21629791  0.39637625  0.21933111  1
  Si  Si69  1  0.19661406  0.91520134  0.30280735  1
  Si  Si70  1  0.95386614  0.94121813  0.38950258  1
  Si  Si71  1  0.90869286  0.70661427  0.33584934  1
  Si  Si72  1  0.88685464  0.22804669  0.41647723  1
  Si  Si73  1  0.68631364  0.69201012  0.41993587  1
  Si  Si74  1  0.68278098  0.20628644  0.33483955  1
  Si  Si75  1  0.16200768  0.44122349  0.38510168  1
  P  P76  1  0.52858164  0.00850410  0.10887552  1
  P  P77  1  0.55959762  0.51565025  0.02444928  1
  P  P78  1  0.46695819  0.97271655  0.02463158  1
  P  P79  1  0.45459645  0.51007383  0.10824385  1
  P  P80  1  0.49484309  0.04793676  0.27794570  1
  P  P81  1  0.50985208  0.53148254  0.19317921  1
  P  P82  1  0.42336644  0.03307274  0.19298168  1
  P  P83  1  0.40884470  0.54977446  0.27763720  1
  P  P84  1  0.45254212  0.10812247  0.44640236  1
  P  P85  1  0.46503252  0.57045013  0.36267984  1
  P  P86  1  0.39038211  0.07265221  0.36205477  1
  P  P87  1  0.35965697  0.56564431  0.44651266  1
  O  O88  1  0.88546517  0.91348649  0.07713410  1
  O  O89  1  0.83922564  0.46358266  0.15094482  1
  O  O90  1  0.14351100  0.04488076  0.06838284  1
  O  O91  1  0.11363651  0.57662830  0.15233687  1
  O  O92  1  0.73296166  0.07520741  0.15283117  1
  O  O93  1  0.75935051  0.55019815  0.07171025  1
  O  O94  1  0.22182508  0.96806185  0.15092185  1
  O  O95  1  0.26816996  0.43875499  0.07462741  1
  O  O96  1  0.58858865  0.90213791  0.00499788  1
  O  O97  1  0.61210575  0.43903342  0.09140733  1
  O  O98  1  0.35769899  0.08197429  0.12369695  1
  O  O99  1  0.39253695  0.55266799  0.04168380  1
  O  O100  1  0.54303021  0.02656278  0.03984995  1
  O  O101  1  0.48993565  0.57660960  0.12415105  1
  O  O102  1  0.50610757  0.93621101  0.09370537  1
  O  O103  1  0.54092648  0.47154056  0.00165691  1
  O  O104  1  0.69054087  0.94654589  0.12554604  1
  O  O105  1  0.72426239  0.43129236  0.03994210  1
  O  O106  1  0.27620272  0.05888676  0.01784650  1
  O  O107  1  0.28621525  0.59020543  0.09279050  1
  O  O108  1  0.56149811  0.07377975  0.09146925  1
  O  O109  1  0.57497197  0.60680736  0.02145704  1
  O  O110  1  0.46131834  0.89999352  0.04384235  1
  O  O111  1  0.41130402  0.44839593  0.12417606  1
  O  O112  1  0.91658198  0.95261347  0.03578939  1
  O  O113  1  0.96977900  0.38863562  0.10623969  1
  O  O114  1  0.98770726  0.12870567  0.11102762  1
  O  O115  1  0.77062614  0.62074101  0.11498711  1
  O  O116  1  0.23039483  0.89692786  0.10732627  1
  O  O117  1  0.13772007  0.49729024  0.03396320  1
  O  O118  1  0.08459955  0.36216205  0.05483638  1
  O  O119  1  0.06218502  0.87089780  0.14079204  1
  O  O120  1  0.92736996  0.64168252  0.07691947  1
  O  O121  1  0.89933149  0.16655044  0.16352425  1
  O  O122  1  0.76835533  0.66279528  0.16560317  1
  O  O123  1  0.79688543  0.13228586  0.07281664  1
  O  O124  1  0.18703268  0.37548972  0.13992257  1
  O  O125  1  0.22591463  0.83498450  0.05779024  1
  O  O126  1  0.89520690  0.77540802  0.15944252  1
  O  O127  1  0.92378768  0.24829506  0.07208058  1
  O  O128  1  0.05384868  0.26474224  0.14392090  1
  O  O129  1  0.05423380  0.74498957  0.05096985  1
  O  O130  1  0.41667010  0.29467047  0.03984475  1
  O  O131  1  0.41990022  0.76744786  0.14358092  1
  O  O132  1  0.57354433  0.74738262  0.07852621  1
  O  O133  1  0.54297524  0.27460238  0.16022898  1
  O  O134  1  0.82367843  0.98548028  0.23543032  1
  O  O135  1  0.80507375  0.50429628  0.31860124  1
  O  O136  1  0.09512774  0.09528116  0.23562063  1
  O  O137  1  0.08003763  0.61756363  0.32009197  1
  O  O138  1  0.69650659  0.11307155  0.31997918  1
  O  O139  1  0.71058303  0.59602607  0.23552472  1
  O  O140  1  0.18578953  0.00579280  0.31813984  1
  O  O141  1  0.20824183  0.48481800  0.23544825  1
  O  O142  1  0.58525895  0.96756439  0.17624853  1
  O  O143  1  0.56363571  0.48726420  0.25964107  1
  O  O144  1  0.33246865  0.11356887  0.29458744  1
  O  O145  1  0.35475173  0.59379392  0.21114279  1
  O  O146  1  0.45711991  0.09515180  0.21071190  1
  O  O147  1  0.44140824  0.61270581  0.29500855  1
  O  O148  1  0.46202366  0.98532088  0.26026530  1
  O  O149  1  0.47796656  0.46828651  0.17579946  1
  O  O150  1  0.66177536  0.97260991  0.29324115  1
  O  O151  1  0.68694618  0.45579838  0.20666933  1
  O  O152  1  0.25622268  0.10879217  0.17776009  1
  O  O153  1  0.23181881  0.62564816  0.26416431  1
  O  O154  1  0.52393445  0.12095687  0.26391721  1
  O  O155  1  0.53032270  0.60785835  0.17903890  1
  O  O156  1  0.39417163  0.95998434  0.20695710  1
  O  O157  1  0.38781994  0.47366440  0.29181211  1
  O  O158  1  0.94421946  0.91521870  0.19091788  1
  O  O159  1  0.92300767  0.43490647  0.27379322  1
  O  O160  1  0.97358643  0.16601363  0.28005927  1
  O  O161  1  0.99546669  0.64592904  0.19713283  1
  O  O162  1  0.72052713  0.14530415  0.19714337  1
  O  O163  1  0.69573401  0.66440120  0.28042922  1
  O  O164  1  0.19882791  0.93531507  0.27384679  1
  O  O165  1  0.22302280  0.41673809  0.19053925  1
  O  O166  1  0.03713091  0.39657474  0.22293147  1
  O  O167  1  0.01938890  0.91442708  0.30743682  1
  O  O168  1  0.88199172  0.68412036  0.24803892  1
  O  O169  1  0.85658137  0.20988111  0.33022530  1
  O  O170  1  0.73224843  0.70525450  0.33105141  1
  O  O171  1  0.74590559  0.18616818  0.24815658  1
  O  O172  1  0.15014182  0.41842306  0.30532526  1
  O  O173  1  0.17268145  0.89464156  0.22277824  1
  O  O174  1  0.86451242  0.81642220  0.32696763  1
  O  O175  1  0.88414531  0.29420197  0.24255001  1
  O  O176  1  0.02351511  0.30560288  0.31146888  1
  O  O177  1  0.03423663  0.78664312  0.22829826  1
  O  O178  1  0.39045383  0.28572672  0.22792886  1
  O  O179  1  0.37576578  0.80640840  0.31085310  1
  O  O180  1  0.52849802  0.79501325  0.24298610  1
  O  O181  1  0.49877306  0.31358232  0.32722293  1
  O  O182  1  0.77600809  0.03592952  0.40259739  1
  O  O183  1  0.03412518  0.16745468  0.39379380  1
  O  O184  1  0.65098218  0.64233205  0.39636328  1
  O  O185  1  0.15992554  0.53080558  0.39929865  1
  O  O186  1  0.56102204  0.99927796  0.34718387  1
  O  O187  1  0.52696887  0.52821114  0.42930287  1
  O  O188  1  0.33136066  0.17863572  0.46607380  1
  O  O189  1  0.30721411  0.64156321  0.37946869  1
  O  O190  1  0.41307190  0.14474098  0.37728016  1
  O  O191  1  0.37800682  0.61017597  0.46924752  1
  O  O192  1  0.37585959  0.05470703  0.43114676  1
  O  O193  1  0.43041343  0.50356065  0.34678461  1
  O  O194  1  0.64321611  0.02172994  0.45315221  1
  O  O195  1  0.63326206  0.49069606  0.37818987  1
  O  O196  1  0.22834194  0.13462620  0.34540005  1
  O  O197  1  0.19524710  0.64987549  0.43096391  1
  O  O198  1  0.45868624  0.18074994  0.42721514  1
  O  O199  1  0.50774879  0.63233206  0.34672853  1
  O  O200  1  0.35795201  0.00711899  0.37944953  1
  O  O201  1  0.34388940  0.47467536  0.44959664  1
  O  O202  1  0.93103277  0.95244529  0.35989870  1
  O  O203  1  0.00271982  0.12824712  0.43510699  1
  O  O204  1  0.94884805  0.69285522  0.36474072  1
  O  O205  1  0.68732387  0.18437635  0.36359408  1
  O  O206  1  0.78132093  0.58399951  0.43703830  1
  O  O207  1  0.14923404  0.46009957  0.35601535  1
  O  O208  1  0.99168462  0.43947767  0.39402251  1
  O  O209  1  0.83469704  0.71893877  0.41611754  1
  O  O210  1  0.69358563  0.24613736  0.41307719  1
  O  O211  1  0.12267065  0.94873555  0.39803101  1
  O  O212  1  0.86548340  0.33595590  0.41996721  1
  O  O213  1  0.99590269  0.83262415  0.39886531  1
  O  O214  1  0.34537943  0.33351870  0.39256254  1
  O  O215  1  0.50238112  0.78659371  0.43108084  1
