# generated using pymatgen
data_Na21Zr14Si12(PO15)5
_symmetry_space_group_name_H-M   'P 1'
_cell_length_a   9.13268800
_cell_length_b   24.27702622
_cell_length_c   48.41287200
_cell_angle_alpha   90.00000000
_cell_angle_beta   90.00000000
_cell_angle_gamma   56.47052858
_symmetry_Int_Tables_number   1
_chemical_formula_structural   Na21Zr14Si12(PO15)5
_chemical_formula_sum   'Na42 Zr28 Si24 P10 O150'
_cell_volume   8947.74511956
_cell_formula_units_Z   2
loop_
 _symmetry_equiv_pos_site_id
 _symmetry_equiv_pos_as_xyz
  1  'x, y, z'
loop_
 _atom_site_type_symbol
 _atom_site_label
 _atom_site_symmetry_multiplicity
 _atom_site_fract_x
 _atom_site_fract_y
 _atom_site_fract_z
 _atom_site_occupancy
  Na  Na0  1  0.51031020  0.20803939  0.00324294  1
  Na  Na1  1  0.05804139  0.85910001  0.06496824  1
  Na  Na2  1  0.31980743  0.51809162  0.11329459  1
  Na  Na3  1  0.34230939  0.94460444  0.97815032  1
  Na  Na4  1  0.58266837  0.25360068  0.10867608  1
  Na  Na5  1  0.44915527  0.60148236  0.04805015  1
  Na  Na6  1  0.58423093  0.47306992  0.00556246  1
  Na  Na7  1  0.66903692  0.08353614  0.05917031  1
  Na  Na8  1  0.94589899  0.49802747  0.05949749  1
  Na  Na9  1  0.05554552  0.10806289  0.12808401  1
  Na  Na10  1  0.08514862  0.30322749  0.04970982  1
  Na  Na11  1  0.09742516  0.62978722  0.01319022  1
  Na  Na12  1  0.89773481  0.46120467  0.15129305  1
  Na  Na13  1  0.98870989  0.10221361  0.20197606  1
  Na  Na14  1  0.45127234  0.78462893  0.23491073  1
  Na  Na15  1  0.37529496  0.14594503  0.17087944  1
  Na  Na16  1  0.68407499  0.52336787  0.23828467  1
  Na  Na17  1  0.60833075  0.90994926  0.17571073  1
  Na  Na18  1  0.66360710  0.76006160  0.14226985  1
  Na  Na19  1  0.75265334  0.36187429  0.19943236  1
  Na  Na20  1  0.07203124  0.75235219  0.18674648  1
  Na  Na21  1  0.14009053  0.37601897  0.24634072  1
  Na  Na22  1  0.29763826  0.50936992  0.19099175  1
  Na  Na23  1  0.23289999  0.88458670  0.12772972  1
  Na  Na24  1  0.06308158  0.73947008  0.26644766  1
  Na  Na25  1  0.11847439  0.36770672  0.32406694  1
  Na  Na26  1  0.50985700  0.01421802  0.36366970  1
  Na  Na27  1  0.54245792  0.42013974  0.28762486  1
  Na  Na28  1  0.76840619  0.79695978  0.37841439  1
  Na  Na29  1  0.77416557  0.12867672  0.29589135  1
  Na  Na30  1  0.83144025  0.98061256  0.26127128  1
  Na  Na31  1  0.85515933  0.63080620  0.32871301  1
  Na  Na32  1  0.20898373  0.99873865  0.31142839  1
  Na  Na33  1  0.35898007  0.57947724  0.38845475  1
  Na  Na34  1  0.38101658  0.77712404  0.30928569  1
  Na  Na35  1  0.36506280  0.13300862  0.25059447  1
  Na  Na36  1  0.11588394  0.94084500  0.46076330  1
  Na  Na37  1  0.94201704  0.67566745  0.43601401  1
  Na  Na38  1  0.85441874  0.41499549  0.43169342  1
  Na  Na39  1  0.98648968  0.28606696  0.39051124  1
  Na  Na40  1  0.33942855  0.25523396  0.42411235  1
  Na  Na41  1  0.49234336  0.38849018  0.37837525  1
  Zr  Zr42  1  0.92317570  0.64172840  0.08262848  1
  Zr  Zr43  1  0.98542947  0.05841632  0.01509125  1
  Zr  Zr44  1  0.15457801  0.13081226  0.05549299  1
  Zr  Zr45  1  0.25047598  0.75064053  0.11260405  1
  Zr  Zr46  1  0.69825642  0.45057954  0.07380632  1
  Zr  Zr47  1  0.65081157  0.86505973  0.04088810  1
  Zr  Zr48  1  0.38069545  0.33901077  0.05087613  1
  Zr  Zr49  1  0.46829535  0.94280790  0.10870549  1
  Zr  Zr50  1  0.05760760  0.88259893  0.20356048  1
  Zr  Zr51  1  0.98897568  0.25951616  0.13677425  1
  Zr  Zr52  1  0.31557914  0.37762605  0.16958573  1
  Zr  Zr53  1  0.37885727  0.00223442  0.23346547  1
  Zr  Zr54  1  0.85700143  0.68584277  0.20394686  1
  Zr  Zr55  1  0.78639744  0.06039215  0.13888509  1
  Zr  Zr56  1  0.52097296  0.57409285  0.17546437  1
  Zr  Zr57  1  0.58211094  0.19865465  0.23352756  1
  Zr  Zr58  1  0.19295849  0.13292581  0.32552165  1
  Zr  Zr59  1  0.12374637  0.50719805  0.26803459  1
  Zr  Zr60  1  0.44751624  0.62590488  0.30072838  1
  Zr  Zr61  1  0.51517811  0.24509320  0.35458898  1
  Zr  Zr62  1  0.96593489  0.94315690  0.32904675  1
  Zr  Zr63  1  0.91951258  0.31083254  0.26196579  1
  Zr  Zr64  1  0.65135431  0.82386910  0.29830513  1
  Zr  Zr65  1  0.74082909  0.43515004  0.36372323  1
  Zr  Zr66  1  0.28251631  0.75291098  0.38226893  1
  Zr  Zr67  1  0.46160501  0.82093695  0.42348584  1
  Zr  Zr68  1  0.05559501  0.54764812  0.38688784  1
  Zr  Zr69  1  0.80347379  0.02041674  0.39805429  1
  Si  Si70  1  0.12456117  0.35925952  0.10681055  1
  Si  Si71  1  0.06849719  0.73292486  0.04877077  1
  Si  Si72  1  0.04511839  0.02480371  0.08071496  1
  Si  Si73  1  0.80813155  0.28516462  0.07066934  1
  Si  Si74  1  0.27409474  0.50172967  0.04524916  1
  Si  Si75  1  0.37524915  0.10622643  0.10953682  1
  Si  Si76  1  0.26110830  0.60605347  0.23703328  1
  Si  Si77  1  0.20525542  0.97459302  0.17049631  1
  Si  Si78  1  0.11649825  0.65473391  0.14359442  1
  Si  Si79  1  0.17708022  0.27897951  0.20042115  1
  Si  Si80  1  0.95179699  0.52266448  0.20225922  1
  Si  Si81  1  0.88285697  0.89555009  0.13830353  1
  Si  Si82  1  0.42590585  0.73769728  0.17681128  1
  Si  Si83  1  0.48735213  0.36198406  0.23548757  1
  Si  Si84  1  0.39113533  0.85823759  0.35752634  1
  Si  Si85  1  0.32245700  0.23060610  0.29381645  1
  Si  Si86  1  0.23223710  0.91045778  0.26693961  1
  Si  Si87  1  0.31319645  0.52608683  0.33082201  1
  Si  Si88  1  0.06044645  0.77875218  0.32837904  1
  Si  Si89  1  0.01310049  0.14774497  0.26064698  1
  Si  Si90  1  0.55839918  0.98812861  0.29724509  1
  Si  Si91  1  0.62981124  0.60044576  0.36679394  1
  Si  Si92  1  0.37836536  0.15170313  0.38883077  1
  Si  Si93  1  0.16406060  0.38460051  0.39192887  1
  P  P94  1  0.64681311  0.59043604  0.10787034  1
  P  P95  1  0.52180672  0.79460176  0.08355004  1
  P  P96  1  0.77172371  0.83721121  0.22911770  1
  P  P97  1  0.70951933  0.21372547  0.16406127  1
  P  P98  1  0.60989937  0.42142774  0.14621150  1
  P  P99  1  0.66464551  0.04743626  0.20789211  1
  P  P100  1  0.91770300  0.09151880  0.35339756  1
  P  P101  1  0.82743999  0.46389533  0.29130134  1
  P  P102  1  0.72844916  0.67099684  0.27332630  1
  P  P103  1  0.79963687  0.29342800  0.33050492  1
  O  O104  1  0.96034807  0.41755458  0.08857398  1
  O  O105  1  0.92045552  0.81069879  0.03974619  1
  O  O106  1  0.21733396  0.96646849  0.09642184  1
  O  O107  1  0.82590913  0.26677044  0.10346615  1
  O  O108  1  0.30539289  0.52230984  0.01531223  1
  O  O109  1  0.37587046  0.11543003  0.07517348  1
  O  O110  1  0.73369128  0.11904304  0.01833783  1
  O  O111  1  0.67538965  0.72252282  0.09116156  1
  O  O112  1  0.48794952  0.66174923  0.10641963  1
  O  O113  1  0.62817012  0.44394750  0.11766506  1
  O  O114  1  0.54660634  0.81109299  0.05375971  1
  O  O115  1  0.31138905  0.29923972  0.02524023  1
  O  O116  1  0.56555559  0.93325300  0.07034278  1
  O  O117  1  0.81500345  0.58641873  0.09757745  1
  O  O118  1  0.34518312  0.80076727  0.08582009  1
  O  O119  1  0.61249055  0.54947897  0.08773568  1
  O  O120  1  0.53184166  0.83898782  0.10537997  1
  O  O121  1  0.07967207  0.30522687  0.11567457  1
  O  O122  1  0.95767169  0.69774085  0.05699456  1
  O  O123  1  0.05997107  0.09094470  0.07806938  1
  O  O124  1  0.78660356  0.35477481  0.06316565  1
  O  O125  1  0.55955091  0.89999983  0.00665563  1
  O  O126  1  0.25897283  0.43612667  0.04419580  1
  O  O127  1  0.38103705  0.03886567  0.11550299  1
  O  O128  1  0.07717269  0.56088637  0.05817900  1
  O  O129  1  0.05983737  0.00847953  0.98283676  1
  O  O130  1  0.99019829  0.22915613  0.05400837  1
  O  O131  1  0.04160178  0.84868882  0.11646271  1
  O  O132  1  0.73046585  0.48122370  0.03921174  1
  O  O133  1  0.86388072  0.05654206  0.09879357  1
  O  O134  1  0.30100659  0.32115214  0.08640461  1
  O  O135  1  0.21266352  0.68547629  0.02628036  1
  O  O136  1  0.06887574  0.62960696  0.11490687  1
  O  O137  1  0.01696189  0.00261690  0.05039818  1
  O  O138  1  0.14399575  0.09702633  0.02052758  1
  O  O139  1  0.15629140  0.73978116  0.07715239  1
  O  O140  1  0.42678163  0.48780484  0.06764280  1
  O  O141  1  0.53184365  0.10660320  0.12486160  1
  O  O142  1  0.63961815  0.28498880  0.05831224  1
  O  O143  1  0.08366009  0.67036616  0.22330647  1
  O  O144  1  0.02558340  0.04010328  0.15733599  1
  O  O145  1  0.29617333  0.58872019  0.15555938  1
  O  O146  1  0.35419336  0.21472136  0.21425955  1
  O  O147  1  0.99169919  0.49714215  0.23441539  1
  O  O148  1  0.93196382  0.86804969  0.17039121  1
  O  O149  1  0.38102810  0.76768231  0.14550604  1
  O  O150  1  0.44802016  0.38756150  0.20331811  1
  O  O151  1  0.76509539  0.34998556  0.15254054  1
  O  O152  1  0.82428068  0.97633949  0.21332524  1
  O  O153  1  0.61072372  0.90791364  0.22351994  1
  O  O154  1  0.54581293  0.28380722  0.15751838  1
  O  O155  1  0.73601739  0.69228985  0.24352620  1
  O  O156  1  0.67767445  0.07350433  0.17956337  1
  O  O157  1  0.67046911  0.56319648  0.13760645  1
  O  O158  1  0.70129007  0.19238404  0.19383032  1
  O  O159  1  0.94429696  0.83524092  0.22811422  1
  O  O160  1  0.88252416  0.21106899  0.16062173  1
  O  O161  1  0.43022698  0.42800254  0.14796074  1
  O  O162  1  0.49157890  0.04968703  0.20834972  1
  O  O163  1  0.77453464  0.79160691  0.20623348  1
  O  O164  1  0.71484111  0.16554900  0.14230039  1
  O  O165  1  0.61633505  0.46574311  0.16917018  1
  O  O166  1  0.66252186  0.09241832  0.23106568  1
  O  O167  1  0.22069605  0.55031482  0.24616317  1
  O  O168  1  0.15616351  0.92164107  0.18013949  1
  O  O169  1  0.14644413  0.71359801  0.13713982  1
  O  O170  1  0.21819421  0.33453447  0.19131516  1
  O  O171  1  0.94621988  0.59089800  0.19971199  1
  O  O172  1  0.85700757  0.96801921  0.13732256  1
  O  O173  1  0.43839025  0.66738971  0.17835018  1
  O  O174  1  0.49363291  0.29351337  0.23776433  1
  O  O175  1  0.27128148  0.78642929  0.19897167  1
  O  O176  1  0.18785783  0.16668544  0.12336107  1
  O  O177  1  0.10375751  0.47004488  0.18058216  1
  O  O178  1  0.16797077  0.09828317  0.23867755  1
  O  O179  1  0.94996764  0.68716519  0.16490201  1
  O  O180  1  0.01747435  0.31601633  0.22375817  1
  O  O181  1  0.42003678  0.56960398  0.21355232  1
  O  O182  1  0.36822598  0.93621121  0.14883925  1
  O  O183  1  0.16782051  0.88693314  0.24035195  1
  O  O184  1  0.11760517  0.25417891  0.17364865  1
  O  O185  1  0.17526884  0.38601017  0.13382315  1
  O  O186  1  0.26556522  0.99962057  0.19705261  1
  O  O187  1  0.60998297  0.72777437  0.18707233  1
  O  O188  1  0.67295417  0.35305987  0.24435478  1
  O  O189  1  0.76536679  0.53179588  0.19375568  1
  O  O190  1  0.70078595  0.90224450  0.13023503  1
  O  O191  1  0.21245320  0.91806563  0.34356504  1
  O  O192  1  0.14433159  0.29667830  0.28148453  1
  O  O193  1  0.41269208  0.84428582  0.27954914  1
  O  O194  1  0.47797025  0.46809606  0.34908703  1
  O  O195  1  0.06067124  0.76828465  0.36265701  1
  O  O196  1  0.05627453  0.11969336  0.29219191  1
  O  O197  1  0.51269789  0.01582096  0.26540154  1
  O  O198  1  0.61012265  0.61889758  0.33400139  1
  O  O199  1  0.89252467  0.60102298  0.27989401  1
  O  O200  1  0.96008054  0.22272943  0.33357928  1
  O  O201  1  0.76119165  0.16305583  0.34573238  1
  O  O202  1  0.67158206  0.53529096  0.28504270  1
  O  O203  1  0.84305521  0.95953531  0.36654186  1
  O  O204  1  0.77977484  0.31853025  0.30045481  1
  O  O205  1  0.76090859  0.81138523  0.25765826  1
  O  O206  1  0.80893044  0.44103579  0.31975622  1
  O  O207  1  0.09282834  0.08543312  0.35009333  1
  O  O208  1  0.00653048  0.45787142  0.28979642  1
  O  O209  1  0.55564003  0.67368842  0.27699767  1
  O  O210  1  0.62967309  0.29799816  0.34008656  1
  O  O211  1  0.90585681  0.04617841  0.33223034  1
  O  O212  1  0.82282792  0.41933084  0.26829401  1
  O  O213  1  0.72371672  0.71923749  0.29501483  1
  O  O214  1  0.82784876  0.33645658  0.35030945  1
  O  O215  1  0.37819642  0.79152852  0.35910693  1
  O  O216  1  0.28967471  0.17268578  0.30053287  1
  O  O217  1  0.28061320  0.96371316  0.25739391  1
  O  O218  1  0.35636904  0.58054367  0.32191195  1
  O  O219  1  0.05113361  0.84716029  0.32327262  1
  O  O220  1  0.00153697  0.21777514  0.25831809  1
  O  O221  1  0.58247873  0.91621691  0.29902414  1
  O  O222  1  0.65460486  0.53038284  0.37438245  1
  O  O223  1  0.39983532  0.03557440  0.31891025  1
  O  O224  1  0.33486227  0.41436092  0.25718338  1
  O  O225  1  0.24689853  0.71933571  0.31390435  1
  O  O226  1  0.36015361  0.32722067  0.37840286  1
  O  O227  1  0.07365312  0.94760493  0.28949284  1
  O  O228  1  0.13648566  0.56382713  0.35113450  1
  O  O229  1  0.56542524  0.82995148  0.33797331  1
  O  O230  1  0.48995484  0.19722576  0.27258769  1
  O  O231  1  0.31285481  0.13617406  0.35989775  1
  O  O232  1  0.26407466  0.49874225  0.30381824  1
  O  O233  1  0.32015944  0.63100463  0.26380757  1
  O  O234  1  0.37037836  0.25648759  0.32225230  1
  O  O235  1  0.73824346  0.98206869  0.30640140  1
  O  O236  1  0.79679895  0.60184234  0.37890891  1
  O  O237  1  0.90338126  0.77857874  0.31307845  1
  O  O238  1  0.82936845  0.15704093  0.25036489  1
  O  O239  1  0.53725758  0.07757957  0.40026885  1
  O  O240  1  0.13411514  0.36250414  0.42164452  1
  O  O241  1  0.71256222  0.75983779  0.41955961  1
  O  O242  1  0.13011078  0.58580921  0.41246303  1
  O  O243  1  0.89769725  0.07575481  0.38358163  1
  O  O244  1  0.47846330  0.19125764  0.38083073  1
  O  O245  1  0.17605007  0.45081981  0.39379685  1
  O  O246  1  0.90415221  0.98123775  0.43137346  1
  O  O247  1  0.44727041  0.65495900  0.38368983  1
  O  O248  1  0.39447855  0.86975328  0.45603932  1
  O  O249  1  0.22452242  0.19946338  0.40995094  1
  O  O250  1  0.70778930  0.40530389  0.39856543  1
  O  O251  1  0.29635787  0.78537538  0.41735834  1
  O  O252  1  0.42965935  0.87553202  0.38799864  1
  O  O253  1  0.01082942  0.39892124  0.36961265  1
