# generated using pymatgen
data_Na12Zr7Si7(PO11)4
_symmetry_space_group_name_H-M   'P 1'
_cell_length_a   9.04129400
_cell_length_b   9.04129366
_cell_length_c   45.30870300
_cell_angle_alpha   90.00000000
_cell_angle_beta   90.00000000
_cell_angle_gamma   60.19909096
_symmetry_Int_Tables_number   1
_chemical_formula_structural   Na12Zr7Si7(PO11)4
_chemical_formula_sum   'Na24 Zr14 Si14 P8 O88'
_cell_volume   3213.96547614
_cell_formula_units_Z   2
loop_
 _symmetry_equiv_pos_site_id
 _symmetry_equiv_pos_as_xyz
  1  'x, y, z'
loop_
 _atom_site_type_symbol
 _atom_site_label
 _atom_site_symmetry_multiplicity
 _atom_site_fract_x
 _atom_site_fract_y
 _atom_site_fract_z
 _atom_site_occupancy
  Na  Na0  1  0.60234831  0.04347311  0.05119407  1
  Na  Na1  1  0.59427686  0.39687368  0.08544628  1
  Na  Na2  1  0.43879963  0.27836827  0.99128623  1
  Na  Na3  1  0.06497553  0.81917628  0.13165290  1
  Na  Na4  1  0.31655236  0.10375522  0.11029727  1
  Na  Na5  1  0.93159474  0.14279571  0.01925462  1
  Na  Na6  1  0.98797625  0.23018442  0.21854339  1
  Na  Na7  1  0.93126954  0.66956939  0.24921943  1
  Na  Na8  1  0.52953464  0.76222245  0.16356033  1
  Na  Na9  1  0.39948729  0.15277042  0.30651198  1
  Na  Na10  1  0.64762094  0.43194343  0.27885344  1
  Na  Na11  1  0.26933809  0.49018279  0.19038426  1
  Na  Na12  1  0.31083921  0.57320186  0.39418520  1
  Na  Na13  1  0.25361741  0.01096340  0.42444095  1
  Na  Na14  1  0.84008956  0.09072567  0.33648114  1
  Na  Na15  1  0.71099811  0.47955752  0.47947969  1
  Na  Na16  1  0.97178422  0.75216858  0.45283400  1
  Na  Na17  1  0.59429994  0.81069707  0.36425132  1
  Na  Na18  1  0.64747316  0.84362120  0.55766459  1
  Na  Na19  1  0.63975328  0.19647253  0.59186626  1
  Na  Na20  1  0.17515743  0.42232006  0.51127784  1
  Na  Na21  1  0.80291368  0.96222426  0.65185722  1
  Na  Na22  1  0.31003856  0.09810851  0.62390486  1
  Na  Na23  1  0.92518833  0.13744612  0.53283492  1
  Zr  Zr24  1  0.61485629  0.13562524  0.13942519  1
  Zr  Zr25  1  0.97151052  0.45779656  0.15742489  1
  Zr  Zr26  1  0.31473981  0.80869706  0.06943662  1
  Zr  Zr27  1  0.95163713  0.44130011  0.05355181  1
  Zr  Zr28  1  0.94943387  0.45766042  0.31213295  1
  Zr  Zr29  1  0.29235395  0.78474305  0.33115688  1
  Zr  Zr30  1  0.62392749  0.12929028  0.24475078  1
  Zr  Zr31  1  0.29307696  0.78760061  0.22567863  1
  Zr  Zr32  1  0.26997236  0.78391646  0.48573019  1
  Zr  Zr33  1  0.62683144  0.10563359  0.50377105  1
  Zr  Zr34  1  0.94869712  0.45458685  0.41752573  1
  Zr  Zr35  1  0.61766905  0.11284136  0.39843298  1
  Zr  Zr36  1  0.28997938  0.79940430  0.58962769  1
  Zr  Zr37  1  0.92678218  0.43223740  0.57371193  1
  Si  Si38  1  0.29366672  0.06156551  0.02935046  1
  Si  Si39  1  0.96236992  0.17149369  0.10636867  1
  Si  Si40  1  0.24049707  0.47698502  0.10487286  1
  Si  Si41  1  0.63183332  0.40984514  0.19339281  1
  Si  Si42  1  0.28259069  0.50886069  0.27596039  1
  Si  Si43  1  0.34247634  0.12202413  0.19029018  1
  Si  Si44  1  0.57087511  0.79785285  0.28064536  1
  Si  Si45  1  0.95924976  0.73377109  0.36726966  1
  Si  Si46  1  0.60939811  0.83197201  0.44968747  1
  Si  Si47  1  0.67081292  0.44454744  0.36258110  1
  Si  Si48  1  0.89923098  0.11990040  0.45287736  1
  Si  Si49  1  0.27925873  0.06980101  0.53686833  1
  Si  Si50  1  0.94774739  0.17937914  0.61383023  1
  Si  Si51  1  0.00115858  0.76392704  0.53823780  1
  P  P52  1  0.67973551  0.75498612  0.10278262  1
  P  P53  1  0.59643643  0.45459159  0.02242838  1
  P  P54  1  0.99670470  0.08361900  0.27850233  1
  P  P55  1  0.91671997  0.83476320  0.19181630  1
  P  P56  1  0.32495215  0.40677234  0.45141462  1
  P  P57  1  0.24528303  0.15872730  0.36479613  1
  P  P58  1  0.64521272  0.78604059  0.62074550  1
  P  P59  1  0.56157830  0.48624238  0.54040795  1
  O  O60  1  0.37479121  0.00573254  0.06339923  1
  O  O61  1  0.89275633  0.29817769  0.07740955  1
  O  O62  1  0.44677161  0.06451107  0.15883789  1
  O  O63  1  0.13846943  0.52520446  0.13689607  1
  O  O64  1  0.51046542  0.48491937  0.99282374  1
  O  O65  1  0.77792415  0.64234614  0.12975782  1
  O  O66  1  0.48406451  0.59210145  0.04655877  1
  O  O67  1  0.77275478  0.68374536  0.07313955  1
  O  O68  1  0.76880090  0.46091274  0.02211628  1
  O  O69  1  0.50552033  0.75760925  0.10355222  1
  O  O70  1  0.64203068  0.27474216  0.03507946  1
  O  O71  1  0.65414859  0.93618527  0.10691107  1
  O  O72  1  0.20761222  0.93176260  0.02984246  1
  O  O73  1  0.03142657  0.25718210  0.13053710  1
  O  O74  1  0.13337429  0.43786543  0.07980905  1
  O  O75  1  0.42743603  0.30196267  0.11017815  1
  O  O76  1  0.11821170  0.98338355  0.09788621  1
  O  O77  1  0.12249676  0.25679753  0.02768173  1
  O  O78  1  0.79743530  0.16060693  0.11749082  1
  O  O79  1  0.43864694  0.05039356  0.00803035  1
  O  O80  1  0.26630138  0.63513330  0.09416339  1
  O  O81  1  0.69069052  0.30076683  0.22430256  1
  O  O82  1  0.22796969  0.61376160  0.24463602  1
  O  O83  1  0.77567280  0.39221141  0.33120699  1
  O  O84  1  0.46569039  0.85039110  0.31197861  1
  O  O85  1  0.82149031  0.93859745  0.16425337  1
  O  O86  1  0.08718459  0.98308870  0.30670930  1
  O  O87  1  0.82153017  0.92024732  0.22072581  1
  O  O88  1  0.09437070  0.99156587  0.25020313  1
  O  O89  1  0.09781682  0.81356823  0.19174855  1
  O  O90  1  0.81528409  0.10514690  0.27844638  1
  O  O91  1  0.93343357  0.65503489  0.19065268  1
  O  O92  1  0.98049630  0.26256362  0.27862868  1
  O  O93  1  0.57027572  0.31641469  0.16914778  1
  O  O94  1  0.33195037  0.60893454  0.30086650  1
  O  O95  1  0.44873454  0.16421187  0.21487604  1
  O  O96  1  0.47007617  0.75041452  0.25554043  1
  O  O97  1  0.75907872  0.62562941  0.28397884  1
  O  O98  1  0.15804243  0.29856078  0.18690483  1
  O  O99  1  0.45485301  0.32121853  0.27234823  1
  O  O100  1  0.46421212  0.60045056  0.19768263  1
  O  O101  1  0.12480322  0.48333830  0.28699711  1
  O  O102  1  0.78968157  0.43232919  0.18101289  1
  O  O103  1  0.59555605  0.95704300  0.27019822  1
  O  O104  1  0.31063409  0.96772879  0.20078842  1
  O  O105  1  0.01326872  0.62911539  0.39863978  1
  O  O106  1  0.55113390  0.94062900  0.41871219  1
  O  O107  1  0.10256986  0.71671163  0.50615484  1
  O  O108  1  0.79485405  0.17702035  0.48433256  1
  O  O109  1  0.15402568  0.25883363  0.33659484  1
  O  O110  1  0.42014414  0.30260585  0.47894415  1
  O  O111  1  0.14805550  0.25079124  0.39312207  1
  O  O112  1  0.41967249  0.32110915  0.42249261  1
  O  O113  1  0.42647621  0.13770208  0.36467164  1
  O  O114  1  0.14354273  0.42868685  0.45154708  1
  O  O115  1  0.26202406  0.97950500  0.36480365  1
  O  O116  1  0.30907503  0.58618257  0.45255534  1
  O  O117  1  0.91009206  0.63346797  0.34237848  1
  O  O118  1  0.67098635  0.92562472  0.47390181  1
  O  O119  1  0.77231849  0.49151931  0.38758977  1
  O  O120  1  0.79292684  0.07755083  0.42831884  1
  O  O121  1  0.08383115  0.94343157  0.45621257  1
  O  O122  1  0.48279388  0.61700661  0.35929989  1
  O  O123  1  0.77687410  0.64115629  0.44550161  1
  O  O124  1  0.78699158  0.92144967  0.37077103  1
  O  O125  1  0.45153523  0.80953234  0.46205650  1
  O  O126  1  0.11746108  0.75882197  0.35633189  1
  O  O127  1  0.93058278  0.27442487  0.44233114  1
  O  O128  1  0.64574487  0.28565119  0.37304394  1
  O  O129  1  0.34843283  0.94305313  0.56582297  1
  O  O130  1  0.86657730  0.23536372  0.57976974  1
  O  O131  1  0.46306980  0.59911250  0.51347337  1
  O  O132  1  0.73133890  0.75552693  0.65033403  1
  O  O133  1  0.46900635  0.55704721  0.57009541  1
  O  O134  1  0.75753772  0.64871605  0.59657741  1
  O  O135  1  0.73560702  0.48393737  0.53963559  1
  O  O136  1  0.47284991  0.77975131  0.62108086  1
  O  O137  1  0.58751647  0.30493996  0.53624037  1
  O  O138  1  0.59965319  0.96598989  0.60813945  1
  O  O139  1  0.21029571  0.98430476  0.51262810  1
  O  O140  1  0.03388086  0.30918148  0.61333795  1
  O  O141  1  0.10866434  0.80239154  0.56331250  1
  O  O142  1  0.81432265  0.93916897  0.53299569  1
  O  O143  1  0.11887358  0.98398285  0.61543835  1
  O  O144  1  0.12322580  0.25793784  0.54524683  1
  O  O145  1  0.80300807  0.19034202  0.63518069  1
  O  O146  1  0.44454098  0.08008796  0.52574028  1
  O  O147  1  0.97564956  0.60547819  0.54888421  1
