# generated using pymatgen
data_Na17Zr12Si10(PO13)5
_symmetry_space_group_name_H-M   'P 1'
_cell_length_a   9.27295600
_cell_length_b   15.80284349
_cell_length_c   45.79685300
_cell_angle_alpha   90.00000000
_cell_angle_beta   90.00000000
_cell_angle_gamma   56.43985526
_symmetry_Int_Tables_number   1
_chemical_formula_structural   Na17Zr12Si10(PO13)5
_chemical_formula_sum   'Na34 Zr24 Si20 P10 O130'
_cell_volume   5592.34006858
_cell_formula_units_Z   2
loop_
 _symmetry_equiv_pos_site_id
 _symmetry_equiv_pos_as_xyz
  1  'x, y, z'
loop_
 _atom_site_type_symbol
 _atom_site_label
 _atom_site_symmetry_multiplicity
 _atom_site_fract_x
 _atom_site_fract_y
 _atom_site_fract_z
 _atom_site_occupancy
  Na  Na0  1  0.51438784  0.44762529  0.99563923  1
  Na  Na1  1  0.59519778  0.79008856  0.01636008  1
  Na  Na2  1  0.99318189  0.16100727  0.04839250  1
  Na  Na3  1  0.75094005  0.99511212  0.00013397  1
  Na  Na4  1  0.68764115  0.43003482  0.06349748  1
  Na  Na5  1  0.46929124  0.10784571  0.11626729  1
  Na  Na6  1  0.68089447  0.23288284  0.16520908  1
  Na  Na7  1  0.05730240  0.70761896  0.11504070  1
  Na  Na8  1  0.83660053  0.58205015  0.16776909  1
  Na  Na9  1  0.76515486  0.90649055  0.16300044  1
  Na  Na10  1  0.22773645  0.42205787  0.10383496  1
  Na  Na11  1  0.35520338  0.58106550  0.20009482  1
  Na  Na12  1  0.57953305  0.72126409  0.25632860  1
  Na  Na13  1  0.15736999  0.23818541  0.19883147  1
  Na  Na14  1  0.94062505  0.09462153  0.25420258  1
  Na  Na15  1  0.76268976  0.40375721  0.25852483  1
  Na  Na16  1  0.26484924  0.90538836  0.20320478  1
  Na  Na17  1  0.43549474  0.09330902  0.30871918  1
  Na  Na18  1  0.64975831  0.23749955  0.36395206  1
  Na  Na19  1  0.08926232  0.72517233  0.30771434  1
  Na  Na20  1  0.93535517  0.58702843  0.35491195  1
  Na  Na21  1  0.75238571  0.91229307  0.36126056  1
  Na  Na22  1  0.27246436  0.40038390  0.30489170  1
  Na  Na23  1  0.43593616  0.59287587  0.41033253  1
  Na  Na24  1  0.65003593  0.74305758  0.47161988  1
  Na  Na25  1  0.17988432  0.23848197  0.39825183  1
  Na  Na26  1  0.97974877  0.12749810  0.44429850  1
  Na  Na27  1  0.73790328  0.41362721  0.46158738  1
  Na  Na28  1  0.27268842  0.90170748  0.40160737  1
  Na  Na29  1  0.44180981  0.16340669  0.52831165  1
  Na  Na30  1  0.19461134  0.41740250  0.57279066  1
  Na  Na31  1  0.10291071  0.72282424  0.50838816  1
  Na  Na32  1  0.73494106  0.74696242  0.54805225  1
  Na  Na33  1  0.25190695  0.41308932  0.50159310  1
  Zr  Zr34  1  0.93271302  0.52836591  0.03779556  1
  Zr  Zr35  1  0.12813956  0.81766277  0.04829181  1
  Zr  Zr36  1  0.51736052  0.28165206  0.03704652  1
  Zr  Zr37  1  0.43979692  0.06042840  0.04123713  1
  Zr  Zr38  1  0.96109903  0.00501221  0.13176896  1
  Zr  Zr39  1  0.05405954  0.30830197  0.12694699  1
  Zr  Zr40  1  0.56324334  0.81012194  0.13557661  1
  Zr  Zr41  1  0.44655639  0.50970101  0.12903484  1
  Zr  Zr42  1  0.95241566  0.50753885  0.23372514  1
  Zr  Zr43  1  0.06796812  0.80734221  0.23267060  1
  Zr  Zr44  1  0.56048996  0.30791187  0.23271025  1
  Zr  Zr45  1  0.45095856  0.01040437  0.23072423  1
  Zr  Zr46  1  0.95032412  0.00996328  0.33262672  1
  Zr  Zr47  1  0.06072679  0.30780829  0.33073069  1
  Zr  Zr48  1  0.56884157  0.80518233  0.33314173  1
  Zr  Zr49  1  0.45024270  0.50794864  0.33246852  1
  Zr  Zr50  1  0.93850564  0.51240747  0.43419258  1
  Zr  Zr51  1  0.06339977  0.81074821  0.43067635  1
  Zr  Zr52  1  0.56373287  0.30566238  0.43599562  1
  Zr  Zr53  1  0.45504953  0.00902441  0.42962886  1
  Zr  Zr54  1  0.91012189  0.99315152  0.51221386  1
  Zr  Zr55  1  0.00763097  0.33520626  0.52608935  1
  Zr  Zr56  1  0.38049686  0.77733299  0.53383241  1
  Zr  Zr57  1  0.44126395  0.50920086  0.53147703  1
  Si  Si58  1  0.27001550  0.56080528  0.05723552  1
  Si  Si59  1  0.14572906  0.30183064  0.05293450  1
  Si  Si60  1  0.27740142  0.05244884  0.15888169  1
  Si  Si61  1  0.73797649  0.26142366  0.10252662  1
  Si  Si62  1  0.24667864  0.76636585  0.16036679  1
  Si  Si63  1  0.75515032  0.55974506  0.10548336  1
  Si  Si64  1  0.26938139  0.54840965  0.26068045  1
  Si  Si65  1  0.74525301  0.76759945  0.20634061  1
  Si  Si66  1  0.24505230  0.26740744  0.26000455  1
  Si  Si67  1  0.77604804  0.04798936  0.20438066  1
  Si  Si68  1  0.27008884  0.04929479  0.35922905  1
  Si  Si69  1  0.74514250  0.26799394  0.30383780  1
  Si  Si70  1  0.24460097  0.76628223  0.35967803  1
  Si  Si71  1  0.76958297  0.54742722  0.30456222  1
  Si  Si72  1  0.26243608  0.55153084  0.45998468  1
  Si  Si73  1  0.74263486  0.76660338  0.40413079  1
  Si  Si74  1  0.24100684  0.26593638  0.46016034  1
  Si  Si75  1  0.77520427  0.05196732  0.40420379  1
  Si  Si76  1  0.73343848  0.25456599  0.50750929  1
  Si  Si77  1  0.77246252  0.54772232  0.50763745  1
  P  P78  1  0.76235781  0.90485744  0.09410948  1
  P  P79  1  0.28036124  0.92263837  0.07406633  1
  P  P80  1  0.75663381  0.40705614  0.18837695  1
  P  P81  1  0.25552721  0.40704505  0.17257416  1
  P  P82  1  0.75739491  0.90960684  0.29077000  1
  P  P83  1  0.25996487  0.90965193  0.27395227  1
  P  P84  1  0.75727798  0.40369794  0.39141312  1
  P  P85  1  0.25290158  0.40607165  0.37568116  1
  P  P86  1  0.74351438  0.89746604  0.49145616  1
  P  P87  1  0.24267447  0.91787872  0.47039089  1
  O  O88  1  0.43644183  0.45687755  0.04321627  1
  O  O89  1  0.94313467  0.39013919  0.04566761  1
  O  O90  1  0.10229578  0.94488295  0.08586275  1
  O  O91  1  0.92855938  0.84194879  0.07567013  1
  O  O92  1  0.41939875  0.86689735  0.09757498  1
  O  O93  1  0.59723948  0.96762439  0.07585249  1
  O  O94  1  0.32542620  0.84844107  0.04773600  1
  O  O95  1  0.59901338  0.28785707  0.00095975  1
  O  O96  1  0.26054922  0.02081508  0.06336142  1
  O  O97  1  0.08712849  0.57605833  0.04844115  1
  O  O98  1  0.01478610  0.87514943  0.01419174  1
  O  O99  1  0.24523676  0.35597384  0.04111671  1
  O  O100  1  0.53110850  0.96969678  0.01016684  1
  O  O101  1  0.77032740  0.58497402  0.07189714  1
  O  O102  1  0.19628257  0.27868608  0.08884322  1
  O  O103  1  0.71096593  0.25554809  0.06729517  1
  O  O104  1  0.28072240  0.55195942  0.09404929  1
  O  O105  1  0.78653544  0.61221008  0.00849695  1
  O  O106  1  0.26246093  0.66422189  0.04802185  1
  O  O107  1  0.55156567  0.14059952  0.03766610  1
  O  O108  1  0.19576468  0.19619605  0.03721057  1
  O  O109  1  0.46927740  0.96396869  0.14712472  1
  O  O110  1  0.56152480  0.35479145  0.11827438  1
  O  O111  1  0.06625595  0.85346791  0.14429202  1
  O  O112  1  0.93838998  0.46345250  0.11931369  1
  O  O113  1  0.09533567  0.46511163  0.19299564  1
  O  O114  1  0.91672196  0.34352432  0.16836989  1
  O  O115  1  0.42156651  0.34413284  0.19154212  1
  O  O116  1  0.59069413  0.46855746  0.16967388  1
  O  O117  1  0.76772438  0.98370831  0.11346091  1
  O  O118  1  0.24030489  0.33394159  0.15220433  1
  O  O119  1  0.75983662  0.82621311  0.11384422  1
  O  O120  1  0.26456174  0.48652954  0.15417160  1
  O  O121  1  0.13602725  0.02490779  0.14965767  1
  O  O122  1  0.89004626  0.28492926  0.10622728  1
  O  O123  1  0.38752616  0.79775875  0.15776905  1
  O  O124  1  0.61570428  0.52571686  0.10734768  1
  O  O125  1  0.80865115  0.04840220  0.16898701  1
  O  O126  1  0.22063975  0.76163121  0.19586764  1
  O  O127  1  0.73219136  0.76510992  0.17079706  1
  O  O128  1  0.28139510  0.05745087  0.19503142  1
  O  O129  1  0.79970648  0.15451836  0.11872321  1
  O  O130  1  0.22164259  0.16308781  0.14503803  1
  O  O131  1  0.69553949  0.65910234  0.12545267  1
  O  O132  1  0.30530341  0.65578994  0.14650963  1
  O  O133  1  0.44719521  0.46194549  0.24361142  1
  O  O134  1  0.55926174  0.85578325  0.22093959  1
  O  O135  1  0.06325080  0.35328410  0.24399756  1
  O  O136  1  0.95545749  0.96192525  0.22101004  1
  O  O137  1  0.09273751  0.96752525  0.29238380  1
  O  O138  1  0.92662143  0.85237515  0.27287774  1
  O  O139  1  0.42396653  0.85186700  0.29319441  1
  O  O140  1  0.59524995  0.96768909  0.27110156  1
  O  O141  1  0.77466812  0.48264780  0.20702679  1
  O  O142  1  0.26213645  0.82887025  0.25408809  1
  O  O143  1  0.74378549  0.33209366  0.20834743  1
  O  O144  1  0.26027297  0.98947702  0.25410999  1
  O  O145  1  0.12105374  0.52357622  0.25499491  1
  O  O146  1  0.89069454  0.79293701  0.21326134  1
  O  O147  1  0.38874691  0.29567388  0.25449816  1
  O  O148  1  0.62657846  0.02324859  0.20871700  1
  O  O149  1  0.78465868  0.54613839  0.26860349  1
  O  O150  1  0.22901285  0.26549524  0.29571949  1
  O  O151  1  0.72495437  0.26561855  0.26815564  1
  O  O152  1  0.28956178  0.54757176  0.29634037  1
  O  O153  1  0.79933934  0.65612134  0.21894392  1
  O  O154  1  0.20998783  0.65930061  0.24771473  1
  O  O155  1  0.71406407  0.16038390  0.21714743  1
  O  O156  1  0.30993711  0.15747268  0.24568077  1
  O  O157  1  0.45665167  0.95929880  0.34513118  1
  O  O158  1  0.56511810  0.35331324  0.32036021  1
  O  O159  1  0.06239620  0.85508502  0.34442724  1
  O  O160  1  0.95435375  0.46133717  0.31999988  1
  O  O161  1  0.08409258  0.47090152  0.39353539  1
  O  O162  1  0.91933818  0.34601844  0.37168408  1
  O  O163  1  0.41484698  0.34807380  0.39542907  1
  O  O164  1  0.59027250  0.46260752  0.37259168  1
  O  O165  1  0.75430922  0.98953251  0.31116749  1
  O  O166  1  0.24470444  0.32511793  0.35763766  1
  O  O167  1  0.75595377  0.82932601  0.31018248  1
  O  O168  1  0.26292505  0.47914713  0.35428744  1
  O  O169  1  0.12755238  0.02004647  0.35440260  1
  O  O170  1  0.88855194  0.29718124  0.30834789  1
  O  O171  1  0.39575419  0.78904809  0.35441295  1
  O  O172  1  0.62257618  0.52327122  0.31179057  1
  O  O173  1  0.78767444  0.05689464  0.36836676  1
  O  O174  1  0.22632527  0.76291291  0.39561435  1
  O  O175  1  0.74383227  0.75663342  0.36814008  1
  O  O176  1  0.28427245  0.06094682  0.39460563  1
  O  O177  1  0.81184006  0.15765590  0.31805765  1
  O  O178  1  0.21078979  0.15834132  0.34434378  1
  O  O179  1  0.71336701  0.65884323  0.31689633  1
  O  O180  1  0.29833441  0.65628965  0.34650473  1
  O  O181  1  0.44869732  0.46347178  0.44499572  1
  O  O182  1  0.55299809  0.86115813  0.41456885  1
  O  O183  1  0.06677101  0.35392755  0.44286879  1
  O  O184  1  0.95992104  0.96014268  0.41770570  1
  O  O185  1  0.05564953  0.00098439  0.48121566  1
  O  O186  1  0.91278776  0.88573301  0.47792318  1
  O  O187  1  0.37273052  0.86897420  0.49558474  1
  O  O188  1  0.60277859  0.93709619  0.46825718  1
  O  O189  1  0.75685987  0.48424469  0.41100321  1
  O  O190  1  0.24428609  0.83264195  0.45355893  1
  O  O191  1  0.75170219  0.32580205  0.41111347  1
  O  O192  1  0.27493428  0.98116151  0.44917289  1
  O  O193  1  0.11775918  0.52470159  0.45372546  1
  O  O194  1  0.88438673  0.79517780  0.41263642  1
  O  O195  1  0.39378246  0.28914553  0.45719181  1
  O  O196  1  0.62730705  0.02778164  0.41008894  1
  O  O197  1  0.78905363  0.54320846  0.47120485  1
  O  O198  1  0.20437181  0.27013287  0.49550442  1
  O  O199  1  0.73487567  0.26047096  0.47066590  1
  O  O200  1  0.27892270  0.55094939  0.49558775  1
  O  O201  1  0.79145455  0.66184027  0.42049606  1
  O  O202  1  0.20173919  0.66436593  0.44778764  1
  O  O203  1  0.72048961  0.16179750  0.41777595  1
  O  O204  1  0.30531142  0.15609033  0.44581441  1
  O  O205  1  0.54949685  0.35200868  0.51856506  1
  O  O206  1  0.97110003  0.48107029  0.52162106  1
  O  O207  1  0.69240387  0.98108137  0.51557574  1
  O  O208  1  0.79555505  0.79583091  0.50462901  1
  O  O209  1  0.31896904  0.49642944  0.56126839  1
  O  O210  1  0.09926923  0.88931426  0.53431570  1
  O  O211  1  0.90196648  0.25327973  0.51923552  1
  O  O212  1  0.47454556  0.80020295  0.56549382  1
  O  O213  1  0.70999534  0.47119233  0.51818807  1
  O  O214  1  0.75601201  0.14621322  0.51780455  1
  O  O215  1  0.16245222  0.29159647  0.55735249  1
  O  O216  1  0.64735318  0.66626523  0.51659713  1
  O  O217  1  0.35604725  0.65894270  0.53579483  1
