# generated using pymatgen
data_Na9Zr5Si5P3O32
_symmetry_space_group_name_H-M   'P 1'
_cell_length_a   9.15937100
_cell_length_b   16.04975191
_cell_length_c   55.59154400
_cell_angle_alpha   90.00000000
_cell_angle_beta   90.00000000
_cell_angle_gamma   55.20191359
_symmetry_Int_Tables_number   1
_chemical_formula_structural   Na9Zr5Si5P3O32
_chemical_formula_sum   'Na36 Zr20 Si20 P12 O128'
_cell_volume   6710.80887098
_cell_formula_units_Z   4
loop_
 _symmetry_equiv_pos_site_id
 _symmetry_equiv_pos_as_xyz
  1  'x, y, z'
loop_
 _atom_site_type_symbol
 _atom_site_label
 _atom_site_symmetry_multiplicity
 _atom_site_fract_x
 _atom_site_fract_y
 _atom_site_fract_z
 _atom_site_occupancy
  Na  Na0  1  0.76370316  0.81741097  0.07532788  1
  Na  Na1  1  0.39079789  0.40917473  0.01041186  1
  Na  Na2  1  0.26405005  0.20343639  0.03841536  1
  Na  Na3  1  0.16286047  0.69969128  0.13730792  1
  Na  Na4  1  0.39342616  0.19272162  0.15266532  1
  Na  Na5  1  0.44996515  0.66029575  0.06771689  1
  Na  Na6  1  0.53655084  0.77326641  0.02035888  1
  Na  Na7  1  0.58662877  0.32165314  0.07125829  1
  Na  Na8  1  0.87577708  0.01568030  0.11754547  1
  Na  Na9  1  0.86490776  0.52300115  0.03477624  1
  Na  Na10  1  0.09044898  0.02589768  0.03306202  1
  Na  Na11  1  0.11724216  0.49675066  0.11276567  1
  Na  Na12  1  0.77533165  0.85922865  0.25895901  1
  Na  Na13  1  0.79180118  0.34165642  0.17295960  1
  Na  Na14  1  0.18622095  0.21510836  0.23296759  1
  Na  Na15  1  0.15456007  0.73877780  0.31129551  1
  Na  Na16  1  0.39397097  0.24116541  0.30620230  1
  Na  Na17  1  0.41422296  0.72267366  0.22074161  1
  Na  Na18  1  0.55277623  0.84318526  0.16778127  1
  Na  Na19  1  0.53773112  0.36752133  0.24572476  1
  Na  Na20  1  0.83557928  0.05699731  0.28241854  1
  Na  Na21  1  0.86628946  0.52680934  0.19783954  1
  Na  Na22  1  0.07900090  0.03435424  0.19803568  1
  Na  Na23  1  0.06769301  0.54681743  0.28202192  1
  Na  Na24  1  0.69075304  0.91935735  0.41282423  1
  Na  Na25  1  0.69688785  0.38927238  0.32722547  1
  Na  Na26  1  0.14362686  0.26206787  0.40699795  1
  Na  Na27  1  0.00201867  0.81224695  0.46072497  1
  Na  Na28  1  0.11938039  0.18374108  0.46792760  1
  Na  Na29  1  0.31540495  0.76313144  0.40557968  1
  Na  Na30  1  0.48060352  0.88192429  0.34284848  1
  Na  Na31  1  0.51638910  0.39239325  0.43189341  1
  Na  Na32  1  0.82387043  0.06510097  0.44570603  1
  Na  Na33  1  0.82437220  0.56739677  0.36307549  1
  Na  Na34  1  0.03385356  0.07961427  0.36598566  1
  Na  Na35  1  0.04453938  0.56456353  0.44723421  1
  Zr  Zr36  1  0.83439647  0.92078955  0.16471485  1
  Zr  Zr37  1  0.86343577  0.39625088  0.07798401  1
  Zr  Zr38  1  0.11773399  0.12071714  0.14589822  1
  Zr  Zr39  1  0.16810882  0.58986474  0.06343377  1
  Zr  Zr40  1  0.71853543  0.04360525  0.06453467  1
  Zr  Zr41  1  0.64255083  0.61813418  0.14861760  1
  Zr  Zr42  1  0.34709873  0.89630973  0.08113239  1
  Zr  Zr43  1  0.32360423  0.42339106  0.16289465  1
  Zr  Zr44  1  0.79727734  0.96364815  0.33126159  1
  Zr  Zr45  1  0.81640928  0.44291922  0.24795638  1
  Zr  Zr46  1  0.08821406  0.15887739  0.31694653  1
  Zr  Zr47  1  0.11072714  0.63950488  0.23295075  1
  Zr  Zr48  1  0.61987402  0.13911903  0.23212653  1
  Zr  Zr49  1  0.59399411  0.66107324  0.31554868  1
  Zr  Zr50  1  0.30819769  0.94225765  0.24709089  1
  Zr  Zr51  1  0.27778120  0.46111712  0.33415139  1
  Zr  Zr52  1  0.72415195  0.53530946  0.41612622  1
  Zr  Zr53  1  0.05661481  0.68649619  0.39886108  1
  Zr  Zr54  1  0.57519552  0.18413788  0.40151400  1
  Zr  Zr55  1  0.26307896  0.99377494  0.41623104  1
  Si  Si56  1  0.01290467  0.37466614  0.13866709  1
  Si  Si57  1  0.04071069  0.85226998  0.05898730  1
  Si  Si58  1  0.96163605  0.14202740  0.08591709  1
  Si  Si59  1  0.75903439  0.64104689  0.09020694  1
  Si  Si60  1  0.22734041  0.39546950  0.05357593  1
  Si  Si61  1  0.23888453  0.87442896  0.14093252  1
  Si  Si62  1  0.97558387  0.41589138  0.30747239  1
  Si  Si63  1  0.99370934  0.89608917  0.22487454  1
  Si  Si64  1  0.94936048  0.66485633  0.17285432  1
  Si  Si65  1  0.92807615  0.18546452  0.25718440  1
  Si  Si66  1  0.70415389  0.68570543  0.25530225  1
  Si  Si67  1  0.72498258  0.16631767  0.17250898  1
  Si  Si68  1  0.21729520  0.39641798  0.22275996  1
  Si  Si69  1  0.19724736  0.91672814  0.30725728  1
  Si  Si70  1  0.95893235  0.94095925  0.38958077  1
  Si  Si71  1  0.90646550  0.70715304  0.33915107  1
  Si  Si72  1  0.93379278  0.19044429  0.42487552  1
  Si  Si73  1  0.66087562  0.72847195  0.42108044  1
  Si  Si74  1  0.68032715  0.20690123  0.34082166  1
  Si  Si75  1  0.16598668  0.44107052  0.39438315  1
  P  P76  1  0.53178353  0.00845991  0.11356264  1
  P  P77  1  0.55880459  0.51912723  0.02837919  1
  P  P78  1  0.46815270  0.97766117  0.02890796  1
  P  P79  1  0.45638693  0.51143346  0.11249881  1
  P  P80  1  0.49019858  0.05260057  0.28159189  1
  P  P81  1  0.51355997  0.52920520  0.19836208  1
  P  P82  1  0.42317151  0.03608608  0.19694850  1
  P  P83  1  0.41407918  0.54566002  0.28309119  1
  P  P84  1  0.51286655  0.06445465  0.45123102  1
  P  P85  1  0.46806032  0.57222522  0.36674973  1
  P  P86  1  0.39713885  0.07050651  0.36724133  1
  P  P87  1  0.33493637  0.60740511  0.45101650  1
  O  O88  1  0.89530651  0.91129210  0.08197580  1
  O  O89  1  0.84170060  0.46312090  0.15454835  1
  O  O90  1  0.13757364  0.04448689  0.07330246  1
  O  O91  1  0.11777607  0.57729918  0.15672733  1
  O  O92  1  0.73589685  0.07498228  0.15755762  1
  O  O93  1  0.76069112  0.55154999  0.07608301  1
  O  O94  1  0.22412117  0.96884560  0.15530610  1
  O  O95  1  0.27585419  0.43766861  0.07723181  1
  O  O96  1  0.58953187  0.90437481  0.00962032  1
  O  O97  1  0.61390449  0.44189103  0.09559122  1
  O  O98  1  0.35920814  0.08286959  0.12786532  1
  O  O99  1  0.39203126  0.55471498  0.04550056  1
  O  O100  1  0.54874669  0.03043958  0.04365613  1
  O  O101  1  0.48847324  0.57862208  0.12870448  1
  O  O102  1  0.50938352  0.93669910  0.09810818  1
  O  O103  1  0.54080799  0.47610279  0.00533068  1
  O  O104  1  0.69128751  0.94579962  0.13058207  1
  O  O105  1  0.72300246  0.43426997  0.04381559  1
  O  O106  1  0.28058215  0.06652632  0.02153304  1
  O  O107  1  0.28777823  0.59103077  0.09695473  1
  O  O108  1  0.57052618  0.07166952  0.09637244  1
  O  O109  1  0.57225055  0.61101329  0.02576945  1
  O  O110  1  0.45390580  0.90893576  0.04825655  1
  O  O111  1  0.41391404  0.44864554  0.12819438  1
  O  O112  1  0.92572015  0.95244799  0.04061108  1
  O  O113  1  0.97517519  0.38942279  0.10971567  1
  O  O114  1  0.98514703  0.12897070  0.11547420  1
  O  O115  1  0.76607846  0.62407003  0.11932807  1
  O  O116  1  0.24065193  0.89311556  0.11209278  1
  O  O117  1  0.12961703  0.50581803  0.03753754  1
  O  O118  1  0.08043647  0.36792095  0.05782053  1
  O  O119  1  0.06374547  0.87206446  0.14544390  1
  O  O120  1  0.93310703  0.64049017  0.08188220  1
  O  O121  1  0.79113394  0.13627563  0.07682585  1
  O  O122  1  0.18953951  0.37572116  0.14370918  1
  O  O123  1  0.23553615  0.83136640  0.06245080  1
  O  O124  1  0.89591476  0.77570052  0.16348833  1
  O  O125  1  0.91513329  0.25178163  0.07695810  1
  O  O126  1  0.05498291  0.26529697  0.14732803  1
  O  O127  1  0.05610785  0.74604014  0.05523795  1
  O  O128  1  0.40129949  0.30119149  0.04033970  1
  O  O129  1  0.42132507  0.76731303  0.14921009  1
  O  O130  1  0.57997549  0.74930193  0.08193888  1
  O  O131  1  0.54372475  0.27482088  0.16485852  1
  O  O132  1  0.82413295  0.98731430  0.24047023  1
  O  O133  1  0.80423785  0.50705280  0.32245734  1
  O  O134  1  0.09897221  0.09713215  0.24145983  1
  O  O135  1  0.07994862  0.61286487  0.32467109  1
  O  O136  1  0.68735303  0.11843648  0.32475115  1
  O  O137  1  0.71593431  0.59488434  0.23961792  1
  O  O138  1  0.18887752  0.00484156  0.32339746  1
  O  O139  1  0.21280785  0.48443741  0.23843254  1
  O  O140  1  0.58905481  0.96687326  0.18109339  1
  O  O141  1  0.57328136  0.48324160  0.26556122  1
  O  O142  1  0.33071208  0.11494227  0.29883953  1
  O  O143  1  0.35729077  0.59512539  0.21593819  1
  O  O144  1  0.45782948  0.09818706  0.21454910  1
  O  O145  1  0.44148177  0.61477546  0.29899726  1
  O  O146  1  0.46535229  0.98769157  0.26373141  1
  O  O147  1  0.47919082  0.46716340  0.18091763  1
  O  O148  1  0.66447221  0.97918204  0.29580745  1
  O  O149  1  0.68539277  0.45092814  0.21272115  1
  O  O150  1  0.26277211  0.11091975  0.18066033  1
  O  O151  1  0.23819848  0.61500411  0.26899929  1
  O  O152  1  0.50820228  0.13053068  0.26755421  1
  O  O153  1  0.54437369  0.60153647  0.18429344  1
  O  O154  1  0.38514679  0.96698634  0.21095398  1
  O  O155  1  0.40210147  0.47137766  0.29938712  1
  O  O156  1  0.94496646  0.91275597  0.19612894  1
  O  O157  1  0.93670018  0.43741961  0.27842498  1
  O  O158  1  0.97018734  0.16303532  0.28600002  1
  O  O159  1  0.99903194  0.64852851  0.20156954  1
  O  O160  1  0.72801232  0.14506947  0.20154147  1
  O  O161  1  0.68696774  0.66962954  0.28401690  1
  O  O162  1  0.21722513  0.93245936  0.27858865  1
  O  O163  1  0.21577774  0.41840931  0.19391279  1
  O  O164  1  0.04130481  0.39461752  0.22763538  1
  O  O165  1  0.01402834  0.92041502  0.30964386  1
  O  O166  1  0.88608530  0.68309609  0.25280750  1
  O  O167  1  0.90092451  0.16806729  0.16768312  1
  O  O168  1  0.77378285  0.66110721  0.17010083  1
  O  O169  1  0.74765441  0.18824129  0.25221020  1
  O  O170  1  0.15511277  0.41379576  0.31244375  1
  O  O171  1  0.17147954  0.89753030  0.22745320  1
  O  O172  1  0.87593825  0.81418977  0.33110429  1
  O  O173  1  0.88839597  0.29515497  0.24932938  1
  O  O174  1  0.01045211  0.30743349  0.31493862  1
  O  O175  1  0.03885745  0.78716751  0.23436182  1
  O  O176  1  0.39602774  0.28654457  0.23064467  1
  O  O177  1  0.36467468  0.80603301  0.31687814  1
  O  O178  1  0.53331174  0.79491686  0.24560302  1
  O  O179  1  0.50367254  0.31645280  0.33226942  1
  O  O180  1  0.78234948  0.03029615  0.40392625  1
  O  O181  1  0.06788036  0.14214523  0.40124349  1
  O  O182  1  0.63542440  0.66778476  0.39836405  1
  O  O183  1  0.15251361  0.53669652  0.40723522  1
  O  O184  1  0.56483601  0.00385106  0.35122433  1
  O  O185  1  0.51979768  0.55383995  0.43603941  1
  O  O186  1  0.40593861  0.10835528  0.47402542  1
  O  O187  1  0.30075032  0.64480651  0.38188129  1
  O  O188  1  0.41343926  0.14086706  0.38420231  1
  O  O189  1  0.31361503  0.67802886  0.47077580  1
  O  O190  1  0.42011044  0.02757221  0.43391558  1
  O  O191  1  0.44424809  0.49824415  0.35221493  1
  O  O192  1  0.71050571  0.97332886  0.45422089  1
  O  O193  1  0.63115311  0.50778098  0.38426931  1
  O  O194  1  0.23021609  0.13322240  0.35136306  1
  O  O195  1  0.18460107  0.67988193  0.43170753  1
  O  O196  1  0.50875475  0.14897093  0.43579793  1
  O  O197  1  0.50602242  0.63377846  0.34991943  1
  O  O198  1  0.38788353  0.99060419  0.38260710  1
  O  O199  1  0.31759906  0.52068959  0.45766173  1
  O  O200  1  0.93237952  0.95967353  0.36048254  1
  O  O201  1  0.05523087  0.08170916  0.44172132  1
  O  O202  1  0.94519004  0.68698792  0.36797817  1
  O  O203  1  0.66998996  0.19148875  0.36965849  1
  O  O204  1  0.74385317  0.62914323  0.43979081  1
  O  O205  1  0.16363099  0.45318096  0.36480630  1
  O  O206  1  0.98371088  0.44750737  0.40327051  1
  O  O207  1  0.81714415  0.74714750  0.41769980  1
  O  O208  1  0.85879442  0.20633672  0.33607616  1
  O  O209  1  0.72561675  0.71061851  0.33452703  1
  O  O210  1  0.73152738  0.21749507  0.42103879  1
  O  O211  1  0.13302113  0.93941998  0.39826033  1
  O  O212  1  0.92786945  0.28466131  0.43636328  1
  O  O213  1  0.99183854  0.83324710  0.39718246  1
  O  O214  1  0.34220418  0.33242594  0.40354561  1
  O  O215  1  0.46562760  0.83594436  0.42455558  1
