# generated using pymatgen
data_Na14Zr10Si8P4O53
_symmetry_space_group_name_H-M   'P 1'
_cell_length_a   9.27295600
_cell_length_b   15.80284349
_cell_length_c   45.79685300
_cell_angle_alpha   90.00000000
_cell_angle_beta   90.00000000
_cell_angle_gamma   56.43985526
_symmetry_Int_Tables_number   1
_chemical_formula_structural   Na14Zr10Si8P4O53
_chemical_formula_sum   'Na28 Zr20 Si16 P8 O106'
_cell_volume   5592.34006858
_cell_formula_units_Z   2
loop_
 _symmetry_equiv_pos_site_id
 _symmetry_equiv_pos_as_xyz
  1  'x, y, z'
loop_
 _atom_site_type_symbol
 _atom_site_label
 _atom_site_symmetry_multiplicity
 _atom_site_fract_x
 _atom_site_fract_y
 _atom_site_fract_z
 _atom_site_occupancy
  Na  Na0  1  0.55512821  0.77044536  0.05701330  1
  Na  Na1  1  0.02655349  0.29281449  0.02865864  1
  Na  Na2  1  0.89029496  0.10977851  0.07123025  1
  Na  Na3  1  0.70838104  0.51875265  0.08621086  1
  Na  Na4  1  0.16889670  0.03040688  0.01494272  1
  Na  Na5  1  0.41434738  0.19011440  0.12563536  1
  Na  Na6  1  0.59494314  0.31818874  0.17650229  1
  Na  Na7  1  0.14480402  0.83517314  0.11679176  1
  Na  Na8  1  0.93671332  0.69534976  0.17387467  1
  Na  Na9  1  0.76894267  0.99884027  0.17898912  1
  Na  Na10  1  0.25464332  0.50390668  0.12138252  1
  Na  Na11  1  0.43001152  0.68833118  0.22719515  1
  Na  Na12  1  0.59070727  0.82682452  0.27687218  1
  Na  Na13  1  0.09070389  0.32682860  0.22312913  1
  Na  Na14  1  0.93000706  0.18833275  0.27280406  1
  Na  Na15  1  0.76368723  0.50073111  0.27771929  1
  Na  Na16  1  0.26368959  0.00072857  0.22228110  1
  Na  Na17  1  0.43672315  0.19534456  0.32612399  1
  Na  Na18  1  0.64480446  0.33516745  0.38320925  1
  Na  Na19  1  0.09493499  0.81818834  0.32349699  1
  Na  Na20  1  0.91436199  0.69009205  0.37436261  1
  Na  Na21  1  0.75465648  0.00388812  0.37861679  1
  Na  Na22  1  0.26894247  0.49883610  0.32101258  1
  Na  Na23  1  0.39030710  0.60971976  0.42877250  1
  Na  Na24  1  0.52655897  0.79279564  0.47134089  1
  Na  Na25  1  0.05514834  0.27045104  0.44298455  1
  Na  Na26  1  0.66886194  0.53038510  0.48505694  1
  Na  Na27  1  0.20834565  0.01876016  0.41378768  1
  Zr  Zr28  1  0.96261816  0.58341339  0.05784864  1
  Zr  Zr29  1  0.92874961  0.90336127  0.04624450  1
  Zr  Zr30  1  0.54786414  0.41143367  0.05337793  1
  Zr  Zr31  1  0.42566473  0.08358453  0.04944168  1
  Zr  Zr32  1  0.95484853  0.10305257  0.15023420  1
  Zr  Zr33  1  0.06317701  0.40242068  0.14726084  1
  Zr  Zr34  1  0.56539557  0.90359097  0.15307884  1
  Zr  Zr35  1  0.43790582  0.60992774  0.14908903  1
  Zr  Zr36  1  0.94661470  0.60736928  0.25053617  1
  Zr  Zr37  1  0.06382311  0.90466018  0.25080382  1
  Zr  Zr38  1  0.56382220  0.40466100  0.24919542  1
  Zr  Zr39  1  0.44661735  0.10736950  0.24946383  1
  Zr  Zr40  1  0.93790409  0.10992824  0.35090856  1
  Zr  Zr41  1  0.06539385  0.40358542  0.34692168  1
  Zr  Zr42  1  0.56317415  0.90241214  0.35274107  1
  Zr  Zr43  1  0.45485203  0.60304412  0.34976669  1
  Zr  Zr44  1  0.92566395  0.58357169  0.45055840  1
  Zr  Zr45  1  0.04787491  0.91141390  0.44662172  1
  Zr  Zr46  1  0.42871978  0.40329415  0.45375778  1
  Zr  Zr47  1  0.46260781  0.08341024  0.44214903  1
  Si  Si48  1  0.26343547  0.64664039  0.07386878  1
  Si  Si49  1  0.24157373  0.34466428  0.07313231  1
  Si  Si50  1  0.27160000  0.14539635  0.17804501  1
  Si  Si51  1  0.73759556  0.36318944  0.12389643  1
  Si  Si52  1  0.24412993  0.86373560  0.17871586  1
  Si  Si53  1  0.76638743  0.64659029  0.12478932  1
  Si  Si54  1  0.27173662  0.64347464  0.27772922  1
  Si  Si55  1  0.74264454  0.86578725  0.22406052  1
  Si  Si56  1  0.24264028  0.36579082  0.27593991  1
  Si  Si57  1  0.77172517  0.14347635  0.22227009  1
  Si  Si58  1  0.26639852  0.14657924  0.37520938  1
  Si  Si59  1  0.74412720  0.36373507  0.32128387  1
  Si  Si60  1  0.23761419  0.86317295  0.37610320  1
  Si  Si61  1  0.77160099  0.64538942  0.32195637  1
  Si  Si62  1  0.74155900  0.84465658  0.42686692  1
  Si  Si63  1  0.76345969  0.14660116  0.42613090  1
  P  P64  1  0.27762535  0.97092175  0.09442505  1
  P  P65  1  0.73876478  0.00758125  0.11047125  1
  P  P66  1  0.25156499  0.50528684  0.19046625  1
  P  P67  1  0.75203426  0.50731158  0.20683567  1
  P  P68  1  0.25203547  0.00731538  0.29316543  1
  P  P69  1  0.75156370  0.00528701  0.30953367  1
  P  P70  1  0.23877055  0.50756070  0.38953405  1
  P  P71  1  0.77761672  0.47092102  0.40557387  1
  O  O72  1  0.45339335  0.56683686  0.05787260  1
  O  O73  1  0.05275808  0.43018649  0.05709517  1
  O  O74  1  0.89611386  0.95363912  0.08864642  1
  O  O75  1  0.56950385  0.06528545  0.09327324  1
  O  O76  1  0.30319649  0.87036760  0.08602417  1
  O  O77  1  0.29277667  0.02128980  0.06583886  1
  O  O78  1  0.16422024  0.58590116  0.07304877  1
  O  O79  1  0.39455889  0.35803754  0.06056925  1
  O  O80  1  0.67715866  0.97040948  0.03812303  1
  O  O81  1  0.77268164  0.64720737  0.08848897  1
  O  O82  1  0.98968209  0.98929923  0.03142071  1
  O  O83  1  0.69890555  0.36659390  0.08875385  1
  O  O84  1  0.28343963  0.12300858  0.01631776  1
  O  O85  1  0.82247881  0.66834575  0.02865414  1
  O  O86  1  0.13840512  0.75689427  0.05779820  1
  O  O87  1  0.72799333  0.34321593  0.02714298  1
  O  O88  1  0.28874568  0.23153764  0.06524855  1
  O  O89  1  0.46041291  0.05816445  0.16477005  1
  O  O90  1  0.55659762  0.45293580  0.13947799  1
  O  O91  1  0.06555691  0.95124302  0.16230200  1
  O  O92  1  0.95850972  0.55550215  0.13653499  1
  O  O93  1  0.09536893  0.04901009  0.10814330  1
  O  O94  1  0.91292082  0.45083003  0.18668406  1
  O  O95  1  0.41842062  0.95542602  0.11578811  1
  O  O96  1  0.58077502  0.56634438  0.18944290  1
  O  O97  1  0.75627829  0.08619439  0.12783235  1
  O  O98  1  0.25386013  0.42374211  0.17100705  1
  O  O99  1  0.75707924  0.92524213  0.13109749  1
  O  O100  1  0.24730066  0.58571102  0.16989027  1
  O  O101  1  0.12846069  0.11826025  0.17024872  1
  O  O102  1  0.88632423  0.38911773  0.12669712  1
  O  O103  1  0.39363513  0.88820665  0.17508658  1
  O  O104  1  0.62504240  0.61737599  0.13071435  1
  O  O105  1  0.79454194  0.14144031  0.18653129  1
  O  O106  1  0.22268085  0.36220309  0.10931124  1
  O  O107  1  0.73311557  0.86156262  0.18843589  1
  O  O108  1  0.29725239  0.65452279  0.10916219  1
  O  O109  1  0.79893846  0.25319446  0.13739483  1
  O  O110  1  0.21059723  0.25653328  0.16393738  1
  O  O111  1  0.71559280  0.75348176  0.13900172  1
  O  O112  1  0.29933589  0.75530861  0.16402446  1
  O  O113  1  0.45326802  0.55869981  0.26126642  1
  O  O114  1  0.55670756  0.95266812  0.23883540  1
  O  O115  1  0.05670293  0.45267162  0.26116433  1
  O  O116  1  0.95326876  0.05869580  0.23873425  1
  O  O117  1  0.08751688  0.56370800  0.20965253  1
  O  O118  1  0.91816618  0.95015416  0.29094702  1
  O  O119  1  0.41817672  0.45015862  0.20905096  1
  O  O120  1  0.58751422  0.06370846  0.29034696  1
  O  O121  1  0.75683130  0.58545183  0.22674773  1
  O  O122  1  0.25771571  0.92539969  0.27329549  1
  O  O123  1  0.75771451  0.42539867  0.22670499  1
  O  O124  1  0.25683166  0.08545705  0.27325269  1
  O  O125  1  0.12347158  0.61902879  0.27155735  1
  O  O126  1  0.88737692  0.89230041  0.23067682  1
  O  O127  1  0.38737075  0.39230989  0.26932403  1
  O  O128  1  0.62347392  0.11902629  0.22844137  1
  O  O129  1  0.77796060  0.65004621  0.28602538  1
  O  O130  1  0.22198990  0.86014097  0.21433797  1
  O  O131  1  0.72199461  0.36013395  0.28566231  1
  O  O132  1  0.27795996  0.15005493  0.21397491  1
  O  O133  1  0.79998007  0.75580640  0.23760917  1
  O  O134  1  0.21067561  0.75673154  0.26600122  1
  O  O135  1  0.71065097  0.25672741  0.23400112  1
  O  O136  1  0.29999242  0.25581012  0.26239054  1
  O  O137  1  0.45854225  0.05548410  0.36346915  1
  O  O138  1  0.56555972  0.45124191  0.33769940  1
  O  O139  1  0.05661244  0.95292951  0.36052168  1
  O  O140  1  0.96041254  0.55815546  0.33523132  1
  O  O141  1  0.08077061  0.06635200  0.31055406  1
  O  O142  1  0.91840506  0.45543475  0.38421063  1
  O  O143  1  0.41291707  0.95083314  0.31331748  1
  O  O144  1  0.59535760  0.54900430  0.39185455  1
  O  O145  1  0.74731382  0.08570841  0.33010767  1
  O  O146  1  0.25705109  0.42523980  0.36890589  1
  O  O147  1  0.75385490  0.92373841  0.32899053  1
  O  O148  1  0.25632521  0.58616631  0.37217700  1
  O  O149  1  0.12506366  0.11736604  0.36927882  1
  O  O150  1  0.89363724  0.38820309  0.32491229  1
  O  O151  1  0.38632316  0.88911760  0.37330149  1
  O  O152  1  0.62845835  0.61825469  0.32974864  1
  O  O153  1  0.79726320  0.15451589  0.39083866  1
  O  O154  1  0.23311697  0.36155639  0.31156442  1
  O  O155  1  0.72268391  0.86216908  0.39068937  1
  O  O156  1  0.29453498  0.64143618  0.31347046  1
  O  O157  1  0.79933424  0.25531139  0.33597461  1
  O  O158  1  0.21561374  0.25346948  0.36099521  1
  O  O159  1  0.71060331  0.75652495  0.33606249  1
  O  O160  1  0.29893092  0.75319223  0.36260206  1
  O  O161  1  0.55275460  0.93018670  0.44290630  1
  O  O162  1  0.95340102  0.06680227  0.44213021  1
  O  O163  1  0.06950883  0.56528880  0.40673060  1
  O  O164  1  0.39611667  0.45358900  0.41135965  1
  O  O165  1  0.79274649  0.52130175  0.43415889  1
  O  O166  1  0.80318131  0.37037469  0.41397520  1
  O  O167  1  0.17710726  0.47034992  0.46187596  1
  O  O168  1  0.89455340  0.85802819  0.43943057  1
  O  O169  1  0.66421802  0.08588326  0.42694886  1
  O  O170  1  0.78347622  0.62296914  0.48368569  1
  O  O171  1  0.19888818  0.86661007  0.41124343  1
  O  O172  1  0.48965111  0.48924447  0.46857373  1
  O  O173  1  0.27267062  0.14720519  0.41150970  1
  O  O174  1  0.78872032  0.73154326  0.43475698  1
  O  O175  1  0.22802682  0.84320812  0.47285284  1
  O  O176  1  0.63841800  0.25684903  0.44220378  1
  O  O177  1  0.32249899  0.16834703  0.47134543  1
