# generated using pymatgen
data_Na8Zr5Si5P2O29
_symmetry_space_group_name_H-M   'P 1'
_cell_length_a   9.15937100
_cell_length_b   16.04975191
_cell_length_c   55.59154400
_cell_angle_alpha   90.00000000
_cell_angle_beta   90.00000000
_cell_angle_gamma   55.20191359
_symmetry_Int_Tables_number   1
_chemical_formula_structural   Na8Zr5Si5P2O29
_chemical_formula_sum   'Na32 Zr20 Si20 P8 O116'
_cell_volume   6710.80887098
_cell_formula_units_Z   4
loop_
 _symmetry_equiv_pos_site_id
 _symmetry_equiv_pos_as_xyz
  1  'x, y, z'
loop_
 _atom_site_type_symbol
 _atom_site_label
 _atom_site_symmetry_multiplicity
 _atom_site_fract_x
 _atom_site_fract_y
 _atom_site_fract_z
 _atom_site_occupancy
  Na  Na0  1  0.80042104  0.80759168  0.06473722  1
  Na  Na1  1  0.77811792  0.34174215  0.15621796  1
  Na  Na2  1  0.24064481  0.17754640  0.04423334  1
  Na  Na3  1  0.16896078  0.69803162  0.12271294  1
  Na  Na4  1  0.43488991  0.19787397  0.12270603  1
  Na  Na5  1  0.40338701  0.67741101  0.04430455  1
  Na  Na6  1  0.53897565  0.84225430  0.15569112  1
  Na  Na7  1  0.58375718  0.30753511  0.06480720  1
  Na  Na8  1  0.87395095  0.01207046  0.09803177  1
  Na  Na9  1  0.90040127  0.52731584  0.02243597  1
  Na  Na10  1  0.04437235  0.02715977  0.02236110  1
  Na  Na11  1  0.10093240  0.51245524  0.09809789  1
  Na  Na12  1  0.76784692  0.85817616  0.24035407  1
  Na  Na13  1  0.75394998  0.37909227  0.32523956  1
  Na  Na14  1  0.15475019  0.21874145  0.20755030  1
  Na  Na15  1  0.14502195  0.73503482  0.29168684  1
  Na  Na16  1  0.38461276  0.23507865  0.29189927  1
  Na  Na17  1  0.40876111  0.71892805  0.20720809  1
  Na  Na18  1  0.48836458  0.87944613  0.32505192  1
  Na  Na19  1  0.51491817  0.35812162  0.24043273  1
  Na  Na20  1  0.84514517  0.04609540  0.26561241  1
  Na  Na21  1  0.86047141  0.53102597  0.18231416  1
  Na  Na22  1  0.07770440  0.03090185  0.18227928  1
  Na  Na23  1  0.06289329  0.54586868  0.26564630  1
  Na  Na24  1  0.68241186  0.89986500  0.40360509  1
  Na  Na25  1  0.12247333  0.26941610  0.38327228  1
  Na  Na26  1  0.33903132  0.76959894  0.38300106  1
  Na  Na27  1  0.52002314  0.39932423  0.40375146  1
  Na  Na28  1  0.87895447  0.04966881  0.42551520  1
  Na  Na29  1  0.82180458  0.56478419  0.34983103  1
  Na  Na30  1  0.04926511  0.06477861  0.34984719  1
  Na  Na31  1  0.02143121  0.55081345  0.42569063  1
  Zr  Zr32  1  0.83022867  0.92151016  0.14820731  1
  Zr  Zr33  1  0.86078860  0.40056290  0.06674177  1
  Zr  Zr34  1  0.12133585  0.12051900  0.13177652  1
  Zr  Zr35  1  0.20808304  0.56433926  0.04659635  1
  Zr  Zr36  1  0.66241931  0.06435105  0.04656591  1
  Zr  Zr37  1  0.63755896  0.62046320  0.13184134  1
  Zr  Zr38  1  0.33721347  0.90065409  0.06672398  1
  Zr  Zr39  1  0.32670259  0.42138162  0.14814393  1
  Zr  Zr40  1  0.80166902  0.95649994  0.31607094  1
  Zr  Zr41  1  0.81358774  0.43977400  0.23139328  1
  Zr  Zr42  1  0.09233108  0.15568994  0.29971939  1
  Zr  Zr43  1  0.10985241  0.63702691  0.21657030  1
  Zr  Zr44  1  0.61613980  0.13707488  0.21654527  1
  Zr  Zr45  1  0.59624011  0.65566557  0.29972649  1
  Zr  Zr46  1  0.30690470  0.93975989  0.23132921  1
  Zr  Zr47  1  0.28547351  0.45650909  0.31619398  1
  Zr  Zr48  1  0.71464817  0.51302067  0.40134490  1
  Zr  Zr49  1  0.06177313  0.67668237  0.38119221  1
  Zr  Zr50  1  0.58546376  0.17661380  0.38119656  1
  Zr  Zr51  1  0.26117137  0.01235686  0.40130966  1
  Si  Si52  1  0.01570806  0.37537548  0.12553805  1
  Si  Si53  1  0.01083982  0.86794901  0.04240158  1
  Si  Si54  1  0.94895338  0.66372095  0.15657729  1
  Si  Si55  1  0.97288353  0.14333570  0.07037693  1
  Si  Si56  1  0.73962182  0.64341028  0.07043989  1
  Si  Si57  1  0.72356489  0.16371936  0.15655932  1
  Si  Si58  1  0.25246652  0.36799765  0.04249988  1
  Si  Si59  1  0.23314605  0.87545983  0.12553219  1
  Si  Si60  1  0.97417128  0.41337036  0.29136766  1
  Si  Si61  1  0.99292116  0.89448106  0.20812677  1
  Si  Si62  1  0.90727856  0.70160619  0.32239109  1
  Si  Si63  1  0.93006888  0.18230997  0.23981536  1
  Si  Si64  1  0.70533110  0.68223041  0.23979691  1
  Si  Si65  1  0.68981289  0.20152772  0.32238343  1
  Si  Si66  1  0.21792058  0.39453132  0.20804299  1
  Si  Si67  1  0.19920857  0.91329671  0.29128597  1
  Si  Si68  1  0.95010215  0.93378098  0.37743742  1
  Si  Si69  1  0.91273506  0.20871462  0.40550841  1
  Si  Si70  1  0.66975543  0.70951378  0.40549225  1
  Si  Si71  1  0.18283456  0.43395235  0.37762711  1
  P  P72  1  0.53096479  0.00756121  0.09842723  1
  P  P73  1  0.45342893  0.50788593  0.09842218  1
  P  P74  1  0.49789956  0.04573654  0.26598405  1
  P  P75  1  0.51265574  0.53112541  0.18197802  1
  P  P76  1  0.42444832  0.03143853  0.18192224  1
  P  P77  1  0.41099551  0.54523963  0.26604680  1
  P  P78  1  0.46946046  0.56937728  0.34950213  1
  P  P79  1  0.39205530  0.06973031  0.34945503  1
  O  O80  1  0.87038122  0.92417988  0.06529013  1
  O  O81  1  0.84405234  0.46787022  0.14012246  1
  O  O82  1  0.15975567  0.05459270  0.05631151  1
  O  O83  1  0.11521871  0.57470548  0.14033736  1
  O  O84  1  0.73504872  0.07468189  0.14036239  1
  O  O85  1  0.73028089  0.55460807  0.05640449  1
  O  O86  1  0.22041078  0.96781487  0.14010204  1
  O  O87  1  0.28044388  0.42422186  0.06538994  1
  O  O88  1  0.58345036  0.96884358  0.16458617  1
  O  O89  1  0.61599678  0.43881763  0.08183022  1
  O  O90  1  0.36418658  0.07530882  0.11456376  1
  O  O91  1  0.41480268  0.53885820  0.03400209  1
  O  O92  1  0.50638860  0.03898163  0.03400665  1
  O  O93  1  0.48505479  0.57544804  0.11456147  1
  O  O94  1  0.50598361  0.93870052  0.08183217  1
  O  O95  1  0.47844705  0.46870932  0.16464422  1
  O  O96  1  0.69610135  0.93818894  0.11418185  1
  O  O97  1  0.28066127  0.58298000  0.08383465  1
  O  O98  1  0.55371083  0.08260269  0.08385097  1
  O  O99  1  0.42677290  0.43864595  0.11418156  1
  O  O100  1  0.88472537  0.96284187  0.02286286  1
  O  O101  1  0.97369193  0.39460794  0.09630562  1
  O  O102  1  0.00614048  0.12876241  0.09979209  1
  O  O103  1  0.73634737  0.62869380  0.09985926  1
  O  O104  1  0.23600976  0.89499260  0.09630130  1
  O  O105  1  0.18869916  0.46289380  0.02295611  1
  O  O106  1  0.06988240  0.36559883  0.04483690  1
  O  O107  1  0.05969856  0.87195407  0.12867775  1
  O  O108  1  0.91946731  0.63375175  0.06211320  1
  O  O109  1  0.90078553  0.16505258  0.15252266  1
  O  O110  1  0.76878041  0.66527310  0.15255730  1
  O  O111  1  0.81239216  0.13352083  0.06214453  1
  O  O112  1  0.19630994  0.37178012  0.12864155  1
  O  O113  1  0.19817191  0.86557200  0.04481494  1
  O  O114  1  0.90469048  0.77363550  0.14838823  1
  O  O115  1  0.92509457  0.25575764  0.06173826  1
  O  O116  1  0.04709281  0.26817676  0.13302136  1
  O  O117  1  0.07184880  0.75021834  0.04009879  1
  O  O118  1  0.42704475  0.25029338  0.04018214  1
  O  O119  1  0.41613078  0.76814536  0.13296055  1
  O  O120  1  0.56220298  0.75575072  0.06185719  1
  O  O121  1  0.54813906  0.27360465  0.14834260  1
  O  O122  1  0.82462476  0.98376979  0.22415113  1
  O  O123  1  0.80772025  0.50247402  0.30755940  1
  O  O124  1  0.09820741  0.09306700  0.22375410  1
  O  O125  1  0.07901877  0.60905621  0.30783811  1
  O  O126  1  0.70357718  0.10901503  0.30774862  1
  O  O127  1  0.71532123  0.59305195  0.22375690  1
  O  O128  1  0.18750904  0.00240733  0.30748274  1
  O  O129  1  0.20804934  0.48368037  0.22407219  1
  O  O130  1  0.55880472  0.00229469  0.33329959  1
  O  O131  1  0.56735702  0.48322955  0.24820019  1
  O  O132  1  0.33889506  0.10845165  0.28330006  1
  O  O133  1  0.35652664  0.59327070  0.19984737  1
  O  O134  1  0.45717867  0.09319988  0.19979874  1
  O  O135  1  0.44468466  0.60794933  0.28334980  1
  O  O136  1  0.46536897  0.98383889  0.24812325  1
  O  O137  1  0.43810906  0.50164701  0.33338474  1
  O  O138  1  0.67132128  0.96985963  0.28010113  1
  O  O139  1  0.68872845  0.45416785  0.19551062  1
  O  O140  1  0.25096332  0.10733972  0.16781867  1
  O  O141  1  0.23481104  0.62194019  0.25249988  1
  O  O142  1  0.52079531  0.12237070  0.25243339  1
  O  O143  1  0.53492274  0.60681575  0.16786109  1
  O  O144  1  0.40173160  0.95468671  0.19544224  1
  O  O145  1  0.38888158  0.46953697  0.28015727  1
  O  O146  1  0.94380820  0.91525083  0.17942497  1
  O  O147  1  0.92748488  0.43439938  0.26255536  1
  O  O148  1  0.97878608  0.16144700  0.26852453  1
  O  O149  1  0.99603161  0.64253003  0.18537417  1
  O  O150  1  0.71880511  0.14257572  0.18535329  1
  O  O151  1  0.69790719  0.66153507  0.26850315  1
  O  O152  1  0.20404630  0.93422299  0.26248257  1
  O  O153  1  0.22497320  0.41526651  0.17933544  1
  O  O154  1  0.03967348  0.39381726  0.21146851  1
  O  O155  1  0.02225301  0.91170895  0.29530037  1
  O  O156  1  0.88363960  0.68287007  0.23642160  1
  O  O157  1  0.86306615  0.20527268  0.31927634  1
  O  O158  1  0.72673691  0.70517957  0.31923516  1
  O  O159  1  0.75016531  0.18325643  0.23641155  1
  O  O160  1  0.15429731  0.41175364  0.29544536  1
  O  O161  1  0.17280286  0.89360930  0.21144442  1
  O  O162  1  0.87551411  0.80886076  0.31489019  1
  O  O163  1  0.88728228  0.29191723  0.23132639  1
  O  O164  1  0.01805683  0.30352466  0.29955869  1
  O  O165  1  0.03592761  0.78487355  0.21667294  1
  O  O166  1  0.39395930  0.28483794  0.21657989  1
  O  O167  1  0.37496070  0.80345752  0.29950505  1
  O  O168  1  0.52932109  0.79195406  0.23125523  1
  O  O169  1  0.50655735  0.30876290  0.31500324  1
  O  O170  1  0.76328534  0.02261328  0.39149433  1
  O  O171  1  0.05301805  0.15246248  0.38260622  1
  O  O172  1  0.64226107  0.65303758  0.38260421  1
  O  O173  1  0.19166181  0.52291113  0.39168071  1
  O  O174  1  0.50811443  0.53813684  0.41391384  1
  O  O175  1  0.30667946  0.63837306  0.36607011  1
  O  O176  1  0.41642813  0.13893968  0.36600689  1
  O  O177  1  0.41658025  0.03837869  0.41380084  1
  O  O178  1  0.64222887  0.49437113  0.36410250  1
  O  O179  1  0.22670289  0.13869509  0.33372037  1
  O  O180  1  0.49607498  0.63862848  0.33374716  1
  O  O181  1  0.37029156  0.99434615  0.36405435  1
  O  O182  1  0.91707141  0.94818089  0.34802863  1
  O  O183  1  0.03892875  0.11371597  0.42502859  1
  O  O184  1  0.94906403  0.68244386  0.35162577  1
  O  O185  1  0.68679123  0.18197013  0.35160346  1
  O  O186  1  0.73321340  0.61479721  0.42506586  1
  O  O187  1  0.18639085  0.44876505  0.34820312  1
  O  O188  1  0.00315923  0.44325198  0.38586459  1
  O  O189  1  0.85218208  0.71203096  0.40309153  1
  O  O190  1  0.72516952  0.21130195  0.40308484  1
  O  O191  1  0.11092114  0.94331983  0.38564182  1
  O  O192  1  0.85192309  0.32636732  0.40784633  1
  O  O193  1  0.99750330  0.82147261  0.38613459  1
  O  O194  1  0.36056861  0.32166824  0.38618991  1
  O  O195  1  0.49503504  0.82722137  0.40775711  1
