# generated using pymatgen
data_Na15Zr12Si10P5O64
_symmetry_space_group_name_H-M   'P 1'
_cell_length_a   9.27295600
_cell_length_b   15.80284349
_cell_length_c   45.79685300
_cell_angle_alpha   90.00000000
_cell_angle_beta   90.00000000
_cell_angle_gamma   56.43985526
_symmetry_Int_Tables_number   1
_chemical_formula_structural   Na15Zr12Si10P5O64
_chemical_formula_sum   'Na30 Zr24 Si20 P10 O128'
_cell_volume   5592.34006858
_cell_formula_units_Z   2
loop_
 _symmetry_equiv_pos_site_id
 _symmetry_equiv_pos_as_xyz
  1  'x, y, z'
loop_
 _atom_site_type_symbol
 _atom_site_label
 _atom_site_symmetry_multiplicity
 _atom_site_fract_x
 _atom_site_fract_y
 _atom_site_fract_z
 _atom_site_occupancy
  Na  Na0  1  0.43823462  0.05355918  0.10504938  1
  Na  Na1  1  0.53313698  0.53124753  0.99869719  1
  Na  Na2  1  0.04922149  0.66555015  0.10365551  1
  Na  Na3  1  0.74649835  0.99453909  0.98709551  1
  Na  Na4  1  0.76361784  0.35819139  0.05684945  1
  Na  Na5  1  0.25834882  0.36452659  0.09500191  1
  Na  Na6  1  0.33893785  0.54081329  0.18959605  1
  Na  Na7  1  0.59271392  0.18782014  0.15206965  1
  Na  Na8  1  0.07929190  0.19047459  0.19822737  1
  Na  Na9  1  0.81795157  0.54805699  0.15891246  1
  Na  Na10  1  0.75948445  0.86364242  0.15345834  1
  Na  Na11  1  0.25263449  0.86579605  0.19410891  1
  Na  Na12  1  0.43114627  0.05948825  0.29963346  1
  Na  Na13  1  0.56847518  0.68344707  0.24639285  1
  Na  Na14  1  0.06979873  0.68541548  0.30151148  1
  Na  Na15  1  0.92052516  0.05119204  0.24684170  1
  Na  Na16  1  0.73199231  0.37829296  0.25040707  1
  Na  Na17  1  0.24805181  0.37108602  0.29687708  1
  Na  Na18  1  0.34957784  0.54194931  0.39248963  1
  Na  Na19  1  0.65708517  0.19918554  0.35626371  1
  Na  Na20  1  0.17246378  0.19541316  0.38747613  1
  Na  Na21  1  0.86533533  0.54385208  0.35467007  1
  Na  Na22  1  0.74386540  0.87412711  0.35224446  1
  Na  Na23  1  0.24917332  0.87024829  0.39261246  1
  Na  Na24  1  0.43748013  0.99953586  0.54651490  1
  Na  Na25  1  0.55460764  0.67122983  0.44116103  1
  Na  Na26  1  0.18819515  0.70909740  0.55807384  1
  Na  Na27  1  0.95075716  0.07019006  0.44270408  1
  Na  Na28  1  0.74546098  0.36919773  0.45295674  1
  Na  Na29  1  0.25778428  0.35723084  0.49399134  1
  Zr  Zr30  1  0.94812906  0.46546897  0.02721020  1
  Zr  Zr31  1  0.08958831  0.75900558  0.03014273  1
  Zr  Zr32  1  0.55850780  0.25539352  0.02903758  1
  Zr  Zr33  1  0.42487591  0.97757733  0.02870628  1
  Zr  Zr34  1  0.94647579  0.97060438  0.12364271  1
  Zr  Zr35  1  0.05607586  0.26825638  0.12296570  1
  Zr  Zr36  1  0.55193958  0.77038462  0.12536356  1
  Zr  Zr37  1  0.44356558  0.47307580  0.11723453  1
  Zr  Zr38  1  0.94364575  0.47136554  0.22458990  1
  Zr  Zr39  1  0.05696927  0.76845094  0.22268540  1
  Zr  Zr40  1  0.55347298  0.27059082  0.22311170  1
  Zr  Zr41  1  0.43844674  0.97189496  0.22368185  1
  Zr  Zr42  1  0.94132240  0.97040971  0.32331980  1
  Zr  Zr43  1  0.05209855  0.27016153  0.32161724  1
  Zr  Zr44  1  0.55834068  0.76789902  0.32446752  1
  Zr  Zr45  1  0.44468630  0.46918063  0.32284315  1
  Zr  Zr46  1  0.94432150  0.46959493  0.42661885  1
  Zr  Zr47  1  0.05614625  0.77011248  0.42379518  1
  Zr  Zr48  1  0.55513124  0.26674814  0.42790614  1
  Zr  Zr49  1  0.44738696  0.96940704  0.41942020  1
  Zr  Zr50  1  0.90827251  0.94651583  0.50927271  1
  Zr  Zr51  1  0.06443542  0.24687362  0.51935718  1
  Zr  Zr52  1  0.60322348  0.74676489  0.51429250  1
  Zr  Zr53  1  0.46313046  0.45661705  0.51928989  1
  Si  Si54  1  0.29461146  0.50482516  0.04091331  1
  Si  Si55  1  0.74000642  0.22382056  0.09660438  1
  Si  Si56  1  0.21961491  0.23202154  0.05170217  1
  Si  Si57  1  0.76512179  0.51576147  0.09572833  1
  Si  Si58  1  0.26155723  0.01127185  0.15253000  1
  Si  Si59  1  0.73196736  0.73158050  0.19716173  1
  Si  Si60  1  0.23158652  0.72787009  0.14955265  1
  Si  Si61  1  0.76083193  0.00989858  0.19548090  1
  Si  Si62  1  0.26023264  0.51085949  0.25182455  1
  Si  Si63  1  0.73654018  0.22863937  0.29440276  1
  Si  Si64  1  0.23302823  0.23111687  0.25047745  1
  Si  Si65  1  0.76064830  0.51054417  0.29577606  1
  Si  Si66  1  0.26478050  0.00998158  0.34870987  1
  Si  Si67  1  0.73540034  0.72669680  0.39605752  1
  Si  Si68  1  0.23694985  0.72844102  0.35173687  1
  Si  Si69  1  0.76728084  0.01117134  0.39566220  1
  Si  Si70  1  0.26106308  0.51306742  0.45249363  1
  Si  Si71  1  0.72001123  0.21205173  0.50148031  1
  Si  Si72  1  0.23899480  0.22131234  0.45021161  1
  Si  Si73  1  0.79582776  0.49229524  0.50015645  1
  P  P74  1  0.75147132  0.86580760  0.08310120  1
  P  P75  1  0.25439480  0.86872936  0.06670331  1
  P  P76  1  0.74167532  0.37781961  0.18001335  1
  P  P77  1  0.24427681  0.37843091  0.16338918  1
  P  P78  1  0.74935802  0.86814566  0.28199924  1
  P  P79  1  0.24894532  0.86772331  0.26501805  1
  P  P80  1  0.75082774  0.36618666  0.38302816  1
  P  P81  1  0.25138599  0.36653379  0.36688103  1
  P  P82  1  0.74159404  0.86230595  0.47954552  1
  P  P83  1  0.25488924  0.87132770  0.46243570  1
  O  O84  1  0.48415664  0.40943921  0.02800593  1
  O  O85  1  0.02858851  0.32026020  0.03912223  1
  O  O86  1  0.08751466  0.93817052  0.08432284  1
  O  O87  1  0.91008791  0.79796100  0.06306061  1
  O  O88  1  0.41437920  0.82284975  0.08654530  1
  O  O89  1  0.58333560  0.92571646  0.06478696  1
  O  O90  1  0.25108977  0.77913827  0.05376433  1
  O  O91  1  0.26969203  0.92597026  0.04077269  1
  O  O92  1  0.13385459  0.49677373  0.03064642  1
  O  O93  1  0.00459044  0.84174776  0.99862980  1
  O  O94  1  0.34880009  0.27195538  0.04754503  1
  O  O95  1  0.55681656  0.94303850  0.99612478  1
  O  O96  1  0.78853725  0.52899967  0.06113462  1
  O  O97  1  0.22054394  0.21715026  0.08732396  1
  O  O98  1  0.73436980  0.21432273  0.06104037  1
  O  O99  1  0.29517015  0.51034731  0.07768024  1
  O  O100  1  0.79619163  0.50158291  0.99660959  1
  O  O101  1  0.26622745  0.60655258  0.02465574  1
  O  O102  1  0.64557227  0.16371743  0.99904160  1
  O  O103  1  0.29329530  0.12584651  0.03490792  1
  O  O104  1  0.44766820  0.92498385  0.13785539  1
  O  O105  1  0.55037584  0.31983236  0.10867795  1
  O  O106  1  0.05003875  0.81644344  0.13429109  1
  O  O107  1  0.94580052  0.42061142  0.11010077  1
  O  O108  1  0.08057976  0.43735649  0.18283643  1
  O  O109  1  0.91241397  0.31509166  0.16244215  1
  O  O110  1  0.40801322  0.32339275  0.18315650  1
  O  O111  1  0.58331603  0.43406996  0.15937848  1
  O  O112  1  0.76003172  0.94696919  0.10001565  1
  O  O113  1  0.24675876  0.29575845  0.14461277  1
  O  O114  1  0.74844443  0.79119856  0.10448230  1
  O  O115  1  0.25239609  0.45459229  0.14301012  1
  O  O116  1  0.11680047  0.98442031  0.14606142  1
  O  O117  1  0.88242976  0.25263614  0.10269193  1
  O  O118  1  0.37872539  0.75431431  0.14619372  1
  O  O119  1  0.62105259  0.48516798  0.09772553  1
  O  O120  1  0.77945905  0.00692352  0.15974405  1
  O  O121  1  0.20877030  0.72194440  0.18518734  1
  O  O122  1  0.71197957  0.72810148  0.16170061  1
  O  O123  1  0.27292940  0.01352547  0.18841274  1
  O  O124  1  0.78245694  0.12219226  0.11341529  1
  O  O125  1  0.20414332  0.12302182  0.14004600  1
  O  O126  1  0.70296735  0.61904710  0.11379667  1
  O  O127  1  0.28959294  0.61854439  0.13445620  1
  O  O128  1  0.44144429  0.42360014  0.23607125  1
  O  O129  1  0.54865690  0.81713829  0.21281847  1
  O  O130  1  0.05050835  0.31764999  0.23447745  1
  O  O131  1  0.94342063  0.92412054  0.21158814  1
  O  O132  1  0.08022386  0.92279192  0.28305502  1
  O  O133  1  0.91482569  0.81184071  0.26311947  1
  O  O134  1  0.41185701  0.80860294  0.28448935  1
  O  O135  1  0.58264320  0.92843775  0.26358518  1
  O  O136  1  0.74926649  0.45761594  0.19861803  1
  O  O137  1  0.25264857  0.78861719  0.24403399  1
  O  O138  1  0.73431206  0.30193107  0.20049953  1
  O  O139  1  0.24767863  0.95004134  0.24636468  1
  O  O140  1  0.11609152  0.48243950  0.24652283  1
  O  O141  1  0.87656745  0.75886782  0.20228321  1
  O  O142  1  0.38205870  0.25392780  0.24344827  1
  O  O143  1  0.61096049  0.98771778  0.20272603  1
  O  O144  1  0.77884688  0.51222842  0.26005137  1
  O  O145  1  0.21678814  0.23335305  0.28639486  1
  O  O146  1  0.71844319  0.22695011  0.25867658  1
  O  O147  1  0.27694643  0.51414730  0.28758092  1
  O  O148  1  0.79328755  0.61981688  0.21031717  1
  O  O149  1  0.19679478  0.62028219  0.23718061  1
  O  O150  1  0.70260474  0.12375827  0.20681656  1
  O  O151  1  0.28776441  0.12009189  0.23837457  1
  O  O152  1  0.45039467  0.92258392  0.33398583  1
  O  O153  1  0.55670683  0.31587118  0.31076689  1
  O  O154  1  0.05492424  0.81559570  0.33597294  1
  O  O155  1  0.94183177  0.42432437  0.31195129  1
  O  O156  1  0.08622710  0.42858102  0.38578890  1
  O  O157  1  0.91284299  0.30720258  0.36301926  1
  O  O158  1  0.41399788  0.30595036  0.38643311  1
  O  O159  1  0.58686355  0.42537523  0.36335744  1
  O  O160  1  0.74922632  0.94699840  0.30252180  1
  O  O161  1  0.23766491  0.29011970  0.34771365  1
  O  O162  1  0.75069661  0.78660115  0.30120080  1
  O  O163  1  0.26405897  0.44219381  0.34713963  1
  O  O164  1  0.12057779  0.98356133  0.34237985  1
  O  O165  1  0.88240167  0.25551751  0.30006322  1
  O  O166  1  0.38512689  0.75401267  0.34701567  1
  O  O167  1  0.61519559  0.48348220  0.30111212  1
  O  O168  1  0.78922238  0.01927650  0.36021438  1
  O  O169  1  0.21209464  0.72544691  0.38741542  1
  O  O170  1  0.72905756  0.72493959  0.35991569  1
  O  O171  1  0.28061056  0.01261408  0.38428675  1
  O  O172  1  0.79868844  0.11810524  0.30800198  1
  O  O173  1  0.20784674  0.12149158  0.33597243  1
  O  O174  1  0.69887695  0.62012517  0.31005078  1
  O  O175  1  0.29656668  0.61642994  0.33891607  1
  O  O176  1  0.44365326  0.42261394  0.43685027  1
  O  O177  1  0.54523999  0.81498344  0.40868511  1
  O  O178  1  0.05514127  0.31612536  0.43647901  1
  O  O179  1  0.95003085  0.92204594  0.41066784  1
  O  O180  1  0.09049712  0.93743610  0.48078274  1
  O  O181  1  0.91646826  0.84322111  0.46821257  1
  O  O182  1  0.41579866  0.80734821  0.48224015  1
  O  O183  1  0.59756276  0.91701622  0.45713587  1
  O  O184  1  0.75791197  0.44373368  0.40264374  1
  O  O185  1  0.25042993  0.79186090  0.44344530  1
  O  O186  1  0.74059619  0.28859866  0.40224470  1
  O  O187  1  0.26223977  0.94785058  0.44271971  1
  O  O188  1  0.11586081  0.48725567  0.44568160  1
  O  O189  1  0.87831859  0.75273835  0.40586917  1
  O  O190  1  0.37905843  0.25462364  0.44834889  1
  O  O191  1  0.62369426  0.98153070  0.39789990  1
  O  O192  1  0.79531582  0.51354406  0.46434991  1
  O  O193  1  0.21989722  0.20293800  0.48445362  1
  O  O194  1  0.71135383  0.22407665  0.46470756  1
  O  O195  1  0.28112858  0.51036862  0.48796427  1
  O  O196  1  0.78774006  0.61526366  0.40833418  1
  O  O197  1  0.20581763  0.62204803  0.43827761  1
  O  O198  1  0.70661510  0.12034836  0.41079053  1
  O  O199  1  0.30289807  0.11979793  0.43105599  1
  O  O200  1  0.53616115  0.30567070  0.51569499  1
  O  O201  1  0.98432683  0.40044296  0.51283272  1
  O  O202  1  0.69652381  0.92998649  0.50713394  1
  O  O203  1  0.77101729  0.75920841  0.48832783  1
  O  O204  1  0.03100300  0.86889276  0.54082982  1
  O  O205  1  0.87806634  0.22301822  0.51163726  1
  O  O206  1  0.53451058  0.82978215  0.54593502  1
  O  O207  1  0.66266962  0.45409631  0.50178567  1
  O  O208  1  0.76735445  0.09964412  0.51071216  1
  O  O209  1  0.21470665  0.16503476  0.54814364  1
  O  O210  1  0.71538884  0.59692159  0.51900304  1
  O  O211  1  0.36179287  0.54226484  0.55082040  1
