# generated using pymatgen
data_Na8Zr5Si4P2O27
_symmetry_space_group_name_H-M   'P 1'
_cell_length_a   9.15937100
_cell_length_b   16.04975191
_cell_length_c   55.59154400
_cell_angle_alpha   90.00000000
_cell_angle_beta   90.00000000
_cell_angle_gamma   55.20191359
_symmetry_Int_Tables_number   1
_chemical_formula_structural   Na8Zr5Si4P2O27
_chemical_formula_sum   'Na32 Zr20 Si16 P8 O108'
_cell_volume   6710.80887098
_cell_formula_units_Z   4
loop_
 _symmetry_equiv_pos_site_id
 _symmetry_equiv_pos_as_xyz
  1  'x, y, z'
loop_
 _atom_site_type_symbol
 _atom_site_label
 _atom_site_symmetry_multiplicity
 _atom_site_fract_x
 _atom_site_fract_y
 _atom_site_fract_z
 _atom_site_occupancy
  Na  Na0  1  0.76940929  0.82330197  0.04106007  1
  Na  Na1  1  0.74612551  0.34437729  0.12747812  1
  Na  Na2  1  0.18568111  0.18910781  0.02444816  1
  Na  Na3  1  0.18927117  0.69148936  0.11170764  1
  Na  Na4  1  0.42743647  0.19122778  0.11179873  1
  Na  Na5  1  0.43566079  0.68941134  0.02444783  1
  Na  Na6  1  0.56477605  0.84451479  0.12748404  1
  Na  Na7  1  0.58302478  0.32357118  0.04114007  1
  Na  Na8  1  0.87404922  0.03429063  0.08885204  1
  Na  Na9  1  0.25116897  0.34807455  0.01045831  1
  Na  Na10  1  0.05224472  0.84808467  0.01046305  1
  Na  Na11  1  0.05669734  0.53432527  0.08882001  1
  Na  Na12  1  0.77823332  0.85454486  0.22775654  1
  Na  Na13  1  0.73782848  0.38078260  0.30789416  1
  Na  Na14  1  0.15193754  0.21680163  0.19256387  1
  Na  Na15  1  0.18223883  0.72757788  0.29231869  1
  Na  Na16  1  0.36301023  0.22758863  0.29210121  1
  Na  Na17  1  0.41435867  0.71714883  0.19237382  1
  Na  Na18  1  0.50037157  0.88067506  0.30820341  1
  Na  Na19  1  0.51457396  0.35523989  0.22701106  1
  Na  Na20  1  0.84471093  0.04362765  0.25157895  1
  Na  Na21  1  0.85949651  0.52890684  0.16828557  1
  Na  Na22  1  0.08192184  0.02947792  0.16846423  1
  Na  Na23  1  0.06967493  0.54204481  0.25123184  1
  Na  Na24  1  0.74212786  0.88336130  0.39548152  1
  Na  Na25  1  0.15817709  0.24916328  0.37879258  1
  Na  Na26  1  0.34409749  0.74888295  0.37878020  1
  Na  Na27  1  0.49191067  0.38346218  0.39546010  1
  Na  Na28  1  0.87550687  0.22470314  0.40947240  1
  Na  Na29  1  0.87144698  0.53736161  0.33088184  1
  Na  Na30  1  0.05374651  0.03798238  0.33100632  1
  Na  Na31  1  0.67555860  0.72476010  0.40944274  1
  Zr  Zr32  1  0.83841216  0.91470792  0.13431196  1
  Zr  Zr33  1  0.85665263  0.40826369  0.04839639  1
  Zr  Zr34  1  0.12543933  0.11688930  0.11640817  1
  Zr  Zr35  1  0.18176705  0.58155353  0.03768430  1
  Zr  Zr36  1  0.65500078  0.08131182  0.03764993  1
  Zr  Zr37  1  0.64047614  0.61703040  0.11635492  1
  Zr  Zr38  1  0.32622465  0.90851924  0.04839396  1
  Zr  Zr39  1  0.33206606  0.41468940  0.13426460  1
  Zr  Zr40  1  0.80289595  0.95507450  0.30347504  1
  Zr  Zr41  1  0.81413918  0.43851190  0.21744862  1
  Zr  Zr42  1  0.08947608  0.15728738  0.28551957  1
  Zr  Zr43  1  0.11347503  0.63365240  0.20225310  1
  Zr  Zr44  1  0.61899597  0.13337264  0.20232337  1
  Zr  Zr45  1  0.59595953  0.65738245  0.28549432  1
  Zr  Zr46  1  0.30884566  0.93833817  0.21750676  1
  Zr  Zr47  1  0.28742410  0.45510137  0.30340404  1
  Zr  Zr48  1  0.74558916  0.49124396  0.38220629  1
  Zr  Zr49  1  0.07070406  0.66420641  0.37143369  1
  Zr  Zr50  1  0.60119730  0.16425447  0.37148119  1
  Zr  Zr51  1  0.27267216  0.99125212  0.38221913  1
  Si  Si52  1  0.02541961  0.37134248  0.10663320  1
  Si  Si53  1  0.95421588  0.65804886  0.14275486  1
  Si  Si54  1  0.96294845  0.14989840  0.05628207  1
  Si  Si55  1  0.73678101  0.64975652  0.05618101  1
  Si  Si56  1  0.72950156  0.15793117  0.14281172  1
  Si  Si57  1  0.23172427  0.87143363  0.10662365  1
  Si  Si58  1  0.97344304  0.41408606  0.27693653  1
  Si  Si59  1  0.99802033  0.89063835  0.19390055  1
  Si  Si60  1  0.90316773  0.70060604  0.31313403  1
  Si  Si61  1  0.92947555  0.18140277  0.22596687  1
  Si  Si62  1  0.70735922  0.68139217  0.22593427  1
  Si  Si63  1  0.69577692  0.20077311  0.31310354  1
  Si  Si64  1  0.22038244  0.39046713  0.19382843  1
  Si  Si65  1  0.19850338  0.91410251  0.27703961  1
  Si  Si66  1  0.96469410  0.92262883  0.36368491  1
  Si  Si67  1  0.19077902  0.42262748  0.36365372  1
  P  P68  1  0.54051859  0.00007518  0.08407179  1
  P  P69  1  0.45881978  0.50046145  0.08404324  1
  P  P70  1  0.49792043  0.04575153  0.25249580  1
  P  P71  1  0.51769037  0.52611064  0.16725652  1
  P  P72  1  0.43003728  0.02580908  0.16730231  1
  P  P73  1  0.41003924  0.54620603  0.25248255  1
  P  P74  1  0.46869216  0.57186879  0.33573245  1
  P  P75  1  0.38785643  0.07211206  0.33575216  1
  O  O76  1  0.84618135  0.46289977  0.12052867  1
  O  O77  1  0.15147503  0.06737538  0.04285081  1
  O  O78  1  0.12642456  0.56901704  0.12701265  1
  O  O79  1  0.73501476  0.06905582  0.12704501  1
  O  O80  1  0.71448502  0.56694619  0.04268245  1
  O  O81  1  0.22818236  0.96283572  0.12052967  1
  O  O82  1  0.59224233  0.95827946  0.15079230  1
  O  O83  1  0.58630532  0.45101779  0.06258663  1
  O  O84  1  0.36730403  0.07184339  0.09855795  1
  O  O85  1  0.19072521  0.68198041  0.02124068  1
  O  O86  1  0.44527819  0.18194094  0.02121889  1
  O  O87  1  0.48831394  0.57225325  0.09855147  1
  O  O88  1  0.51244241  0.95013087  0.06267335  1
  O  O89  1  0.49063340  0.45854247  0.15073705  1
  O  O90  1  0.68839171  0.92046424  0.10104085  1
  O  O91  1  0.26009828  0.09830379  0.15194073  1
  O  O92  1  0.26249783  0.57008338  0.07415265  1
  O  O93  1  0.59722417  0.06977172  0.07411670  1
  O  O94  1  0.54326968  0.59838349  0.15192759  1
  O  O95  1  0.47079878  0.42055532  0.10097655  1
  O  O96  1  0.95290643  0.90976171  0.16497087  1
  O  O97  1  0.00258522  0.39071000  0.07738728  1
  O  O98  1  0.99263803  0.13111477  0.08574706  1
  O  O99  1  0.32202313  0.45004960  0.02407265  1
  O  O100  1  0.77716689  0.94989499  0.02398798  1
  O  O101  1  0.74460345  0.63089792  0.08564906  1
  O  O102  1  0.21565382  0.89082905  0.07738238  1
  O  O103  1  0.22727713  0.40966833  0.16489842  1
  O  O104  1  0.00275782  0.36559462  0.02147339  1
  O  O105  1  0.05661437  0.87143857  0.11329725  1
  O  O106  1  0.92709440  0.63432167  0.04878555  1
  O  O107  1  0.90506306  0.15920931  0.13695834  1
  O  O108  1  0.77594400  0.65949078  0.13689974  1
  O  O109  1  0.80444799  0.13381320  0.04877577  1
  O  O110  1  0.20079262  0.37113786  0.11327037  1
  O  O111  1  0.26472513  0.86627203  0.02147126  1
  O  O112  1  0.91543750  0.76667313  0.13456571  1
  O  O113  1  0.88981781  0.26565588  0.04872555  1
  O  O114  1  0.05783228  0.26371038  0.11451017  1
  O  O115  1  0.41447011  0.76378813  0.11449756  1
  O  O116  1  0.57777601  0.76534611  0.04859629  1
  O  O117  1  0.55111559  0.26663245  0.13461624  1
  O  O118  1  0.82743104  0.97935159  0.20960612  1
  O  O119  1  0.80095683  0.50290295  0.29268121  1
  O  O120  1  0.10039195  0.09255755  0.21030953  1
  O  O121  1  0.08257872  0.60919395  0.29926699  1
  O  O122  1  0.69991511  0.10915090  0.29920109  1
  O  O123  1  0.71489315  0.59241516  0.21022690  1
  O  O124  1  0.19268830  0.00301233  0.29283082  1
  O  O125  1  0.21328955  0.47938386  0.20949919  1
  O  O126  1  0.56131098  0.00011131  0.32133871  1
  O  O127  1  0.57365929  0.47940153  0.23591510  1
  O  O128  1  0.33552767  0.11316150  0.26897995  1
  O  O129  1  0.35393034  0.59306764  0.18379282  1
  O  O130  1  0.45994253  0.09263091  0.18388205  1
  O  O131  1  0.43690838  0.61399478  0.26893565  1
  O  O132  1  0.46869260  0.97867407  0.23591932  1
  O  O133  1  0.43960372  0.49969498  0.32133629  1
  O  O134  1  0.66800290  0.97351520  0.26786807  1
  O  O135  1  0.68685180  0.45694719  0.18250699  1
  O  O136  1  0.24022172  0.15139731  0.31869993  1
  O  O137  1  0.24060658  0.61501115  0.23724904  1
  O  O138  1  0.52862695  0.11515779  0.23731132  1
  O  O139  1  0.45730731  0.65131508  0.31868031  1
  O  O140  1  0.39852176  0.95677995  0.18249460  1
  O  O141  1  0.38533564  0.47376744  0.26790545  1
  O  O142  1  0.93506746  0.94117346  0.33418895  1
  O  O143  1  0.93414221  0.43545613  0.24815179  1
  O  O144  1  0.97428491  0.16232442  0.25490468  1
  O  O145  1  0.99399946  0.63658617  0.17153264  1
  O  O146  1  0.73260784  0.13640497  0.17158998  1
  O  O147  1  0.70080420  0.66218322  0.25485292  1
  O  O148  1  0.19523169  0.93559810  0.24826273  1
  O  O149  1  0.18365412  0.44097292  0.33416019  1
  O  O150  1  0.04079789  0.39144773  0.19738856  1
  O  O151  1  0.02313729  0.91269713  0.28291381  1
  O  O152  1  0.88697399  0.68038078  0.22231372  1
  O  O153  1  0.87114553  0.20072118  0.30654053  1
  O  O154  1  0.72804712  0.70054742  0.30647490  1
  O  O155  1  0.75210905  0.18020685  0.22232061  1
  O  O156  1  0.15121827  0.41309038  0.28286614  1
  O  O157  1  0.17549244  0.89174334  0.19748363  1
  O  O158  1  0.87061474  0.80827206  0.30525475  1
  O  O159  1  0.88627626  0.29130047  0.21775550  1
  O  O160  1  0.01269662  0.30531866  0.28511317  1
  O  O161  1  0.04119131  0.78076650  0.20209416  1
  O  O162  1  0.39710224  0.28064460  0.20204141  1
  O  O163  1  0.37714421  0.80549841  0.28522656  1
  O  O164  1  0.53036761  0.79104674  0.21773051  1
  O  O165  1  0.51328512  0.30828149  0.30510927  1
  O  O166  1  0.77637222  0.00541924  0.37711680  1
  O  O167  1  0.21361951  0.50539696  0.37707906  1
  O  O168  1  0.73707780  0.39083545  0.39873553  1
  O  O169  1  0.34030446  0.62221778  0.35707625  1
  O  O170  1  0.41542756  0.12236912  0.35712069  1
  O  O171  1  0.48207461  0.89107712  0.39875873  1
  O  O172  1  0.66467687  0.50264999  0.34574454  1
  O  O173  1  0.33094013  0.00255965  0.34575460  1
  O  O174  1  0.60493234  0.62261859  0.39588417  1
  O  O175  1  0.92571387  0.68146060  0.34237974  1
  O  O176  1  0.71070996  0.18181689  0.34235644  1
  O  O177  1  0.15009517  0.12274023  0.39583400  1
  O  O178  1  0.00000188  0.43864973  0.37104258  1
  O  O179  1  0.92402139  0.70671879  0.39829472  1
  O  O180  1  0.66291346  0.20681466  0.39833270  1
  O  O181  1  0.12365729  0.93842186  0.37110707  1
  O  O182  1  0.03731266  0.80700131  0.37134211  1
  O  O183  1  0.34909122  0.30702439  0.37137387  1
