# generated using pymatgen
data_Na11Zr6Si6P3O37
_symmetry_space_group_name_H-M   'P 1'
_cell_length_a   9.07514300
_cell_length_b   9.06848800
_cell_length_c   45.56167100
_cell_angle_alpha   90.00000000
_cell_angle_beta   90.00000000
_cell_angle_gamma   90.00000000
_symmetry_Int_Tables_number   1
_chemical_formula_structural   Na11Zr6Si6P3O37
_chemical_formula_sum   'Na22 Zr12 Si12 P6 O74'
_cell_volume   3749.62644461
_cell_formula_units_Z   2
loop_
 _symmetry_equiv_pos_site_id
 _symmetry_equiv_pos_as_xyz
  1  'x, y, z'
loop_
 _atom_site_type_symbol
 _atom_site_label
 _atom_site_symmetry_multiplicity
 _atom_site_fract_x
 _atom_site_fract_y
 _atom_site_fract_z
 _atom_site_occupancy
  Na  Na0  1  0.83721895  0.81057110  0.03839173  1
  Na  Na1  1  0.66477186  0.42535311  0.02697688  1
  Na  Na2  1  0.09442835  0.16681196  0.03090319  1
  Na  Na3  1  0.39259219  0.96479526  0.05755693  1
  Na  Na4  1  0.60909006  0.45583140  0.10313264  1
  Na  Na5  1  0.08388734  0.27049919  0.10540524  1
  Na  Na6  1  0.23658250  0.23637193  0.19781908  1
  Na  Na7  1  0.94486238  0.99657257  0.15509075  1
  Na  Na8  1  0.45094369  0.76215289  0.15712520  1
  Na  Na9  1  0.73943434  0.50225805  0.19601808  1
  Na  Na10  1  0.08535897  0.97388130  0.24961392  1
  Na  Na11  1  0.58512995  0.77449412  0.24969864  1
  Na  Na12  1  0.71929853  0.76088475  0.34206252  1
  Na  Na13  1  0.43060889  0.50150622  0.30308783  1
  Na  Na14  1  0.93375109  0.23646018  0.30125281  1
  Na  Na15  1  0.22590778  0.99573478  0.34403713  1
  Na  Na16  1  0.56091000  0.45463773  0.39617945  1
  Na  Na17  1  0.08636237  0.26943829  0.39376086  1
  Na  Na18  1  0.07556121  0.16610854  0.46836026  1
  Na  Na19  1  0.77833858  0.96388958  0.44151979  1
  Na  Na20  1  0.33231264  0.80962224  0.46081220  1
  Na  Na21  1  0.50548410  0.42498294  0.47220985  1
  Zr  Zr22  1  0.30862290  0.60660457  0.07977484  1
  Zr  Zr23  1  0.38933554  0.13383523  0.13350184  1
  Zr  Zr24  1  0.88755693  0.62333924  0.13220149  1
  Zr  Zr25  1  0.80908308  0.13036997  0.06847959  1
  Zr  Zr26  1  0.80021303  0.12278506  0.21969701  1
  Zr  Zr27  1  0.87139997  0.62918333  0.27842822  1
  Zr  Zr28  1  0.37091561  0.12243498  0.27944085  1
  Zr  Zr29  1  0.29947721  0.62932727  0.22073213  1
  Zr  Zr30  1  0.28293101  0.62239209  0.36695323  1
  Zr  Zr31  1  0.36081265  0.12941310  0.43075426  1
  Zr  Zr32  1  0.86126112  0.60539964  0.41937478  1
  Zr  Zr33  1  0.78103602  0.13321361  0.36570006  1
  Si  Si34  1  0.93970594  0.49704916  0.06052464  1
  Si  Si35  1  0.42786149  0.27080211  0.06026349  1
  Si  Si36  1  0.43625009  0.98717787  0.20860148  1
  Si  Si37  1  0.75654193  0.26104040  0.14480330  1
  Si  Si38  1  0.24974897  0.48272471  0.14719357  1
  Si  Si39  1  0.93472528  0.76386827  0.20780725  1
  Si  Si40  1  0.92107511  0.48162487  0.35195714  1
  Si  Si41  1  0.23593057  0.76357371  0.29135473  1
  Si  Si42  1  0.73444265  0.98691491  0.29052963  1
  Si  Si43  1  0.41401753  0.26027026  0.35443346  1
  Si  Si44  1  0.74213318  0.26986971  0.43896275  1
  Si  Si45  1  0.22995067  0.49581829  0.43862094  1
  P  P46  1  0.59892865  0.83282800  0.09999833  1
  P  P47  1  0.10522024  0.91993351  0.10065329  1
  P  P48  1  0.08564026  0.33344970  0.24957549  1
  P  P49  1  0.58559432  0.41744034  0.24961016  1
  P  P50  1  0.57100031  0.83228906  0.39922608  1
  P  P51  1  0.06508107  0.91852368  0.39848462  1
  O  O52  1  0.85305422  0.54930486  0.09068360  1
  O  O53  1  0.85121986  0.18451446  0.11869602  1
  O  O54  1  0.35900251  0.54604709  0.12036865  1
  O  O55  1  0.35472914  0.22681478  0.09241108  1
  O  O56  1  0.22050813  0.82395224  0.08366584  1
  O  O57  1  0.48902621  0.93695382  0.11594543  1
  O  O58  1  0.99176237  0.82096137  0.11663731  1
  O  O59  1  0.71066263  0.92062011  0.08181342  1
  O  O60  1  0.03259646  0.02286799  0.07823203  1
  O  O61  1  0.66808981  0.73346418  0.12390288  1
  O  O62  1  0.18245984  0.01153922  0.12507046  1
  O  O63  1  0.50878343  0.73843781  0.07727900  1
  O  O64  1  0.11744520  0.53824386  0.06579292  1
  O  O65  1  0.57991365  0.23637664  0.13819774  1
  O  O66  1  0.08385779  0.52354025  0.13636624  1
  O  O67  1  0.60895108  0.23911968  0.06274182  1
  O  O68  1  0.42764344  0.45590217  0.05690097  1
  O  O69  1  0.93861086  0.31534649  0.06034142  1
  O  O70  1  0.86416211  0.56867351  0.03206920  1
  O  O71  1  0.34682059  0.18080015  0.03467520  1
  O  O72  1  0.84814818  0.05555147  0.03094628  1
  O  O73  1  0.33246718  0.06211125  0.23400035  1
  O  O74  1  0.33773314  0.68845773  0.26553093  1
  O  O75  1  0.83846256  0.06179979  0.26515840  1
  O  O76  1  0.83284403  0.68911486  0.23366486  1
  O  O77  1  0.70182293  0.32357150  0.23357445  1
  O  O78  1  0.96967428  0.42736249  0.26563046  1
  O  O79  1  0.47007022  0.32288672  0.26566843  1
  O  O80  1  0.20149196  0.42733840  0.23348808  1
  O  O81  1  0.51342011  0.51610938  0.22580938  1
  O  O82  1  0.15753663  0.23471055  0.27334578  1
  O  O83  1  0.65708245  0.51673059  0.27339082  1
  O  O84  1  0.01384067  0.23443265  0.22585071  1
  O  O85  1  0.60934424  0.01926405  0.21627657  1
  O  O86  1  0.06299987  0.73022467  0.28331880  1
  O  O87  1  0.56149442  0.01794637  0.28258347  1
  O  O88  1  0.10766953  0.73005882  0.21583888  1
  O  O89  1  0.92497224  0.94471725  0.20721589  1
  O  O90  1  0.25760192  0.30329037  0.14961955  1
  O  O91  1  0.77106113  0.44292635  0.14674454  1
  O  O92  1  0.42469310  0.80634799  0.20810050  1
  O  O93  1  0.80468262  0.19473747  0.17693909  1
  O  O94  1  0.38854928  0.04635074  0.17598477  1
  O  O95  1  0.88362851  0.70325502  0.17554561  1
  O  O96  1  0.30512973  0.56096826  0.17712294  1
  O  O97  1  0.81160451  0.54500214  0.37874085  1
  O  O98  1  0.81549446  0.22616338  0.40680946  1
  O  O99  1  0.31678300  0.54809242  0.40847879  1
  O  O100  1  0.31890545  0.18357743  0.38044896  1
  O  O101  1  0.17860147  0.81974878  0.38249289  1
  O  O102  1  0.45948350  0.91981771  0.41749904  1
  O  O103  1  0.94972216  0.82251050  0.41544734  1
  O  O104  1  0.68097095  0.93657280  0.38332348  1
  O  O105  1  0.98781181  0.01028282  0.37409091  1
  O  O106  1  0.66125179  0.73739397  0.42184896  1
  O  O107  1  0.13769410  0.02128892  0.42094660  1
  O  O108  1  0.50167875  0.73330548  0.37527504  1
  O  O109  1  0.08691350  0.52214464  0.36282797  1
  O  O110  1  0.56097964  0.23826279  0.43645933  1
  O  O111  1  0.05226295  0.53707896  0.43339984  1
  O  O112  1  0.59051951  0.23605253  0.36119912  1
  O  O113  1  0.39940699  0.44214045  0.35239268  1
  O  O114  1  0.74658238  0.80610647  0.29119953  1
  O  O115  1  0.24623326  0.94437530  0.29188205  1
  O  O116  1  0.91316873  0.30218660  0.34953197  1
  O  O117  1  0.28684938  0.70291512  0.32363059  1
  O  O118  1  0.86615261  0.55987682  0.32199552  1
  O  O119  1  0.36703339  0.19380888  0.32222336  1
  O  O120  1  0.78091378  0.04671466  0.32315973  1
  O  O121  1  0.23078972  0.31412772  0.43875340  1
  O  O122  1  0.74203378  0.45503433  0.44232234  1
  O  O123  1  0.82316627  0.17981408  0.46453940  1
  O  O124  1  0.32153783  0.05488310  0.46830090  1
  O  O125  1  0.30548193  0.56743806  0.46708954  1
