# generated using pymatgen
data_Na15Zr10Si8P5O56
_symmetry_space_group_name_H-M   'P 1'
_cell_length_a   9.06848800
_cell_length_b   15.86993085
_cell_length_c   54.42536400
_cell_angle_alpha   90.00000000
_cell_angle_beta   90.00000000
_cell_angle_gamma   55.15028861
_symmetry_Int_Tables_number   1
_chemical_formula_structural   Na15Zr10Si8P5O56
_chemical_formula_sum   'Na30 Zr20 Si16 P10 O112'
_cell_volume   6427.93103981
_cell_formula_units_Z   2
loop_
 _symmetry_equiv_pos_site_id
 _symmetry_equiv_pos_as_xyz
  1  'x, y, z'
loop_
 _atom_site_type_symbol
 _atom_site_label
 _atom_site_symmetry_multiplicity
 _atom_site_fract_x
 _atom_site_fract_y
 _atom_site_fract_z
 _atom_site_occupancy
  Na  Na0  1  0.81694977  0.82203232  0.10120552  1
  Na  Na1  1  0.16239708  0.29937712  0.01477352  1
  Na  Na2  1  0.21944610  0.17989243  0.07209838  1
  Na  Na3  1  0.18223469  0.69634812  0.14960403  1
  Na  Na4  1  0.42568809  0.19649953  0.14947104  1
  Na  Na5  1  0.42044674  0.67982686  0.07215818  1
  Na  Na6  1  0.23914348  0.79945922  0.01482049  1
  Na  Na7  1  0.53885008  0.32221119  0.10112427  1
  Na  Na8  1  0.87723603  0.02002780  0.12363471  1
  Na  Na9  1  0.81122172  0.56931983  0.03555211  1
  Na  Na10  1  0.04975862  0.06938305  0.03552701  1
  Na  Na11  1  0.08275402  0.52019492  0.12365945  1
  Na  Na12  1  0.76598336  0.85671278  0.26730941  1
  Na  Na13  1  0.78553452  0.34477912  0.18008040  1
  Na  Na14  1  0.16212386  0.20827655  0.23680648  1
  Na  Na15  1  0.13079478  0.73089984  0.31566099  1
  Na  Na16  1  0.40788409  0.23103260  0.31549443  1
  Na  Na17  1  0.42133673  0.70828025  0.23685705  1
  Na  Na18  1  0.52533530  0.84465750  0.18006297  1
  Na  Na19  1  0.52073320  0.35678464  0.26724393  1
  Na  Na20  1  0.86452311  0.03294429  0.29300031  1
  Na  Na21  1  0.86555071  0.52624005  0.20830020  1
  Na  Na22  1  0.08192088  0.02630659  0.20830133  1
  Na  Na23  1  0.06942418  0.53296553  0.29302748  1
  Na  Na24  1  0.72676183  0.37363113  0.34452673  1
  Na  Na25  1  0.78526669  0.25392907  0.40166926  1
  Na  Na26  1  0.70678381  0.75365911  0.40172395  1
  Na  Na27  1  0.52558277  0.87369125  0.34457557  1
  Na  Na28  1  0.89676881  0.48433790  0.38129515  1
  Na  Na29  1  0.13402527  0.98506138  0.38128350  1
  Zr  Zr30  1  0.79940775  0.97826820  0.01842310  1
  Zr  Zr31  1  0.84154844  0.41184821  0.08399622  1
  Zr  Zr32  1  0.12362973  0.12088612  0.15770704  1
  Zr  Zr33  1  0.14596561  0.59856816  0.07393385  1
  Zr  Zr34  1  0.65669562  0.09849506  0.07393094  1
  Zr  Zr35  1  0.63482049  0.62084532  0.15773515  1
  Zr  Zr36  1  0.33466778  0.91190659  0.08399781  1
  Zr  Zr37  1  0.24372659  0.47856579  0.01842451  1
  Zr  Zr38  1  0.83716979  0.91888503  0.17280474  1
  Zr  Zr39  1  0.82323653  0.43230024  0.25898854  1
  Zr  Zr40  1  0.10488885  0.14139900  0.33265264  1
  Zr  Zr41  1  0.10985587  0.63414503  0.24386184  1
  Zr  Zr42  1  0.62176915  0.13412125  0.24382621  1
  Zr  Zr43  1  0.61230282  0.64146925  0.33269893  1
  Zr  Zr44  1  0.31216391  0.93221760  0.25898231  1
  Zr  Zr45  1  0.32518715  0.41891000  0.17281605  1
  Zr  Zr46  1  0.80028584  0.95498922  0.34268612  1
  Zr  Zr47  1  0.14708557  0.57504163  0.39821909  1
  Zr  Zr48  1  0.70275343  0.07522386  0.39819434  1
  Zr  Zr49  1  0.28963353  0.45488517  0.34269329  1
  Si  Si50  1  0.01207300  0.37779937  0.14602986  1
  Si  Si51  1  0.03153372  0.85328028  0.06667049  1
  Si  Si52  1  0.95598848  0.15554045  0.09660561  1
  Si  Si53  1  0.73258543  0.65552526  0.09663321  1
  Si  Si54  1  0.26175075  0.35340790  0.06666672  1
  Si  Si55  1  0.23245328  0.87779488  0.14603320  1
  Si  Si56  1  0.99035043  0.39767009  0.32010502  1
  Si  Si57  1  0.99694158  0.89085397  0.23389896  1
  Si  Si58  1  0.95027624  0.66215390  0.18276164  1
  Si  Si59  1  0.93478548  0.17527949  0.27060671  1
  Si  Si60  1  0.71467546  0.67534280  0.27067518  1
  Si  Si61  1  0.72569482  0.16226679  0.18276084  1
  Si  Si62  1  0.22126891  0.39081111  0.23389808  1
  Si  Si63  1  0.21400527  0.89766635  0.32008684  1
  Si  Si64  1  0.91474900  0.70035982  0.35000225  1
  Si  Si65  1  0.68456949  0.20021421  0.34995909  1
  P  P66  1  0.53134084  0.00808281  0.12318228  1
  P  P67  1  0.52560243  0.52494871  0.03460715  1
  P  P68  1  0.42408369  0.02512556  0.03457888  1
  P  P69  1  0.45259464  0.50812991  0.12314967  1
  P  P70  1  0.49375009  0.04541008  0.29344507  1
  P  P71  1  0.51587369  0.52665158  0.20837275  1
  P  P72  1  0.43109185  0.02637480  0.20834816  1
  P  P73  1  0.41545484  0.54545490  0.29349275  1
  P  P74  1  0.52227441  0.52849296  0.38196071  1
  P  P75  1  0.42052353  0.02871591  0.38199662  1
  O  O76  1  0.86794949  0.94513459  0.08347683  1
  O  O77  1  0.11997084  0.45215963  0.99662010  1
  O  O78  1  0.12444669  0.06656846  0.08007292  1
  O  O79  1  0.11627581  0.57285983  0.16571797  1
  O  O80  1  0.73840232  0.07289274  0.16573799  1
  O  O81  1  0.74202153  0.56662352  0.08008016  1
  O  O82  1  0.97572567  0.95207575  0.99660049  1
  O  O83  1  0.24152384  0.44523897  0.08349735  1
  O  O84  1  0.55786224  0.98386625  0.01245951  1
  O  O85  1  0.59741364  0.45442271  0.10293757  1
  O  O86  1  0.37118582  0.07133167  0.14091270  1
  O  O87  1  0.38249965  0.55121850  0.05528930  1
  O  O88  1  0.51418768  0.05154693  0.05529466  1
  O  O89  1  0.48654284  0.57129210  0.14087024  1
  O  O90  1  0.49373027  0.95450275  0.10295998  1
  O  O91  1  0.47467235  0.48355598  0.01247616  1
  O  O92  1  0.39959961  0.94357965  0.04578906  1
  O  O93  1  0.44961068  0.42489013  0.13769150  1
  O  O94  1  0.56632535  0.08420392  0.11151591  1
  O  O95  1  0.50859021  0.62488155  0.02833758  1
  O  O96  1  0.24108528  0.12495702  0.02828688  1
  O  O97  1  0.26539345  0.58429551  0.11148551  1
  O  O98  1  0.70085034  0.92474764  0.13769918  1
  O  O99  1  0.71319434  0.44354367  0.04583389  1
  O  O100  1  0.96393210  0.85268345  0.03870870  1
  O  O101  1  0.96016243  0.40100625  0.11674737  1
  O  O102  1  0.00250252  0.13344544  0.12589803  1
  O  O103  1  0.05378039  0.58484574  0.04152088  1
  O  O104  1  0.77633566  0.08467676  0.04151043  1
  O  O105  1  0.73093653  0.63325726  0.12593479  1
  O  O106  1  0.23775644  0.90106828  0.11674552  1
  O  O107  1  0.33033410  0.35303506  0.03871157  1
  O  O108  1  0.07349760  0.36097676  0.06408050  1
  O  O109  1  0.05446576  0.87525641  0.15012642  1
  O  O110  1  0.91133018  0.65585621  0.09294461  1
  O  O111  1  0.77670848  0.15578209  0.09296974  1
  O  O112  1  0.19497929  0.37542675  0.15012220  1
  O  O113  1  0.20443795  0.86104796  0.06406675  1
  O  O114  1  0.91445932  0.26435882  0.08699598  1
  O  O115  1  0.05592116  0.26794967  0.15556754  1
  O  O116  1  0.09968572  0.74212921  0.07861311  1
  O  O117  1  0.41621047  0.24220965  0.07855674  1
  O  O118  1  0.40844612  0.76796801  0.15556501  1
  O  O119  1  0.55636834  0.76439481  0.08709619  1
  O  O120  1  0.83081924  0.98015085  0.25094235  1
  O  O121  1  0.84722851  0.46664132  0.16339887  1
  O  O122  1  0.09973343  0.08635270  0.25327063  1
  O  O123  1  0.07812935  0.60822909  0.33321375  1
  O  O124  1  0.70502451  0.10825774  0.33314822  1
  O  O125  1  0.72764503  0.58640518  0.25333551  1
  O  O126  1  0.21940710  0.96673008  0.16337032  1
  O  O127  1  0.20881471  0.48009147  0.25094426  1
  O  O128  1  0.58836313  0.96498823  0.19006945  1
  O  O129  1  0.57583308  0.48173850  0.27581398  1
  O  O130  1  0.34897090  0.09885440  0.31367686  1
  O  O131  1  0.35894252  0.58805014  0.22668964  1
  O  O132  1  0.46515592  0.08786797  0.22665226  1
  O  O133  1  0.45350006  0.59894711  0.31368664  1
  O  O134  1  0.46063337  0.98177761  0.27577297  1
  O  O135  1  0.48147094  0.46519201  0.19010122  1
  O  O136  1  0.40843627  0.94845759  0.22210129  1
  O  O137  1  0.37966889  0.46969441  0.30518032  1
  O  O138  1  0.49598192  0.12885101  0.27890067  1
  O  O139  1  0.53856637  0.60447513  0.19458159  1
  O  O140  1  0.25273426  0.10423554  0.19456349  1
  O  O141  1  0.24628916  0.62883119  0.27894587  1
  O  O142  1  0.68116549  0.96955775  0.30510560  1
  O  O143  1  0.69443429  0.44876558  0.22211627  1
  O  O144  1  0.95184744  0.91460203  0.20453903  1
  O  O145  1  0.94409450  0.41992423  0.29080639  1
  O  O146  1  0.98638640  0.15202829  0.29990768  1
  O  O147  1  0.99541389  0.63837412  0.21212161  1
  O  O148  1  0.72786767  0.13849798  0.21211842  1
  O  O149  1  0.70988268  0.65213596  0.29998043  1
  O  O150  1  0.21594090  0.91982943  0.29078828  1
  O  O151  1  0.21899737  0.41455930  0.20454673  1
  O  O152  1  0.04781302  0.38475969  0.23795633  1
  O  O153  1  0.03532687  0.89728607  0.32374697  1
  O  O154  1  0.89262770  0.67789027  0.26653204  1
  O  O155  1  0.89906661  0.16843268  0.17874164  1
  O  O156  1  0.76448321  0.66839273  0.17873307  1
  O  O157  1  0.75170577  0.17784490  0.26650832  1
  O  O158  1  0.16999634  0.39711609  0.32376212  1
  O  O159  1  0.18261795  0.88468181  0.23796316  1
  O  O160  1  0.91767501  0.77013653  0.17447542  1
  O  O161  1  0.89142587  0.28508993  0.26112596  1
  O  O162  1  0.03117342  0.28899767  0.32965000  1
  O  O163  1  0.02970388  0.78282601  0.24218080  1
  O  O164  1  0.40450707  0.28275356  0.24219205  1
  O  O165  1  0.39023513  0.78888634  0.32965307  1
  O  O166  1  0.53838400  0.78509034  0.26118966  1
  O  O167  1  0.54238787  0.27023275  0.17446346  1
  O  O168  1  0.82231523  0.48677829  0.33668639  1
  O  O169  1  0.82798279  0.10126774  0.41983398  1
  O  O170  1  0.97008440  0.60090654  0.41989494  1
  O  O171  1  0.20436452  0.98667611  0.33662152  1
  O  O172  1  0.56390110  0.00176553  0.36129791  1
  O  O173  1  0.38851409  0.56981644  0.40408833  1
  O  O174  1  0.47134949  0.07043220  0.40406162  1
  O  O175  1  0.43222594  0.50195707  0.36125979  1
  O  O176  1  0.43694270  0.92902728  0.38837315  1
  O  O177  1  0.54653282  0.61012815  0.37073569  1
  O  O178  1  0.23310743  0.11018330  0.37072634  1
  O  O179  1  0.70528688  0.42871668  0.38826932  1
  O  O180  1  0.89219384  0.96878667  0.37511582  1
  O  O181  1  0.98271944  0.70067613  0.37796472  1
  O  O182  1  0.61562600  0.20075196  0.37791179  1
  O  O183  1  0.17074890  0.46848712  0.37516317  1
  O  O184  1  0.87295989  0.19241478  0.35263554  1
  O  O185  1  0.74169753  0.69277807  0.35266705  1
  O  O186  1  0.84709073  0.81133292  0.33803074  1
  O  O187  1  0.53045566  0.31128108  0.33798968  1
