# generated using pymatgen
data_Na17Zr12Si10(PO13)5
_symmetry_space_group_name_H-M   'P 1'
_cell_length_a   9.15937100
_cell_length_b   16.28925272
_cell_length_c   46.86931700
_cell_angle_alpha   90.00000000
_cell_angle_beta   90.00000000
_cell_angle_gamma   73.67128847
_symmetry_Int_Tables_number   1
_chemical_formula_structural   Na17Zr12Si10(PO13)5
_chemical_formula_sum   'Na34 Zr24 Si20 P10 O130'
_cell_volume   6710.80899833
_cell_formula_units_Z   2
loop_
 _symmetry_equiv_pos_site_id
 _symmetry_equiv_pos_as_xyz
  1  'x, y, z'
loop_
 _atom_site_type_symbol
 _atom_site_label
 _atom_site_symmetry_multiplicity
 _atom_site_fract_x
 _atom_site_fract_y
 _atom_site_fract_z
 _atom_site_occupancy
  Na  Na0  1  0.48015667  0.27426606  0.09458803  1
  Na  Na1  1  0.74835627  0.81461998  0.02627989  1
  Na  Na2  1  0.66827502  0.37878756  0.15030422  1
  Na  Na3  1  0.27543486  0.59895096  0.03068961  1
  Na  Na4  1  0.10945370  0.06842885  0.10054216  1
  Na  Na5  1  0.25926740  0.15145519  0.99928652  1
  Na  Na6  1  0.08593398  0.52303439  0.12640725  1
  Na  Na7  1  0.39833455  0.94134205  0.13806652  1
  Na  Na8  1  0.66536973  0.41287628  0.05034206  1
  Na  Na9  1  0.74001601  0.67781412  0.09227913  1
  Na  Na10  1  0.89422764  0.32959175  0.00085293  1
  Na  Na11  1  0.20934659  0.79271400  0.17220398  1
  Na  Na12  1  0.92914041  0.31750701  0.25072460  1
  Na  Na13  1  0.40423497  0.90221741  0.23049512  1
  Na  Na14  1  0.12530654  0.42685803  0.30887478  1
  Na  Na15  1  0.78567358  0.62756370  0.18712837  1
  Na  Na16  1  0.51204032  0.16702424  0.27020051  1
  Na  Na17  1  0.82164948  0.05205382  0.21071750  1
  Na  Na18  1  0.54578314  0.59316538  0.29414547  1
  Na  Na19  1  0.84800304  0.02006110  0.30055700  1
  Na  Na20  1  0.12817915  0.47260621  0.22011204  1
  Na  Na21  1  0.20478210  0.74733179  0.26086461  1
  Na  Na22  1  0.48537698  0.19935303  0.18049933  1
  Na  Na23  1  0.66702021  0.84537738  0.33178603  1
  Na  Na24  1  0.58374833  0.40492825  0.45459019  1
  Na  Na25  1  0.85549955  0.94714821  0.38700025  1
  Na  Na26  1  0.24620394  0.69692387  0.35475706  1
  Na  Na27  1  0.07443835  0.06779276  0.48170272  1
  Na  Na28  1  0.22344149  0.15121453  0.38075629  1
  Na  Na29  1  0.05832090  0.62024253  0.45029759  1
  Na  Na30  1  0.43970794  0.88947976  0.48024107  1
  Na  Na31  1  0.59381615  0.54204532  0.38859740  1
  Na  Na32  1  0.66814310  0.80625455  0.43069170  1
  Na  Na33  1  0.93490891  0.27829006  0.34292386  1
  Zr  Zr34  1  0.66391877  0.02506515  0.02539336  1
  Zr  Zr35  1  0.46086398  0.52444528  0.10083380  1
  Zr  Zr36  1  0.92275408  0.53807089  0.04567445  1
  Zr  Zr37  1  0.67332749  0.08743755  0.12948632  1
  Zr  Zr38  1  0.33203232  0.81167831  0.09173498  1
  Zr  Zr39  1  0.58248324  0.23786685  0.01680713  1
  Zr  Zr40  1  0.82292539  0.78836297  0.14235518  1
  Zr  Zr41  1  0.08901884  0.25498899  0.06568577  1
  Zr  Zr42  1  0.19868409  0.05680997  0.18610855  1
  Zr  Zr43  1  0.92830230  0.59459943  0.26859773  1
  Zr  Zr44  1  0.40523802  0.62480899  0.21245874  1
  Zr  Zr45  1  0.13486881  0.16263506  0.29502317  1
  Zr  Zr46  1  0.78199752  0.89130350  0.25373359  1
  Zr  Zr47  1  0.04637469  0.35710016  0.16918544  1
  Zr  Zr48  1  0.28731177  0.86208922  0.31193048  1
  Zr  Zr49  1  0.55169779  0.32799437  0.22731060  1
  Zr  Zr50  1  0.65998403  0.13182173  0.35156887  1
  Zr  Zr51  1  0.41089038  0.68094962  0.43544889  1
  Zr  Zr52  1  0.87233915  0.69478302  0.38019780  1
  Zr  Zr53  1  0.66959007  0.19434542  0.45545876  1
  Zr  Zr54  1  0.24434546  0.96413003  0.41539011  1
  Zr  Zr55  1  0.51088753  0.43110812  0.33859386  1
  Zr  Zr56  1  0.75109476  0.98149107  0.46430558  1
  Zr  Zr57  1  0.00144500  0.40763303  0.38924844  1
  Si  Si58  1  0.51741521  0.69478832  0.14475902  1
  Si  Si59  1  0.78749719  0.17137461  0.06475115  1
  Si  Si60  1  0.60211006  0.91923873  0.08951393  1
  Si  Si61  1  0.54629750  0.65245960  0.04462399  1
  Si  Si62  1  0.27921458  0.17696884  0.12977880  1
  Si  Si63  1  0.85722289  0.43141459  0.10192725  1
  Si  Si64  1  0.97835212  0.76977966  0.31060128  1
  Si  Si65  1  0.24011932  0.23560991  0.22584803  1
  Si  Si66  1  0.09299932  0.98395105  0.25529668  1
  Si  Si67  1  0.35469989  0.44958243  0.17049372  1
  Si  Si68  1  0.00202662  0.71494263  0.21205533  1
  Si  Si69  1  0.72888382  0.25606699  0.29604683  1
  Si  Si70  1  0.60447964  0.96315448  0.18500394  1
  Si  Si71  1  0.33164156  0.50460924  0.26896615  1
  Si  Si72  1  0.73130402  0.30051198  0.39147429  1
  Si  Si73  1  0.54625437  0.04759298  0.41631531  1
  Si  Si74  1  0.81628139  0.52448788  0.33619120  1
  Si  Si75  1  0.47613544  0.78767609  0.37913831  1
  Si  Si76  1  0.05464620  0.04260654  0.35131614  1
  Si  Si77  1  0.78696128  0.56666784  0.43640228  1
  P  P78  1  0.04338821  0.93566612  0.13577381  1
  P  P79  1  0.30290912  0.39927294  0.05018530  1
  P  P80  1  0.09503550  0.67450749  0.08783603  1
  P  P81  1  0.50610206  0.01232103  0.30293649  1
  P  P82  1  0.77599717  0.47539699  0.21921039  1
  P  P83  1  0.55747702  0.74408517  0.26181855  1
  P  P84  1  0.82731251  0.20696188  0.17803781  1
  P  P85  1  0.23849338  0.54485410  0.39313375  1
  P  P86  1  0.03045226  0.81984008  0.43100523  1
  P  P87  1  0.29039668  0.28352237  0.34531486  1
  O  O88  1  0.39720706  0.78415909  0.13202006  1
  O  O89  1  0.67211467  0.26572520  0.05569590  1
  O  O90  1  0.71929651  0.83273643  0.10316742  1
  O  O91  1  0.52986397  0.56853492  0.06382008  1
  O  O92  1  0.24266546  0.09270467  0.14433510  1
  O  O93  1  0.89149718  0.51776617  0.08774248  1
  O  O94  1  0.22523502  0.59377852  0.09680837  1
  O  O95  1  0.50302320  0.12986492  0.00939892  1
  O  O96  1  0.90825908  0.01454983  0.12996449  1
  O  O97  1  0.17227422  0.47706367  0.03947634  1
  O  O98  1  0.16244111  0.75148923  0.08385619  1
  O  O99  1  0.99372638  0.85417555  0.14194302  1
  O  O100  1  0.24348873  0.33470384  0.06769311  1
  O  O101  1  0.13731960  0.95012077  0.16213066  1
  O  O102  1  0.40911103  0.43065632  0.07091224  1
  O  O103  1  0.02624456  0.65523708  0.05932956  1
  O  O104  1  0.73959251  0.19255749  0.15122683  1
  O  O105  1  0.14849441  0.92116396  0.10903706  1
  O  O106  1  0.39985272  0.35202855  0.02459959  1
  O  O107  1  0.97716436  0.69131152  0.11268566  1
  O  O108  1  0.09804910  0.24235284  0.02560156  1
  O  O109  1  0.50703739  0.61741946  0.12388401  1
  O  O110  1  0.77606078  0.11602247  0.03525892  1
  O  O111  1  0.59094713  0.99738140  0.11223591  1
  O  O112  1  0.85506741  0.45788374  0.02588340  1
  O  O113  1  0.49107389  0.73431405  0.06859760  1
  O  O114  1  0.18733143  0.26316976  0.14765934  1
  O  O115  1  0.67479372  0.88052190  0.16405476  1
  O  O116  1  0.91970479  0.35295132  0.07971990  1
  O  O117  1  0.74650178  0.94023726  0.99978296  1
  O  O118  1  0.67571824  0.44098711  0.10572341  1
  O  O119  1  0.73366745  0.64333294  0.04148177  1
  O  O120  1  0.45920380  0.17489787  0.13224347  1
  O  O121  1  0.42780845  0.90865087  0.08745518  1
  O  O122  1  0.69872505  0.27135910  0.99010982  1
  O  O123  1  0.69287708  0.70121411  0.14418341  1
  O  O124  1  0.96056539  0.16780876  0.07218955  1
  O  O125  1  0.65045733  0.94165552  0.05749474  1
  O  O126  1  0.40507194  0.46201565  0.13763523  1
  O  O127  1  0.70482475  0.13794208  0.09132588  1
  O  O128  1  0.93898137  0.41825226  0.13315319  1
  O  O129  1  0.44210221  0.66735793  0.01727147  1
  O  O130  1  0.23418299  0.17970524  0.09594829  1
  O  O131  1  0.85686118  0.85375512  0.29600870  1
  O  O132  1  0.12049049  0.32004756  0.21158393  1
  O  O133  1  0.21235569  0.89942877  0.26956185  1
  O  O134  1  0.47629624  0.36575531  0.18510506  1
  O  O135  1  0.96785774  0.62989908  0.22638404  1
  O  O136  1  0.68985735  0.17091598  0.30886617  1
  O  O137  1  0.64305935  0.04847556  0.17223738  1
  O  O138  1  0.36555537  0.58980209  0.25470204  1
  O  O139  1  0.69265355  0.66311886  0.26591807  1
  O  O140  1  0.96399929  0.12776913  0.18427082  1
  O  O141  1  0.36962309  0.09167227  0.29683329  1
  O  O142  1  0.64067982  0.55632270  0.21517110  1
  O  O143  1  0.61433588  0.82370182  0.25671898  1
  O  O144  1  0.87968458  0.28813760  0.17308781  1
  O  O145  1  0.45372950  0.93115266  0.30785745  1
  O  O146  1  0.71941878  0.39566176  0.22429950  1
  O  O147  1  0.59427377  0.02618119  0.32979194  1
  O  O148  1  0.87455785  0.48489420  0.24521586  1
  O  O149  1  0.45905152  0.73461727  0.23577347  1
  O  O150  1  0.19607842  0.26946066  0.31896428  1
  O  O151  1  0.61393141  0.00050882  0.27661114  1
  O  O152  1  0.87395470  0.46446829  0.19170529  1
  O  O153  1  0.45890301  0.75508818  0.28924395  1
  O  O154  1  0.71920778  0.21900223  0.20433398  1
  O  O155  1  0.98442523  0.68673836  0.29001835  1
  O  O156  1  0.25795590  0.15255843  0.20481574  1
  O  O157  1  0.07536835  0.06690634  0.27636176  1
  O  O158  1  0.34913218  0.53262309  0.19106115  1
  O  O159  1  0.93154070  0.79695765  0.23337185  1
  O  O160  1  0.65898638  0.33896208  0.31690028  1
  O  O161  1  0.14714650  0.95636778  0.33353621  1
  O  O162  1  0.40306410  0.42260923  0.24771366  1
  O  O163  1  0.41942631  0.97460157  0.18686871  1
  O  O164  1  0.14787790  0.51299793  0.27000607  1
  O  O165  1  0.18585526  0.70627800  0.21091285  1
  O  O166  1  0.91397001  0.24448340  0.29424465  1
  O  O167  1  0.91974400  0.97320351  0.25258050  1
  O  O168  1  0.18020070  0.44037119  0.16997893  1
  O  O169  1  0.15277523  0.77918722  0.31117058  1
  O  O170  1  0.41328198  0.24651802  0.22849919  1
  O  O171  1  0.15426643  0.99942138  0.22344533  1
  O  O172  1  0.87361733  0.53333798  0.30388012  1
  O  O173  1  0.46092462  0.68579842  0.17713646  1
  O  O174  1  0.17913649  0.22014204  0.25771566  1
  O  O175  1  0.67454096  0.94775707  0.21729692  1
  O  O176  1  0.40161776  0.49170064  0.30138609  1
  O  O177  1  0.93129644  0.72788453  0.17969912  1
  O  O178  1  0.65918578  0.27124080  0.26372274  1
  O  O179  1  0.61508259  0.38721700  0.37776411  1
  O  O180  1  0.66167487  0.95331511  0.42545698  1
  O  O181  1  0.93614120  0.43505151  0.34896777  1
  O  O182  1  0.44202183  0.70136512  0.39339540  1
  O  O183  1  0.09126901  0.12696763  0.33686363  1
  O  O184  1  0.80261767  0.65053780  0.41710937  1
  O  O185  1  0.16133495  0.74221995  0.44174464  1
  O  O186  1  0.42486115  0.20427882  0.35114502  1
  O  O187  1  0.83072023  0.08960729  0.47143892  1
  O  O188  1  0.10811949  0.62552624  0.38417629  1
  O  O189  1  0.08975983  0.88442458  0.41345629  1
  O  O190  1  0.34106817  0.36468771  0.33914866  1
  O  O191  1  0.17114305  0.46780006  0.39700726  1
  O  O192  1  0.30674512  0.56410618  0.42170360  1
  O  O193  1  0.92436071  0.78819020  0.41035460  1
  O  O194  1  0.23566935  0.97649572  0.45547732  1
  O  O195  1  0.35660499  0.52813023  0.36833963  1
  O  O196  1  0.93360740  0.86725627  0.45657300  1
  O  O197  1  0.18536728  0.29833576  0.37205971  1
  O  O198  1  0.47897448  0.76111800  0.45516370  1
  O  O199  1  0.74108043  0.22220532  0.36885891  1
  O  O200  1  0.55761565  0.10312978  0.44576332  1
  O  O201  1  0.82658793  0.60180789  0.35709577  1
  O  O202  1  0.41351158  0.86631342  0.40127710  1
  O  O203  1  0.84235732  0.48479498  0.41242238  1
  O  O204  1  0.87460663  0.04473455  0.34876509  1
  O  O205  1  0.59971641  0.57554790  0.43965744  1
  O  O206  1  0.65754770  0.77831399  0.37536322  1
  O  O207  1  0.58659349  0.27882295  0.48113925  1
  O  O208  1  0.37316984  0.05116852  0.40889328  1
  O  O209  1  0.64070731  0.51833518  0.33667834  1
  O  O210  1  0.63465795  0.94829042  0.49104115  1
  O  O211  1  0.90611905  0.31032121  0.39348989  1
  O  O212  1  0.62935159  0.08072566  0.38972651  1
  O  O213  1  0.92806646  0.75747403  0.34347748  1
  O  O214  1  0.68264636  0.27846350  0.42350667  1
  O  O215  1  0.09852686  0.03972216  0.38523200  1
  O  O216  1  0.89166651  0.55199601  0.46368030  1
  O  O217  1  0.39403456  0.80072677  0.34796191  1
