# generated using pymatgen
data_Na8Zr5Si5P2O29
_symmetry_space_group_name_H-M   'P 1'
_cell_length_a   9.06848800
_cell_length_b   15.86993085
_cell_length_c   54.42536400
_cell_angle_alpha   90.00000000
_cell_angle_beta   90.00000000
_cell_angle_gamma   55.15028861
_symmetry_Int_Tables_number   1
_chemical_formula_structural   Na8Zr5Si5P2O29
_chemical_formula_sum   'Na32 Zr20 Si20 P8 O116'
_cell_volume   6427.93103981
_cell_formula_units_Z   4
loop_
 _symmetry_equiv_pos_site_id
 _symmetry_equiv_pos_as_xyz
  1  'x, y, z'
loop_
 _atom_site_type_symbol
 _atom_site_label
 _atom_site_symmetry_multiplicity
 _atom_site_fract_x
 _atom_site_fract_y
 _atom_site_fract_z
 _atom_site_occupancy
  Na  Na0  1  0.80430105  0.79651697  0.06490561  1
  Na  Na1  1  0.79015897  0.33163995  0.16105024  1
  Na  Na2  1  0.25021492  0.16247393  0.04517693  1
  Na  Na3  1  0.16963666  0.68895662  0.12515812  1
  Na  Na4  1  0.45216189  0.18934921  0.12501678  1
  Na  Na5  1  0.42355123  0.66252872  0.04518502  1
  Na  Na6  1  0.54613178  0.83197338  0.16071913  1
  Na  Na7  1  0.60193802  0.29626388  0.06492134  1
  Na  Na8  1  0.88645888  0.99668922  0.10048453  1
  Na  Na9  1  0.91368150  0.51324888  0.02303755  1
  Na  Na10  1  0.05908878  0.01317489  0.02296971  1
  Na  Na11  1  0.11918629  0.49676878  0.10051718  1
  Na  Na12  1  0.78085951  0.84899857  0.24805264  1
  Na  Na13  1  0.77266828  0.36950381  0.33671076  1
  Na  Na14  1  0.15829602  0.21019764  0.21339795  1
  Na  Na15  1  0.14922391  0.72747269  0.30044752  1
  Na  Na16  1  0.39514914  0.22733163  0.30064072  1
  Na  Na17  1  0.42074458  0.71029019  0.21339004  1
  Na  Na18  1  0.49070286  0.86999677  0.33640639  1
  Na  Na19  1  0.52057858  0.34914191  0.24820881  1
  Na  Na20  1  0.85325836  0.03697639  0.27378395  1
  Na  Na21  1  0.86820269  0.52161597  0.18792943  1
  Na  Na22  1  0.08829040  0.02158975  0.18797854  1
  Na  Na23  1  0.07293009  0.53730925  0.27378847  1
  Na  Na24  1  0.69014293  0.89666376  0.41643530  1
  Na  Na25  1  0.13590131  0.26296062  0.39677813  1
  Na  Na26  1  0.33918117  0.76302254  0.39647188  1
  Na  Na27  1  0.51740967  0.39661514  0.41653824  1
  Na  Na28  1  0.88216854  0.04550253  0.43858804  1
  Na  Na29  1  0.82187235  0.56231125  0.36124216  1
  Na  Na30  1  0.05452052  0.06235991  0.36125406  1
  Na  Na31  1  0.02699204  0.54590239  0.43869760  1
  Zr  Zr32  1  0.83935760  0.91257042  0.15302332  1
  Zr  Zr33  1  0.87299855  0.38820191  0.06888406  1
  Zr  Zr34  1  0.13202647  0.10929990  0.13557011  1
  Zr  Zr35  1  0.22544768  0.55046032  0.04783030  1
  Zr  Zr36  1  0.67260923  0.05059118  0.04785191  1
  Zr  Zr37  1  0.64902253  0.60924957  0.13548960  1
  Zr  Zr38  1  0.34954740  0.88840190  0.06884698  1
  Zr  Zr39  1  0.33512438  0.41252170  0.15300233  1
  Zr  Zr40  1  0.80916517  0.94963629  0.32617242  1
  Zr  Zr41  1  0.82115044  0.43186370  0.23874798  1
  Zr  Zr42  1  0.10168837  0.14643857  0.30872315  1
  Zr  Zr43  1  0.11970236  0.62733109  0.22295973  1
  Zr  Zr44  1  0.62527012  0.12739021  0.22304351  1
  Zr  Zr45  1  0.60598628  0.64638236  0.30873208  1
  Zr  Zr46  1  0.31503440  0.93185877  0.23878184  1
  Zr  Zr47  1  0.29263591  0.44962295  0.32618430  1
  Zr  Zr48  1  0.71538408  0.50877202  0.41388012  1
  Zr  Zr49  1  0.06821544  0.67066113  0.39284504  1
  Zr  Zr50  1  0.59102577  0.17078970  0.39281510  1
  Zr  Zr51  1  0.26819762  0.00863849  0.41390778  1
  Si  Si52  1  0.02745386  0.36421874  0.12890746  1
  Si  Si53  1  0.02616923  0.85237131  0.04335952  1
  Si  Si54  1  0.95783226  0.65390827  0.16172260  1
  Si  Si55  1  0.98298224  0.13036017  0.07270337  1
  Si  Si56  1  0.75566073  0.63027707  0.07265207  1
  Si  Si57  1  0.73365873  0.15380865  0.16174176  1
  Si  Si58  1  0.26832377  0.35227078  0.04338805  1
  Si  Si59  1  0.24332221  0.86433304  0.12879337  1
  Si  Si60  1  0.98303596  0.40506390  0.30000768  1
  Si  Si61  1  0.00255427  0.88569031  0.21412702  1
  Si  Si62  1  0.91412775  0.69438353  0.33281852  1
  Si  Si63  1  0.93749123  0.17374377  0.24762838  1
  Si  Si64  1  0.71496488  0.67348066  0.24761986  1
  Si  Si65  1  0.69777753  0.19448674  0.33278213  1
  Si  Si66  1  0.22596907  0.38547151  0.21413995  1
  Si  Si67  1  0.20767003  0.90509909  0.30004634  1
  Si  Si68  1  0.95742627  0.92891014  0.38901898  1
  Si  Si69  1  0.91443566  0.20675420  0.41838516  1
  Si  Si70  1  0.67246771  0.70695669  0.41832232  1
  Si  Si71  1  0.18558016  0.42887692  0.38906676  1
  P  P72  1  0.54319113  0.99620420  0.10169574  1
  P  P73  1  0.46410375  0.49585991  0.10161681  1
  P  P74  1  0.50900064  0.03698425  0.27424366  1
  P  P75  1  0.52385526  0.52198283  0.18747580  1
  P  P76  1  0.43213972  0.02181845  0.18758273  1
  P  P77  1  0.41688715  0.53742700  0.27422836  1
  P  P78  1  0.47749197  0.56275031  0.36002106  1
  P  P79  1  0.39730285  0.06330478  0.36006383  1
  O  O80  1  0.88559551  0.90796041  0.06684169  1
  O  O81  1  0.85401514  0.45631099  0.14398513  1
  O  O82  1  0.17106759  0.04235340  0.05792576  1
  O  O83  1  0.12470531  0.56593282  0.14471983  1
  O  O84  1  0.74257318  0.06595353  0.14469807  1
  O  O85  1  0.74312948  0.54225165  0.05797712  1
  O  O86  1  0.23323873  0.95614786  0.14391551  1
  O  O87  1  0.29775861  0.40786677  0.06685934  1
  O  O88  1  0.63069350  0.42542085  0.08513255  1
  O  O89  1  0.37592211  0.06621321  0.11818820  1
  O  O90  1  0.44147631  0.51895459  0.03595365  1
  O  O91  1  0.51966215  0.01886603  0.03606296  1
  O  O92  1  0.49218303  0.56568120  0.11805386  1
  O  O93  1  0.51641874  0.92612457  0.08522909  1
  O  O94  1  0.43534548  0.42690099  0.11772248  1
  O  O95  1  0.56651342  0.07056981  0.08615931  1
  O  O96  1  0.29215207  0.57044198  0.08608381  1
  O  O97  1  0.71000326  0.92684015  0.11775564  1
  O  O98  1  0.89740973  0.94842170  0.02346526  1
  O  O99  1  0.98876714  0.38244328  0.09895416  1
  O  O100  1  0.01746053  0.11660884  0.10266666  1
  O  O101  1  0.75011419  0.61627535  0.10263252  1
  O  O102  1  0.24414783  0.88300939  0.09884565  1
  O  O103  1  0.20495513  0.44822097  0.02347692  1
  O  O104  1  0.08418529  0.35024500  0.04595589  1
  O  O105  1  0.06891738  0.86096401  0.13242745  1
  O  O106  1  0.93808419  0.61906475  0.06413412  1
  O  O107  1  0.91225128  0.15465775  0.15727734  1
  O  O108  1  0.77737896  0.65498412  0.15722787  1
  O  O109  1  0.82291028  0.11897039  0.06436756  1
  O  O110  1  0.20847861  0.36109067  0.13238842  1
  O  O111  1  0.21441220  0.85037782  0.04589727  1
  O  O112  1  0.91224544  0.76486702  0.15341990  1
  O  O113  1  0.93227636  0.24377249  0.06328332  1
  O  O114  1  0.05755147  0.25694336  0.13670259  1
  O  O115  1  0.08972110  0.73273852  0.04056356  1
  O  O116  1  0.44418599  0.23261348  0.04058360  1
  O  O117  1  0.42820168  0.75692348  0.13641065  1
  O  O118  1  0.57931720  0.74386036  0.06334848  1
  O  O119  1  0.55762512  0.26481648  0.15338659  1
  O  O120  1  0.83337980  0.97369287  0.23092383  1
  O  O121  1  0.81577081  0.49284486  0.31698982  1
  O  O122  1  0.10687175  0.08561743  0.23087049  1
  O  O123  1  0.08773590  0.60272630  0.31769105  1
  O  O124  1  0.70888776  0.10247569  0.31759749  1
  O  O125  1  0.72193254  0.58546667  0.23079843  1
  O  O126  1  0.19872581  0.99303570  0.31704745  1
  O  O127  1  0.21879807  0.47374040  0.23087078  1
  O  O128  1  0.59206393  0.95922769  0.16976062  1
  O  O129  1  0.57406808  0.47528806  0.25588348  1
  O  O130  1  0.34951912  0.09940993  0.29213605  1
  O  O131  1  0.36672559  0.58434846  0.20582828  1
  O  O132  1  0.46423548  0.08441399  0.20589102  1
  O  O133  1  0.45120599  0.60017622  0.29205993  1
  O  O134  1  0.47601238  0.97481379  0.25591575  1
  O  O135  1  0.48886793  0.45952878  0.16963351  1
  O  O136  1  0.41097127  0.94386869  0.20151995  1
  O  O137  1  0.39490286  0.46082387  0.28862183  1
  O  O138  1  0.52975594  0.11513777  0.26032367  1
  O  O139  1  0.54617178  0.59843787  0.17305563  1
  O  O140  1  0.25689466  0.09795659  0.17314274  1
  O  O141  1  0.23953446  0.61522555  0.26031594  1
  O  O142  1  0.68447520  0.96053616  0.28859850  1
  O  O143  1  0.70109565  0.44391840  0.20137000  1
  O  O144  1  0.95511519  0.90745032  0.18479819  1
  O  O145  1  0.93752627  0.42635628  0.27056870  1
  O  O146  1  0.98538855  0.15228191  0.27694235  1
  O  O147  1  0.00391485  0.63223686  0.19113440  1
  O  O148  1  0.73064686  0.13234590  0.19115725  1
  O  O149  1  0.71137733  0.65144267  0.27693222  1
  O  O150  1  0.20912440  0.92711745  0.27062151  1
  O  O151  1  0.23074043  0.40673338  0.18480106  1
  O  O152  1  0.04700731  0.38466801  0.21792127  1
  O  O153  1  0.02971062  0.90366470  0.30455923  1
  O  O154  1  0.89377889  0.67438970  0.24375581  1
  O  O155  1  0.87230967  0.19788488  0.32935047  1
  O  O156  1  0.73328939  0.69736609  0.32931585  1
  O  O157  1  0.75720043  0.17428847  0.24385606  1
  O  O158  1  0.16304483  0.40444191  0.30451767  1
  O  O159  1  0.18310919  0.88486183  0.21797657  1
  O  O160  1  0.88280768  0.80208539  0.32509630  1
  O  O161  1  0.89333208  0.28426690  0.23892243  1
  O  O162  1  0.02922992  0.29403454  0.30835214  1
  O  O163  1  0.04595138  0.77521532  0.22269699  1
  O  O164  1  0.40326174  0.27523151  0.22286221  1
  O  O165  1  0.38466865  0.79435368  0.30826525  1
  O  O166  1  0.53726284  0.78391625  0.23905350  1
  O  O167  1  0.51299771  0.30177954  0.32506270  1
  O  O168  1  0.76890803  0.01668162  0.40372199  1
  O  O169  1  0.05537829  0.15121718  0.39493538  1
  O  O170  1  0.64325820  0.65120077  0.39486030  1
  O  O171  1  0.19800314  0.51670872  0.40385602  1
  O  O172  1  0.56485324  0.99365596  0.34357715  1
  O  O173  1  0.49913774  0.54039968  0.42566939  1
  O  O174  1  0.31063154  0.63266553  0.37649337  1
  O  O175  1  0.42317622  0.13363364  0.37655986  1
  O  O176  1  0.42102725  0.04023416  0.42578838  1
  O  O177  1  0.45075927  0.49249930  0.34353495  1
  O  O178  1  0.37484609  0.98859644  0.37559722  1
  O  O179  1  0.50526636  0.63231085  0.34399061  1
  O  O180  1  0.23035295  0.13234066  0.34400953  1
  O  O181  1  0.64957073  0.48850007  0.37556748  1
  O  O182  1  0.92374085  0.94276017  0.35904114  1
  O  O183  1  0.04300333  0.11076376  0.43828836  1
  O  O184  1  0.95275688  0.67606039  0.36276714  1
  O  O185  1  0.69567425  0.17599094  0.36272170  1
  O  O186  1  0.73556721  0.61111364  0.43825989  1
  O  O187  1  0.19205808  0.44280550  0.35909966  1
  O  O188  1  0.00283384  0.44026608  0.39749332  1
  O  O189  1  0.85684592  0.70880590  0.41576338  1
  O  O190  1  0.72645969  0.20861191  0.41573977  1
  O  O191  1  0.11720151  0.94033286  0.39752402  1
  O  O192  1  0.85069113  0.32646045  0.42117525  1
  O  O193  1  0.00864094  0.81521993  0.39827184  1
  O  O194  1  0.36171803  0.31528990  0.39837684  1
  O  O195  1  0.49672886  0.82665421  0.42105212  1
