# generated using pymatgen
data_Na23Zr16Si14P7O89
_symmetry_space_group_name_H-M   'P 1'
_cell_length_a   9.13268800
_cell_length_b   24.27702622
_cell_length_c   48.41287200
_cell_angle_alpha   90.00000000
_cell_angle_beta   90.00000000
_cell_angle_gamma   56.47052858
_symmetry_Int_Tables_number   1
_chemical_formula_structural   Na23Zr16Si14P7O89
_chemical_formula_sum   'Na46 Zr32 Si28 P14 O178'
_cell_volume   8947.74511956
_cell_formula_units_Z   2
loop_
 _symmetry_equiv_pos_site_id
 _symmetry_equiv_pos_as_xyz
  1  'x, y, z'
loop_
 _atom_site_type_symbol
 _atom_site_label
 _atom_site_symmetry_multiplicity
 _atom_site_fract_x
 _atom_site_fract_y
 _atom_site_fract_z
 _atom_site_occupancy
  Na  Na0  1  0.94895389  0.91476673  0.08943929  1
  Na  Na1  1  0.25658477  0.34461756  0.99970167  1
  Na  Na2  1  0.28058561  0.95237330  0.07048935  1
  Na  Na3  1  0.71063566  0.99043941  0.99710912  1
  Na  Na4  1  0.48259981  0.75353331  0.07561851  1
  Na  Na5  1  0.68106061  0.50878952  0.02027633  1
  Na  Na6  1  0.65897335  0.16692283  0.09600072  1
  Na  Na7  1  0.99601225  0.54398987  0.08887876  1
  Na  Na8  1  0.06444210  0.86806024  0.01820340  1
  Na  Na9  1  0.08501627  0.33512326  0.05459303  1
  Na  Na10  1  0.37990432  0.63634770  0.09543315  1
  Na  Na11  1  0.91658715  0.51059835  0.17248625  1
  Na  Na12  1  0.04291542  0.16174568  0.22304634  1
  Na  Na13  1  0.19595842  0.56488438  0.15388496  1
  Na  Na14  1  0.40834878  0.20100469  0.19773202  1
  Na  Na15  1  0.60670969  0.31996219  0.13705149  1
  Na  Na16  1  0.63043133  0.96129044  0.19990052  1
  Na  Na17  1  0.71020579  0.79710137  0.16482200  1
  Na  Na18  1  0.78046560  0.40927897  0.22453618  1
  Na  Na19  1  0.09916446  0.80200871  0.21196477  1
  Na  Na20  1  0.05517459  0.16775248  0.14777505  1
  Na  Na21  1  0.33065009  0.55634848  0.21791928  1
  Na  Na22  1  0.24316697  0.93987013  0.14759759  1
  Na  Na23  1  0.08502466  0.78575244  0.28900925  1
  Na  Na24  1  0.29463021  0.42029228  0.33337284  1
  Na  Na25  1  0.45067774  0.82442071  0.26384208  1
  Na  Na26  1  0.57424452  0.47521902  0.31464341  1
  Na  Na27  1  0.70468731  0.58257572  0.26313564  1
  Na  Na28  1  0.77959767  0.18980149  0.32271454  1
  Na  Na29  1  0.85781020  0.02756871  0.28746310  1
  Na  Na30  1  0.88313062  0.66566343  0.35032699  1
  Na  Na31  1  0.24829945  0.04559003  0.33982877  1
  Na  Na32  1  0.15753846  0.43007225  0.26940685  1
  Na  Na33  1  0.43501281  0.81820709  0.33939910  1
  Na  Na34  1  0.39059730  0.18407150  0.27512486  1
  Na  Na35  1  0.20983193  0.03314418  0.41685694  1
  Na  Na36  1  0.23317257  0.64073380  0.48763358  1
  Na  Na37  1  0.54094266  0.07052566  0.39803922  1
  Na  Na38  1  0.83312065  0.81836599  0.39113979  1
  Na  Na39  1  0.80973259  0.47676543  0.46670596  1
  Na  Na40  1  0.00701125  0.23219509  0.41168900  1
  Na  Na41  1  0.78117533  0.99440816  0.49018832  1
  Na  Na42  1  0.11096903  0.34908483  0.39177427  1
  Na  Na43  1  0.40695888  0.65025218  0.43314268  1
  Na  Na44  1  0.42622128  0.11728714  0.46921683  1
  Na  Na45  1  0.49169107  0.44262042  0.39808963  1
  Zr  Zr46  1  0.95129726  0.67969233  0.10556254  1
  Zr  Zr47  1  0.88597395  0.03353743  0.04331604  1
  Zr  Zr48  1  0.23071579  0.17616851  0.07605013  1
  Zr  Zr49  1  0.17912728  0.58118372  0.01782970  1
  Zr  Zr50  1  0.77575169  0.48275573  0.09750079  1
  Zr  Zr51  1  0.71740131  0.85836390  0.03792691  1
  Zr  Zr52  1  0.42180479  0.36166545  0.07643742  1
  Zr  Zr53  1  0.39802915  0.68437481  0.01789827  1
  Zr  Zr54  1  0.08379064  0.93327116  0.22820466  1
  Zr  Zr55  1  0.01991684  0.30662263  0.16464346  1
  Zr  Zr56  1  0.34625178  0.42684912  0.19637577  1
  Zr  Zr57  1  0.27714218  0.79979141  0.13555322  1
  Zr  Zr58  1  0.87865851  0.73905041  0.22788313  1
  Zr  Zr59  1  0.82493193  0.10939032  0.16356024  1
  Zr  Zr60  1  0.53885457  0.62235359  0.19803169  1
  Zr  Zr61  1  0.48376939  0.99450554  0.13367595  1
  Zr  Zr62  1  0.21400555  0.18556948  0.35179013  1
  Zr  Zr63  1  0.14462230  0.55875083  0.29102639  1
  Zr  Zr64  1  0.47030979  0.67919325  0.32276497  1
  Zr  Zr65  1  0.40733303  0.05231400  0.25914062  1
  Zr  Zr66  1  0.00724087  0.99111270  0.35350944  1
  Zr  Zr67  1  0.95190499  0.36313380  0.28932773  1
  Zr  Zr68  1  0.66608881  0.87627080  0.32377585  1
  Zr  Zr69  1  0.61249286  0.24653884  0.25945128  1
  Zr  Zr70  1  0.31129615  0.40438280  0.46953656  1
  Zr  Zr71  1  0.26057344  0.80926708  0.41122540  1
  Zr  Zr72  1  0.60438020  0.95186559  0.44400436  1
  Zr  Zr73  1  0.53921898  0.30569474  0.38193970  1
  Zr  Zr74  1  0.09234783  0.30111388  0.46935318  1
  Zr  Zr75  1  0.06884794  0.62384616  0.41080578  1
  Zr  Zr76  1  0.77322519  0.12683015  0.44951085  1
  Zr  Zr77  1  0.71476776  0.50287370  0.38991763  1
  Si  Si78  1  0.11937154  0.76665500  0.07432744  1
  Si  Si79  1  0.04644245  0.46348174  0.03454459  1
  Si  Si80  1  0.06953636  0.08389993  0.10117853  1
  Si  Si81  1  0.85469208  0.32227151  0.09613892  1
  Si  Si82  1  0.76607719  0.70334224  0.03540279  1
  Si  Si83  1  0.33295972  0.52844823  0.08314790  1
  Si  Si84  1  0.16826519  0.40139113  0.13428344  1
  Si  Si85  1  0.22917956  0.02762390  0.19565938  1
  Si  Si86  1  0.13261534  0.70325811  0.16775950  1
  Si  Si87  1  0.19816945  0.33226549  0.22756478  1
  Si  Si88  1  0.97420652  0.57466570  0.22455056  1
  Si  Si89  1  0.90999945  0.94744222  0.16237397  1
  Si  Si90  1  0.45306993  0.78439575  0.20045840  1
  Si  Si91  1  0.39809518  0.15557621  0.13880673  1
  Si  Si92  1  0.29271202  0.65348258  0.25979271  1
  Si  Si93  1  0.35878371  0.28198749  0.31959575  1
  Si  Si94  1  0.26196395  0.95792243  0.29161984  1
  Si  Si95  1  0.32203236  0.58430131  0.35296521  1
  Si  Si96  1  0.09282007  0.83011749  0.34842817  1
  Si  Si97  1  0.03796825  0.20104643  0.28683537  1
  Si  Si98  1  0.58109987  0.03822509  0.32491995  1
  Si  Si99  1  0.51647242  0.41107965  0.26276072  1
  Si  Si100  1  0.42108005  0.90178061  0.38605664  1
  Si  Si101  1  0.44370875  0.52209486  0.45278900  1
  Si  Si102  1  0.37117735  0.21855855  0.41305236  1
  Si  Si103  1  0.15729193  0.45703743  0.40419951  1
  Si  Si104  1  0.72427743  0.28176989  0.45214934  1
  Si  Si105  1  0.63549792  0.66344804  0.39128333  1
  P  P106  1  0.53738049  0.01241823  0.06220119  1
  P  P107  1  0.49282094  0.21811410  0.04189409  1
  P  P108  1  0.57078039  0.84126707  0.10894898  1
  P  P109  1  0.66822870  0.63439975  0.12865376  1
  P  P110  1  0.73462353  0.26181896  0.19065970  1
  P  P111  1  0.63806491  0.46820039  0.16808191  1
  P  P112  1  0.69523621  0.09613592  0.23299596  1
  P  P113  1  0.79564572  0.88943575  0.25431557  1
  P  P114  1  0.85299146  0.51731153  0.31948216  1
  P  P115  1  0.75645867  0.72373546  0.29673750  1
  P  P116  1  0.82197314  0.35111743  0.35866321  1
  P  P117  1  0.92023884  0.14419181  0.37846420  1
  P  P118  1  0.99799628  0.76737542  0.44535428  1
  P  P119  1  0.95340585  0.97283878  0.42496321  1
  O  O120  1  0.99935834  0.46392367  0.11851364  1
  O  O121  1  0.95286968  0.82481880  0.05698629  1
  O  O122  1  0.22597914  0.39553194  0.04758396  1
  O  O123  1  0.24941854  0.01722163  0.11396287  1
  O  O124  1  0.89760228  0.02295197  0.00534502  1
  O  O125  1  0.82281014  0.68354439  0.06864574  1
  O  O126  1  0.23857960  0.57470715  0.05562599  1
  O  O127  1  0.37527017  0.17740189  0.10598628  1
  O  O128  1  0.64969055  0.14759179  0.04844646  1
  O  O129  1  0.72921850  0.77134874  0.11763864  1
  O  O130  1  0.50646503  0.70352926  0.12128519  1
  O  O131  1  0.36983067  0.08278020  0.05846998  1
  O  O132  1  0.47872772  0.24640280  0.01346660  1
  O  O133  1  0.58609199  0.85837409  0.07939319  1
  O  O134  1  0.58447667  0.99452842  0.09345705  1
  O  O135  1  0.69120519  0.01021397  0.04821317  1
  O  O136  1  0.31711313  0.22135650  0.04857213  1
  O  O137  1  0.39987125  0.84167860  0.11146756  1
  O  O138  1  0.67181838  0.58548580  0.10747033  1
  O  O139  1  0.50873214  0.96157293  0.04832052  1
  O  O140  1  0.49649864  0.26587329  0.06482715  1
  O  O141  1  0.36831962  0.60191733  0.00861753  1
  O  O142  1  0.07735234  0.71671490  0.08924439  1
  O  O143  1  0.11004981  0.51243312  0.02290547  1
  O  O144  1  0.10444219  0.14369383  0.09796668  1
  O  O145  1  0.85415004  0.38941953  0.08955254  1
  O  O146  1  0.69145698  0.78117191  0.03005007  1
  O  O147  1  0.34483943  0.45953604  0.08047259  1
  O  O148  1  0.25074913  0.75920251  0.99906246  1
  O  O149  1  0.18782043  0.57753004  0.10652870  1
  O  O150  1  0.06070906  0.94321794  0.05476135  1
  O  O151  1  0.00580308  0.26748188  0.07522460  1
  O  O152  1  0.94543772  0.65969416  0.01607604  1
  O  O153  1  0.89274653  0.49467633  0.06036836  1
  O  O154  1  0.77392461  0.88764797  0.00697930  1
  O  O155  1  0.33866710  0.35817880  0.11365556  1
  O  O156  1  0.29944122  0.71526299  0.05652476  1
  O  O157  1  0.97472940  0.43709110  0.01082261  1
  O  O158  1  0.00528685  0.06757987  0.07311866  1
  O  O159  1  0.17757436  0.80090922  0.09687969  1
  O  O160  1  0.52198668  0.52125203  0.08440774  1
  O  O161  1  0.66577382  0.33280090  0.08846876  1
  O  O162  1  0.62064728  0.68520577  0.02764436  1
  O  O163  1  0.11245607  0.71856800  0.24749469  1
  O  O164  1  0.05204018  0.09461844  0.18325290  1
  O  O165  1  0.30688848  0.63799424  0.18177293  1
  O  O166  1  0.37843382  0.26717382  0.23985455  1
  O  O167  1  0.89070544  0.30226816  0.12904867  1
  O  O168  1  0.95100840  0.92213443  0.19471843  1
  O  O169  1  0.41199807  0.80932219  0.16827635  1
  O  O170  1  0.47049215  0.43967669  0.23074805  1
  O  O171  1  0.78521600  0.39694233  0.17702430  1
  O  O172  1  0.85018041  0.02473458  0.23934599  1
  O  O173  1  0.64123913  0.96090640  0.24800170  1
  O  O174  1  0.57485159  0.33378645  0.18577644  1
  O  O175  1  0.66873582  0.48176070  0.13840482  1
  O  O176  1  0.70942283  0.11756381  0.20369550  1
  O  O177  1  0.65693733  0.61451423  0.15848423  1
  O  O178  1  0.73130164  0.23792606  0.22001690  1
  O  O179  1  0.84328327  0.62964423  0.12550057  1
  O  O180  1  0.90975996  0.25759575  0.18748950  1
  O  O181  1  0.45786252  0.47592871  0.17188098  1
  O  O182  1  0.51745366  0.10188838  0.23518917  1
  O  O183  1  0.79186651  0.84348457  0.23242448  1
  O  O184  1  0.72833699  0.21805972  0.16806508  1
  O  O185  1  0.64781851  0.51485633  0.18932979  1
  O  O186  1  0.56188495  0.89051745  0.13055264  1
  O  O187  1  0.11436834  0.35220579  0.14570419  1
  O  O188  1  0.17981486  0.97553113  0.20643015  1
  O  O189  1  0.18739315  0.75278670  0.15572692  1
  O  O190  1  0.23901726  0.38796056  0.21802262  1
  O  O191  1  0.96645128  0.64352405  0.22325974  1
  O  O192  1  0.91338134  0.01424551  0.15944491  1
  O  O193  1  0.45680227  0.71599437  0.20327909  1
  O  O194  1  0.39641967  0.08907824  0.14126862  1
  O  O195  1  0.29811146  0.83708967  0.22185153  1
  O  O196  1  0.23302977  0.21153155  0.15776648  1
  O  O197  1  0.13056346  0.52415344  0.20249435  1
  O  O198  1  0.06572380  0.89388525  0.14129744  1
  O  O199  1  0.97843521  0.74678067  0.19098960  1
  O  O200  1  0.91263822  0.11452890  0.12539457  1
  O  O201  1  0.45144192  0.61408794  0.23658038  1
  O  O202  1  0.38104777  0.98901311  0.17175845  1
  O  O203  1  0.05069217  0.67944317  0.14449749  1
  O  O204  1  0.12925948  0.30820744  0.20215224  1
  O  O205  1  0.22412222  0.43076864  0.15975689  1
  O  O206  1  0.30484787  0.04994121  0.22107351  1
  O  O207  1  0.63942380  0.77371157  0.20951782  1
  O  O208  1  0.57687334  0.14778952  0.14919170  1
  O  O209  1  0.79048206  0.58245285  0.21548590  1
  O  O210  1  0.72128630  0.96026559  0.15328670  1
  O  O211  1  0.24169822  0.96845703  0.37316423  1
  O  O212  1  0.18417694  0.34725699  0.30563545  1
  O  O213  1  0.43902212  0.89098394  0.30405824  1
  O  O214  1  0.49125381  0.52207619  0.36879165  1
  O  O215  1  0.01915974  0.54653208  0.25662878  1
  O  O216  1  0.07946695  0.17609266  0.31901389  1
  O  O217  1  0.53937747  0.06384077  0.29260330  1
  O  O218  1  0.59784789  0.68382654  0.35842174  1
  O  O219  1  0.91626671  0.65180773  0.30170319  1
  O  O220  1  0.98389357  0.28197630  0.36600260  1
  O  O221  1  0.76208160  0.21426968  0.36990565  1
  O  O222  1  0.70528514  0.58858030  0.31062195  1
  O  O223  1  0.76038951  0.74738439  0.26735485  1
  O  O224  1  0.83246793  0.37079278  0.32876400  1
  O  O225  1  0.78193078  0.86812435  0.28367720  1
  O  O226  1  0.82331437  0.50393902  0.34925933  1
  O  O227  1  0.97390817  0.88331099  0.25195902  1
  O  O228  1  0.03287060  0.50977785  0.31548945  1
  O  O229  1  0.58165607  0.72766750  0.29978346  1
  O  O230  1  0.64699321  0.35592067  0.36208651  1
  O  O231  1  0.92798421  0.09520984  0.35683616  1
  O  O232  1  0.84348469  0.47033837  0.29844346  1
  O  O233  1  0.76176749  0.76768535  0.31931731  1
  O  O234  1  0.69820241  0.14201418  0.25503095  1
  O  O235  1  0.25152974  0.59801451  0.26953612  1
  O  O236  1  0.30408925  0.23244130  0.33162549  1
  O  O237  1  0.31190201  0.00980777  0.28079696  1
  O  O238  1  0.37456891  0.63374471  0.34135737  1
  O  O239  1  0.09464228  0.89654233  0.34586567  1
  O  O240  1  0.03421974  0.26947875  0.28405563  1
  O  O241  1  0.57751705  0.97144503  0.32779082  1
  O  O242  1  0.52559977  0.34195560  0.26397117  1
  O  O243  1  0.42590814  0.09148732  0.34614136  1
  O  O244  1  0.35950261  0.46144143  0.28478122  1
  O  O245  1  0.25710169  0.77427545  0.32931558  1
  O  O246  1  0.19275271  0.14848238  0.26539064  1
  O  O247  1  0.11003667  0.99681680  0.31546871  1
  O  O248  1  0.03903513  0.37149056  0.25074525  1
  O  O249  1  0.57855953  0.87101974  0.36196734  1
  O  O250  1  0.51283215  0.23869703  0.29633245  1
  O  O251  1  0.18683215  0.93550815  0.26617230  1
  O  O252  1  0.26716384  0.55433404  0.32762165  1
  O  O253  1  0.36359198  0.67748259  0.28494091  1
  O  O254  1  0.44119637  0.30561192  0.34285988  1
  O  O255  1  0.76989266  0.02547395  0.33386958  1
  O  O256  1  0.69967588  0.40372396  0.27185692  1
  O  O257  1  0.91342470  0.83806674  0.33830002  1
  O  O258  1  0.85144705  0.21179129  0.27788406  1
  O  O259  1  0.26397711  0.59001857  0.43976076  1
  O  O260  1  0.53734117  0.16057467  0.43051969  1
  O  O261  1  0.11693638  0.80782260  0.38119600  1
  O  O262  1  0.25317232  0.41082769  0.43168549  1
  O  O263  1  0.66782715  0.30126196  0.41887898  1
  O  O264  1  0.59479221  0.96177578  0.48199067  1
  O  O265  1  0.12064723  0.90247774  0.42894480  1
  O  O266  1  0.84132684  0.83791082  0.43877712  1
  O  O267  1  0.90797178  0.99038790  0.39366198  1
  O  O268  1  0.90519553  0.12711832  0.40804304  1
  O  O269  1  0.01276314  0.73914706  0.47382295  1
  O  O270  1  0.09143093  0.14356427  0.37583827  1
  O  O271  1  0.17376884  0.76393790  0.43852572  1
  O  O272  1  0.79838838  0.97538121  0.43867455  1
  O  O273  1  0.12187380  0.38374052  0.47859138  1
  O  O274  1  0.99347888  0.71963896  0.42249354  1
  O  O275  1  0.98150229  0.02377254  0.43889546  1
  O  O276  1  0.81885967  0.40022255  0.37969976  1
  O  O277  1  0.38558035  0.84214285  0.38923364  1
  O  O278  1  0.38007666  0.47328349  0.46456868  1
  O  O279  1  0.41351502  0.26832937  0.39804465  1
  O  O280  1  0.24024192  0.22634878  0.48817115  1
  O  O281  1  0.14654481  0.52578080  0.40664206  1
  O  O282  1  0.79865766  0.20401498  0.45761466  1
  O  O283  1  0.63564905  0.59637094  0.39785043  1
  O  O284  1  0.54479790  0.32577137  0.47142579  1
  O  O285  1  0.48615008  0.71817574  0.41240898  1
  O  O286  1  0.42898580  0.04237685  0.43285865  1
  O  O287  1  0.30127217  0.40770472  0.38074435  1
  O  O288  1  0.19065699  0.27023878  0.43072001  1
  O  O289  1  0.15168513  0.62751310  0.37359281  1
  O  O290  1  0.71777235  0.09714733  0.48044221  1
  O  O291  1  0.59707635  0.49083505  0.42691457  1
  O  O292  1  0.31321291  0.18419988  0.39053151  1
  O  O293  1  0.48433756  0.91820777  0.41419874  1
  O  O294  1  0.51586619  0.54862906  0.47638368  1
  O  O295  1  0.86997067  0.29990693  0.45978119  1
  O  O296  1  0.82524372  0.65249011  0.39867350  1
  O  O297  1  0.96798218  0.46436899  0.40333839  1
