# generated using pymatgen
data_Na3Zr2Si2PO12
_symmetry_space_group_name_H-M   'P 1'
_cell_length_a   9.13268800
_cell_length_b   9.40133717
_cell_length_c   52.11013600
_cell_angle_alpha   90.00000000
_cell_angle_beta   90.00000000
_cell_angle_gamma   90.63708205
_symmetry_Int_Tables_number   1
_chemical_formula_structural   Na3Zr2Si2PO12
_chemical_formula_sum   'Na24 Zr16 Si16 P8 O96'
_cell_volume   4473.87255366
_cell_formula_units_Z   8
loop_
 _symmetry_equiv_pos_site_id
 _symmetry_equiv_pos_as_xyz
  1  'x, y, z'
loop_
 _atom_site_type_symbol
 _atom_site_label
 _atom_site_symmetry_multiplicity
 _atom_site_fract_x
 _atom_site_fract_y
 _atom_site_fract_z
 _atom_site_occupancy
  Na  Na0  1  0.28507392  0.95346166  0.11797559  1
  Na  Na1  1  0.33451487  0.60775644  0.00834572  1
  Na  Na2  1  0.57620964  0.93629342  0.02520269  1
  Na  Na3  1  0.92082786  0.55890925  0.09539099  1
  Na  Na4  1  0.30939890  0.35455897  0.10690936  1
  Na  Na5  1  0.15383755  0.21046382  0.01793048  1
  Na  Na6  1  0.77483080  0.46692178  0.24621477  1
  Na  Na7  1  0.71646352  0.10047766  0.13005064  1
  Na  Na8  1  0.07985478  0.47372598  0.16388027  1
  Na  Na9  1  0.40366551  0.08747333  0.21538809  1
  Na  Na10  1  0.80582761  0.85625630  0.23223339  1
  Na  Na11  1  0.66433790  0.70230028  0.14263768  1
  Na  Na12  1  0.24884741  0.97849375  0.36994815  1
  Na  Na13  1  0.19158782  0.61329083  0.25385117  1
  Na  Na14  1  0.56252739  0.99254424  0.28458387  1
  Na  Na15  1  0.88663180  0.60608102  0.33639429  1
  Na  Na16  1  0.30214639  0.37696215  0.35733080  1
  Na  Na17  1  0.16053568  0.22349079  0.26777061  1
  Na  Na18  1  0.63240028  0.47080606  0.49145276  1
  Na  Na19  1  0.68053652  0.12547399  0.38203753  1
  Na  Na20  1  0.04571989  0.52093305  0.40449821  1
  Na  Na21  1  0.39024520  0.14313713  0.47469788  1
  Na  Na22  1  0.81261233  0.86809587  0.48202915  1
  Na  Na23  1  0.65693863  0.72499644  0.39304363  1
  Zr  Zr24  1  0.97385401  0.79289353  0.03856255  1
  Zr  Zr25  1  0.49221653  0.71191867  0.08667897  1
  Zr  Zr26  1  0.99743374  0.21551284  0.08522668  1
  Zr  Zr27  1  0.50995869  0.28828785  0.03963794  1
  Zr  Zr28  1  0.48748371  0.32172790  0.16148583  1
  Zr  Zr29  1  0.98638589  0.23478357  0.21361576  1
  Zr  Zr30  1  0.48957445  0.73888006  0.21221305  1
  Zr  Zr31  1  0.98561323  0.81948472  0.16248902  1
  Zr  Zr32  1  0.97968847  0.84510159  0.28641988  1
  Zr  Zr33  1  0.47896284  0.75805256  0.33851231  1
  Zr  Zr34  1  0.98081646  0.26028438  0.33757936  1
  Zr  Zr35  1  0.47655071  0.34085523  0.28779385  1
  Zr  Zr36  1  0.47404270  0.36767904  0.41329981  1
  Zr  Zr37  1  0.99253926  0.28682706  0.46144572  1
  Zr  Zr38  1  0.45636822  0.79107844  0.46034327  1
  Zr  Zr39  1  0.96885397  0.86418353  0.41472184  1
  Si  Si40  1  0.27573296  0.00463035  0.05976443  1
  Si  Si41  1  0.21235316  0.49989542  0.05623064  1
  Si  Si42  1  0.84804085  0.12708281  0.02300618  1
  Si  Si43  1  0.64649217  0.37850364  0.10036879  1
  Si  Si44  1  0.77283263  0.53418416  0.18940692  1
  Si  Si45  1  0.70199602  0.02399628  0.18600271  1
  Si  Si46  1  0.34122423  0.65818834  0.15027078  1
  Si  Si47  1  0.13393529  0.90322312  0.22410774  1
  Si  Si48  1  0.26429113  0.05572687  0.31404248  1
  Si  Si49  1  0.19354472  0.54563455  0.31064294  1
  Si  Si50  1  0.83220478  0.17691981  0.27593489  1
  Si  Si51  1  0.62516698  0.42122785  0.34976874  1
  Si  Si52  1  0.75402802  0.57975749  0.44358497  1
  Si  Si53  1  0.69053726  0.07481593  0.44029532  1
  Si  Si54  1  0.31991884  0.70117701  0.39954694  1
  Si  Si55  1  0.11824455  0.95239491  0.47693979  1
  P  P56  1  0.64646215  0.63487095  0.02529790  1
  P  P57  1  0.84568028  0.86488969  0.09977261  1
  P  P58  1  0.13700190  0.16773549  0.15014997  1
  P  P59  1  0.33782435  0.38973819  0.22408096  1
  P  P60  1  0.62813933  0.69022877  0.27588696  1
  P  P61  1  0.82933777  0.91172954  0.34987235  1
  P  P62  1  0.12105388  0.21493234  0.40030371  1
  P  P63  1  0.31999165  0.44490142  0.47473483  1
  O  O64  1  0.19578185  0.10501222  0.08163798  1
  O  O65  1  0.30109766  0.39776560  0.03539479  1
  O  O66  1  0.84515500  0.94817642  0.02598674  1
  O  O67  1  0.63593790  0.55149065  0.10166748  1
  O  O68  1  0.90764736  0.78675863  0.07543659  1
  O  O69  1  0.60170258  0.70093613  0.05196115  1
  O  O70  1  0.89380532  0.02174270  0.10037510  1
  O  O71  1  0.60118967  0.47427233  0.02524191  1
  O  O72  1  0.81577335  0.64882351  0.02345298  1
  O  O73  1  0.67705042  0.85574327  0.10066259  1
  O  O74  1  0.56006847  0.71394323  0.00478250  1
  O  O75  1  0.91076003  0.77873935  0.12234233  1
  O  O76  1  0.15090614  0.92462491  0.04186837  1
  O  O77  1  0.33544531  0.57220213  0.07579723  1
  O  O78  1  0.92247244  0.18063318  0.05117682  1
  O  O79  1  0.55252909  0.31538300  0.07557023  1
  O  O80  1  0.56419506  0.29994434  0.12463141  1
  O  O81  1  0.94123087  0.18392023  0.99976049  1
  O  O82  1  0.10397846  0.40782283  0.07576084  1
  O  O83  1  0.37773058  0.10331097  0.04018279  1
  O  O84  1  0.12532619  0.62135403  0.03964562  1
  O  O85  1  0.37804566  0.89028543  0.07544377  1
  O  O86  1  0.81719881  0.32986947  0.09904392  1
  O  O87  1  0.66991529  0.16921861  0.02495986  1
  O  O88  1  0.69371079  0.63319579  0.21129227  1
  O  O89  1  0.78169011  0.92647583  0.16403888  1
  O  O90  1  0.34273063  0.48317089  0.14852948  1
  O  O91  1  0.13520305  0.07770807  0.22625554  1
  O  O92  1  0.38847561  0.32064453  0.19874040  1
  O  O93  1  0.07852670  0.23459912  0.17535223  1
  O  O94  1  0.38219773  0.54890666  0.22529026  1
  O  O95  1  0.09293996  0.00826727  0.14843607  1
  O  O96  1  0.30697328  0.17580809  0.14909726  1
  O  O97  1  0.16805001  0.38241014  0.22631196  1
  O  O98  1  0.07578285  0.25235685  0.12701847  1
  O  O99  1  0.40689049  0.30462894  0.24645232  1
  O  O100  1  0.64689981  0.45771911  0.17157900  1
  O  O101  1  0.82722380  0.09879999  0.20432712  1
  O  O102  1  0.44062884  0.70947342  0.17513158  1
  O  O103  1  0.03647543  0.85354853  0.19912948  1
  O  O104  1  0.05455901  0.82569658  0.24895042  1
  O  O105  1  0.41319911  0.73423064  0.12465673  1
  O  O106  1  0.59869355  0.92944382  0.20568354  1
  O  O107  1  0.87601680  0.62898970  0.16976801  1
  O  O108  1  0.60112066  0.14189492  0.17157960  1
  O  O109  1  0.87654792  0.41823199  0.20403842  1
  O  O110  1  0.30366620  0.85012453  0.22193830  1
  O  O111  1  0.17009815  0.70579465  0.15340971  1
  O  O112  1  0.18496689  0.15346737  0.33601658  1
  O  O113  1  0.27237662  0.44647157  0.28875532  1
  O  O114  1  0.83101257  0.00243462  0.27382526  1
  O  O115  1  0.62335988  0.59631288  0.35148536  1
  O  O116  1  0.88747850  0.84477447  0.32465980  1
  O  O117  1  0.57763465  0.75946503  0.30122950  1
  O  O118  1  0.87417463  0.07097189  0.35167551  1
  O  O119  1  0.58353741  0.53113137  0.27470763  1
  O  O120  1  0.79794074  0.69747071  0.27362796  1
  O  O121  1  0.65935971  0.90425701  0.35091521  1
  O  O122  1  0.55901529  0.77529860  0.25351898  1
  O  O123  1  0.89011554  0.82634821  0.37295677  1
  O  O124  1  0.13863825  0.98115887  0.29578355  1
  O  O125  1  0.31955230  0.62178640  0.32850405  1
  O  O126  1  0.92914613  0.22670730  0.30097202  1
  O  O127  1  0.52617281  0.37002273  0.32485109  1
  O  O128  1  0.55308563  0.34497463  0.37534212  1
  O  O129  1  0.91184635  0.25438941  0.25111685  1
  O  O130  1  0.09017431  0.45095362  0.33028715  1
  O  O131  1  0.36754115  0.15021274  0.29433032  1
  O  O132  1  0.09025710  0.66203938  0.29601575  1
  O  O133  1  0.36526109  0.93786392  0.32844232  1
  O  O134  1  0.79638753  0.37378228  0.34671936  1
  O  O135  1  0.66245643  0.23000054  0.27801706  1
  O  O136  1  0.66513720  0.68162976  0.46443447  1
  O  O137  1  0.77015091  0.97431844  0.41837970  1
  O  O138  1  0.33023814  0.52819019  0.39816078  1
  O  O139  1  0.12099136  0.13128720  0.47396897  1
  O  O140  1  0.36480000  0.37990257  0.44798832  1
  O  O141  1  0.05921042  0.29334319  0.42461894  1
  O  O142  1  0.36519496  0.60553479  0.47493833  1
  O  O143  1  0.07253850  0.05817631  0.39973597  1
  O  O144  1  0.28961811  0.22380795  0.39942996  1
  O  O145  1  0.15073168  0.43067186  0.47659748  1
  O  O146  1  0.05599448  0.30084814  0.37771099  1
  O  O147  1  0.40657498  0.36514379  0.49513110  1
  O  O148  1  0.63090906  0.50766887  0.42401309  1
  O  O149  1  0.81541928  0.15525227  0.45812005  1
  O  O150  1  0.41356645  0.76343047  0.42444095  1
  O  O151  1  0.04377749  0.89885601  0.44877296  1
  O  O152  1  0.02510150  0.89549147  0.50018989  1
  O  O153  1  0.40259147  0.78016090  0.37537319  1
  O  O154  1  0.58886205  0.97598105  0.45989313  1
  O  O155  1  0.86262745  0.67158223  0.42408178  1
  O  O156  1  0.58779120  0.18911837  0.42467201  1
  O  O157  1  0.84114719  0.45844475  0.46020311  1
  O  O158  1  0.29637381  0.91033740  0.47497737  1
  O  O159  1  0.14924382  0.75029915  0.40078429  1
