# generated using pymatgen
data_Na3Zr2Si2PO12
_symmetry_space_group_name_H-M   'P 1'
_cell_length_a   9.27295600
_cell_length_b   9.15937100
_cell_length_c   52.67441700
_cell_angle_alpha   90.00000000
_cell_angle_beta   90.00000000
_cell_angle_gamma   90.00000000
_symmetry_Int_Tables_number   1
_chemical_formula_structural   Na3Zr2Si2PO12
_chemical_formula_sum   'Na18 Zr12 Si12 P6 O72'
_cell_volume   4473.87233518
_cell_formula_units_Z   6
loop_
 _symmetry_equiv_pos_site_id
 _symmetry_equiv_pos_as_xyz
  1  'x, y, z'
loop_
 _atom_site_type_symbol
 _atom_site_label
 _atom_site_symmetry_multiplicity
 _atom_site_fract_x
 _atom_site_fract_y
 _atom_site_fract_z
 _atom_site_occupancy
  Na  Na0  1  0.80626917  0.79640743  0.06476953  1
  Na  Na1  1  0.30609370  0.14661840  0.06473814  1
  Na  Na2  1  0.70141908  0.56809357  0.11579826  1
  Na  Na3  1  0.20155915  0.37522045  0.11579833  1
  Na  Na4  1  0.32595062  0.33691932  0.19788632  1
  Na  Na5  1  0.03554108  0.08999656  0.16273748  1
  Na  Na6  1  0.53573748  0.85281002  0.16275891  1
  Na  Na7  1  0.82624865  0.60581252  0.19792332  1
  Na  Na8  1  0.16516315  0.07762520  0.24286154  1
  Na  Na9  1  0.66510129  0.86531364  0.24288526  1
  Na  Na10  1  0.79494494  0.85351655  0.32301845  1
  Na  Na11  1  0.50515375  0.60640923  0.28779640  1
  Na  Na12  1  0.00502820  0.33668804  0.28776335  1
  Na  Na13  1  0.29487176  0.08955777  0.32303064  1
  Na  Na14  1  0.62904652  0.56782626  0.36986476  1
  Na  Na15  1  0.12917493  0.37527847  0.36983286  1
  Na  Na16  1  0.02469174  0.14724963  0.42097352  1
  Na  Na17  1  0.52412130  0.79641210  0.42094136  1
  Zr  Zr18  1  0.40139765  0.70260426  0.09585495  1
  Zr  Zr19  1  0.90140507  0.24053433  0.09588486  1
  Zr  Zr20  1  0.87764185  0.21703003  0.21804024  1
  Zr  Zr21  1  0.47845907  0.22560051  0.14178262  1
  Zr  Zr22  1  0.97857865  0.71719282  0.14176294  1
  Zr  Zr23  1  0.37774380  0.72588706  0.21805032  1
  Zr  Zr24  1  0.35187056  0.71719805  0.34398511  1
  Zr  Zr25  1  0.95289917  0.72588019  0.26765681  1
  Zr  Zr26  1  0.45273827  0.21715816  0.26768385  1
  Zr  Zr27  1  0.85189423  0.22589234  0.34396301  1
  Zr  Zr28  1  0.42909667  0.24057682  0.38993582  1
  Zr  Zr29  1  0.92902886  0.70255946  0.38989259  1
  Si  Si30  1  0.04247981  0.58017230  0.08053403  1
  Si  Si31  1  0.54260590  0.36277524  0.08055232  1
  Si  Si32  1  0.51997206  0.08185912  0.20711307  1
  Si  Si33  1  0.83354990  0.36403491  0.15476079  1
  Si  Si34  1  0.33363665  0.57907221  0.15473019  1
  Si  Si35  1  0.02010328  0.86098125  0.20712209  1
  Si  Si36  1  0.99663012  0.57904142  0.33094103  1
  Si  Si37  1  0.31077893  0.86113943  0.27862775  1
  Si  Si38  1  0.81056420  0.08186117  0.27861842  1
  Si  Si39  1  0.49659695  0.36403037  0.33097405  1
  Si  Si40  1  0.78805218  0.36320461  0.40524821  1
  Si  Si41  1  0.28773446  0.57975781  0.40527197  1
  P  P42  1  0.69132479  0.93325438  0.11383256  1
  P  P43  1  0.19136533  0.00964706  0.11381009  1
  P  P44  1  0.16525883  0.42977491  0.24281309  1
  P  P45  1  0.66511800  0.51314098  0.24285686  1
  P  P46  1  0.63903025  0.93352891  0.37200226  1
  P  P47  1  0.13901481  0.00953893  0.37200146  1
  O  O48  1  0.95088462  0.63410853  0.10641232  1
  O  O49  1  0.45111847  0.30866719  0.10643541  1
  O  O50  1  0.29976170  0.91778721  0.09794038  1
  O  O51  1  0.79960598  0.02543332  0.09799840  1
  O  O52  1  0.60820033  0.83183084  0.09493713  1
  O  O53  1  0.10804788  0.11107482  0.09494170  1
  O  O54  1  0.21780330  0.60595041  0.08863779  1
  O  O55  1  0.71792491  0.33739079  0.08866077  1
  O  O56  1  0.52781439  0.54694959  0.08147834  1
  O  O57  1  0.02808554  0.39593662  0.08148754  1
  O  O58  1  0.99084353  0.66194297  0.05593505  1
  O  O59  1  0.49100812  0.28076672  0.05597301  1
  O  O60  1  0.41941570  0.16071296  0.22892275  1
  O  O61  1  0.93568295  0.28694085  0.13226254  1
  O  O62  1  0.43577649  0.65626243  0.13223526  1
  O  O63  1  0.91932988  0.78197634  0.22888689  1
  O  O64  1  0.77672168  0.41864420  0.22852940  1
  O  O65  1  0.58427338  0.02923826  0.12909408  1
  O  O66  1  0.08463727  0.91322563  0.12905954  1
  O  O67  1  0.27677560  0.52424294  0.22846701  1
  O  O68  1  0.09057053  0.33039869  0.22285068  1
  O  O69  1  0.26939128  0.10797238  0.13368043  1
  O  O70  1  0.76950077  0.83494124  0.13368765  1
  O  O71  1  0.59032005  0.61228037  0.22288113  1
  O  O72  1  0.69071748  0.11280632  0.21373232  1
  O  O73  1  0.66604054  0.32947195  0.14764352  1
  O  O74  1  0.16610212  0.61297877  0.14751752  1
  O  O75  1  0.19076190  0.83015525  0.21380709  1
  O  O76  1  0.00335482  0.04027981  0.20749116  1
  O  O77  1  0.35187400  0.40096227  0.15517300  1
  O  O78  1  0.85158853  0.54214326  0.15517865  1
  O  O79  1  0.50347223  0.90252350  0.20750462  1
  O  O80  1  0.88824447  0.29103139  0.18113870  1
  O  O81  1  0.47153422  0.14047341  0.17904409  1
  O  O82  1  0.97207809  0.80221921  0.17903108  1
  O  O83  1  0.38799858  0.65239314  0.18109650  1
  O  O84  1  0.89475873  0.65580650  0.35351785  1
  O  O85  1  0.41159857  0.78237577  0.25683670  1
  O  O86  1  0.91126349  0.16061232  0.25681704  1
  O  O87  1  0.39487009  0.28728229  0.35356899  1
  O  O88  1  0.24585477  0.91301262  0.35678748  1
  O  O89  1  0.05358818  0.52416925  0.25714532  1
  O  O90  1  0.55353138  0.41874857  0.25720952  1
  O  O91  1  0.74564554  0.03009332  0.35674632  1
  O  O92  1  0.56107834  0.83500934  0.35214662  1
  O  O93  1  0.73997306  0.61230440  0.26281739  1
  O  O94  1  0.24012808  0.33077465  0.26280061  1
  O  O95  1  0.06120111  0.10786568  0.35209523  1
  O  O96  1  0.16426564  0.61361671  0.33803468  1
  O  O97  1  0.14010606  0.82960816  0.27198463  1
  O  O98  1  0.63985687  0.11314276  0.27199352  1
  O  O99  1  0.66431657  0.32962013  0.33804027  1
  O  O100  1  0.47878700  0.54217322  0.33051239  1
  O  O101  1  0.82692765  0.90249080  0.27818929  1
  O  O102  1  0.32673978  0.04050578  0.27818073  1
  O  O103  1  0.97886876  0.40088357  0.33049853  1
  O  O104  1  0.35924865  0.80305807  0.30673559  1
  O  O105  1  0.94195880  0.65217319  0.30458297  1
  O  O106  1  0.44178980  0.29066792  0.30464023  1
  O  O107  1  0.85900753  0.14001813  0.30672233  1
  O  O108  1  0.87936109  0.30938178  0.37930594  1
  O  O109  1  0.37896096  0.63338586  0.37930008  1
  O  O110  1  0.53044044  0.02535567  0.38784042  1
  O  O111  1  0.03031409  0.91773435  0.38781510  1
  O  O112  1  0.22232790  0.11089907  0.39088132  1
  O  O113  1  0.72250128  0.83230326  0.39088123  1
  O  O114  1  0.61264279  0.33745538  0.39715274  1
  O  O115  1  0.11246257  0.60563873  0.39716980  1
  O  O116  1  0.30210303  0.39549074  0.40438732  1
  O  O117  1  0.80231412  0.54742860  0.40432404  1
  O  O118  1  0.83988023  0.28130989  0.42981845  1
  O  O119  1  0.33977489  0.66177677  0.42982005  1
