# generated using pymatgen
data_Na3Zr2Si2PO12
_symmetry_space_group_name_H-M   'P 1'
_cell_length_a   9.13268800
_cell_length_b   9.27295607
_cell_length_c   45.11609400
_cell_angle_alpha   90.00000000
_cell_angle_beta   90.00000000
_cell_angle_gamma   61.42673606
_symmetry_Int_Tables_number   1
_chemical_formula_structural   Na3Zr2Si2PO12
_chemical_formula_sum   'Na12 Zr8 Si8 P4 O48'
_cell_volume   3355.40417904
_cell_formula_units_Z   4
loop_
 _symmetry_equiv_pos_site_id
 _symmetry_equiv_pos_as_xyz
  1  'x, y, z'
loop_
 _atom_site_type_symbol
 _atom_site_label
 _atom_site_symmetry_multiplicity
 _atom_site_fract_x
 _atom_site_fract_y
 _atom_site_fract_z
 _atom_site_occupancy
  Na  Na0  1  0.20376252  0.79821821  0.01988304  1
  Na  Na1  1  0.79623194  0.33677782  0.15574808  1
  Na  Na2  1  0.77827565  0.10124233  0.07085108  1
  Na  Na3  1  0.22803291  0.97847698  0.15088956  1
  Na  Na4  1  0.15554617  0.61086323  0.07758788  1
  Na  Na5  1  0.24839372  0.80962757  0.22520886  1
  Na  Na6  1  0.63367301  0.96739670  0.19776250  1
  Na  Na7  1  0.10419059  0.68099837  0.35167752  1
  Na  Na8  1  0.08731697  0.44232176  0.26714881  1
  Na  Na9  1  0.72784744  0.16853961  0.34498952  1
  Na  Na10  1  0.65608164  0.79870054  0.27209646  1
  Na  Na11  1  0.67678710  0.98422543  0.40299634  1
  Zr  Zr12  1  0.29560898  0.20892870  0.07639822  1
  Zr  Zr13  1  0.96948787  0.85014402  0.14987731  1
  Zr  Zr14  1  0.54869928  0.61036012  0.10711068  1
  Zr  Zr15  1  0.23867310  0.28204382  0.18639204  1
  Zr  Zr16  1  0.64387828  0.49680332  0.23644374  1
  Zr  Zr17  1  0.33404316  0.16878442  0.31573869  1
  Zr  Zr18  1  0.91298999  0.92913829  0.27299933  1
  Zr  Zr19  1  0.58711625  0.57018323  0.34647942  1
  Si  Si20  1  0.14158653  0.91840326  0.08493462  1
  Si  Si21  1  0.98609068  0.48198832  0.12390673  1
  Si  Si22  1  0.53751332  0.99223508  0.13258825  1
  Si  Si23  1  0.38105613  0.57176957  0.17203959  1
  Si  Si24  1  0.50201927  0.20644822  0.25074730  1
  Si  Si25  1  0.34513039  0.78676436  0.29036095  1
  Si  Si26  1  0.89641281  0.29784847  0.29878818  1
  Si  Si27  1  0.74091477  0.86126328  0.33807330  1
  P  P28  1  0.50543560  0.40191146  0.04345314  1
  P  P29  1  0.96267151  0.12920311  0.20577669  1
  P  P30  1  0.92031202  0.64948325  0.21713735  1
  P  P31  1  0.37652596  0.37860007  0.37927416  1
  O  O32  1  0.31121737  0.74612039  0.09251966  1
  O  O33  1  0.05319508  0.36079033  0.15264480  1
  O  O34  1  0.48735143  0.11154067  0.10262777  1
  O  O35  1  0.65056573  0.25202924  0.03043910  1
  O  O36  1  0.41680002  0.55889290  0.02564310  1
  O  O37  1  0.36128224  0.34850153  0.05145909  1
  O  O38  1  0.56136772  0.43865465  0.07514474  1
  O  O39  1  0.20423112  0.05227552  0.07353382  1
  O  O40  1  0.99775513  0.65260668  0.12674495  1
  O  O41  1  0.52481145  0.82897956  0.12303464  1
  O  O42  1  0.40319921  0.08422618  0.15961068  1
  O  O43  1  0.11372308  0.39295497  0.09539861  1
  O  O44  1  0.03021803  0.97336762  0.11623190  1
  O  O45  1  0.51464773  0.51780064  0.14403573  1
  O  O46  1  0.03718359  0.88619265  0.05930393  1
  O  O47  1  0.71834711  0.96308806  0.14360668  1
  O  O48  1  0.80301994  0.50638170  0.11422074  1
  O  O49  1  0.21581002  0.74964047  0.16610959  1
  O  O50  1  0.66703149  0.02840299  0.25670224  1
  O  O51  1  0.39495538  0.66735167  0.32031674  1
  O  O52  1  0.82963320  0.41916286  0.27008263  1
  O  O53  1  0.05666197  0.46823242  0.21440436  1
  O  O54  1  0.82633824  0.31045563  0.20857033  1
  O  O55  1  0.91383923  0.75482190  0.19031836  1
  O  O56  1  0.96949734  0.02346381  0.23255886  1
  O  O57  1  0.13811473  0.11523886  0.20136231  1
  O  O58  1  0.74468742  0.66366012  0.22150202  1
  O  O59  1  0.92076159  0.06405583  0.17686649  1
  O  O60  1  0.96196204  0.71493492  0.24605140  1
  O  O61  1  0.32651396  0.42941628  0.17454930  1
  O  O62  1  0.55699140  0.34854939  0.24823239  1
  O  O63  1  0.35839346  0.94959695  0.29996599  1
  O  O64  1  0.88374808  0.12768391  0.29591535  1
  O  O65  1  0.76908309  0.38732526  0.32729502  1
  O  O66  1  0.47918974  0.69437394  0.26330836  1
  O  O67  1  0.36845755  0.26072925  0.27875748  1
  O  O68  1  0.85312129  0.80620678  0.30683787  1
  O  O69  1  0.40830641  0.18928153  0.22110750  1
  O  O70  1  0.47451904  0.58915780  0.20169941  1
  O  O71  1  0.07982859  0.27239676  0.30846301  1
  O  O72  1  0.16404496  0.81643143  0.27937712  1
  O  O73  1  0.57142979  0.03345414  0.33036707  1
  O  O74  1  0.23296825  0.53094159  0.39197386  1
  O  O75  1  0.46186661  0.22266478  0.39745016  1
  O  O76  1  0.52361745  0.42787723  0.37116550  1
  O  O77  1  0.32033782  0.34107089  0.34767258  1
  O  O78  1  0.67840066  0.72702023  0.34931052  1
  O  O79  1  0.84460368  0.89416816  0.36374690  1
