# generated using pymatgen
data_Na3Zr2Si2PO12
_symmetry_space_group_name_H-M   'P 1'
_cell_length_a   9.13268800
_cell_length_b   9.27295607
_cell_length_c   45.11609400
_cell_angle_alpha   90.00000000
_cell_angle_beta   90.00000000
_cell_angle_gamma   61.42673606
_symmetry_Int_Tables_number   1
_chemical_formula_structural   Na3Zr2Si2PO12
_chemical_formula_sum   'Na12 Zr8 Si8 P4 O48'
_cell_volume   3355.40417904
_cell_formula_units_Z   4
loop_
 _symmetry_equiv_pos_site_id
 _symmetry_equiv_pos_as_xyz
  1  'x, y, z'
loop_
 _atom_site_type_symbol
 _atom_site_label
 _atom_site_symmetry_multiplicity
 _atom_site_fract_x
 _atom_site_fract_y
 _atom_site_fract_z
 _atom_site_occupancy
  Na  Na0  1  0.27006104  0.84788956  0.04991490  1
  Na  Na1  1  0.84229987  0.15126804  0.10148341  1
  Na  Na2  1  0.21781191  0.66713297  0.10860956  1
  Na  Na3  1  0.31271462  0.86778235  0.25537952  1
  Na  Na4  1  0.69571548  0.02177465  0.22799990  1
  Na  Na5  1  0.85823358  0.39306832  0.18605097  1
  Na  Na6  1  0.15048587  0.49784288  0.29735778  1
  Na  Na7  1  0.28997152  0.03597173  0.18073076  1
  Na  Na8  1  0.71817643  0.85510231  0.30250339  1
  Na  Na9  1  0.73862625  0.04316015  0.43317419  1
  Na  Na10  1  0.16760797  0.74004620  0.38148059  1
  Na  Na11  1  0.79120088  0.22382621  0.37470112  1
  Zr  Zr12  1  0.35879525  0.26575197  0.10667431  1
  Zr  Zr13  1  0.61205635  0.66632426  0.13736132  1
  Zr  Zr14  1  0.30167130  0.33806716  0.21669669  1
  Zr  Zr15  1  0.70706752  0.55245396  0.26660872  1
  Zr  Zr16  1  0.03260788  0.90635664  0.18016656  1
  Zr  Zr17  1  0.97612406  0.98438278  0.30318209  1
  Zr  Zr18  1  0.65032399  0.62513023  0.37671989  1
  Zr  Zr19  1  0.39688276  0.22437841  0.34594686  1
  Si  Si20  1  0.20537014  0.97422539  0.11493363  1
  Si  Si21  1  0.04904794  0.53766912  0.15448066  1
  Si  Si22  1  0.60076840  0.04854485  0.16275427  1
  Si  Si23  1  0.44356952  0.62822704  0.20223690  1
  Si  Si24  1  0.56517095  0.26225800  0.28102531  1
  Si  Si25  1  0.40819908  0.84201230  0.32064182  1
  Si  Si26  1  0.95976443  0.35313567  0.32884420  1
  Si  Si27  1  0.80367601  0.91662447  0.36837924  1
  P  P28  1  0.56951665  0.45612109  0.07387755  1
  P  P29  1  0.02600642  0.18506268  0.23593400  1
  P  P30  1  0.98311233  0.70551114  0.24743406  1
  P  P31  1  0.43929517  0.43474110  0.40940254  1
  O  O32  1  0.37493928  0.80237147  0.12274379  1
  O  O33  1  0.55169715  0.16721381  0.13268766  1
  O  O34  1  0.71193890  0.30161719  0.06151929  1
  O  O35  1  0.48694013  0.61065197  0.05529075  1
  O  O36  1  0.42021756  0.41012021  0.08210607  1
  O  O37  1  0.62560577  0.49476919  0.10538218  1
  O  O38  1  0.26745079  0.10900047  0.10388639  1
  O  O39  1  0.06134215  0.70804487  0.15721970  1
  O  O40  1  0.58816023  0.88527868  0.15322600  1
  O  O41  1  0.17737739  0.44754229  0.12613797  1
  O  O42  1  0.09231766  0.02844671  0.14610862  1
  O  O43  1  0.10270349  0.94049717  0.08918459  1
  O  O44  1  0.86600364  0.56274810  0.14469426  1
  O  O45  1  0.27903860  0.80659661  0.19627705  1
  O  O46  1  0.72989709  0.08408877  0.28701811  1
  O  O47  1  0.11505707  0.41676787  0.18324248  1
  O  O48  1  0.89354283  0.47401446  0.30008913  1
  O  O49  1  0.11930751  0.52416327  0.24471528  1
  O  O50  1  0.88963333  0.36630162  0.23867724  1
  O  O51  1  0.97726011  0.81121779  0.22070579  1
  O  O52  1  0.03186462  0.07920878  0.26263586  1
  O  O53  1  0.20174416  0.17084732  0.23175590  1
  O  O54  1  0.80716554  0.72009771  0.25162351  1
  O  O55  1  0.98500209  0.12025727  0.20688140  1
  O  O56  1  0.02437578  0.77032292  0.27645813  1
  O  O57  1  0.38815872  0.48643520  0.20475597  1
  O  O58  1  0.62041233  0.40414250  0.27843737  1
  O  O59  1  0.42125657  0.00524174  0.33003655  1
  O  O60  1  0.94717921  0.18292696  0.32611584  1
  O  O61  1  0.46576171  0.14101470  0.18967980  1
  O  O62  1  0.54273373  0.74923643  0.29366896  1
  O  O63  1  0.43165043  0.31685388  0.30904270  1
  O  O64  1  0.57722456  0.57377280  0.17424794  1
  O  O65  1  0.47160181  0.24500002  0.25135985  1
  O  O66  1  0.53726678  0.64507071  0.23192602  1
  O  O67  1  0.78135950  0.01926515  0.17395135  1
  O  O68  1  0.22717751  0.87175228  0.30957957  1
  O  O69  1  0.63390508  0.08856939  0.36067350  1
  O  O70  1  0.45704866  0.72371518  0.35075423  1
  O  O71  1  0.29668556  0.58952103  0.42161783  1
  O  O72  1  0.52122833  0.28035755  0.42803620  1
  O  O73  1  0.58898291  0.48054432  0.40125277  1
  O  O74  1  0.38374345  0.39599566  0.37785102  1
  O  O75  1  0.74148958  0.78206802  0.37955529  1
  O  O76  1  0.83180480  0.44356284  0.35722889  1
  O  O77  1  0.91601855  0.86223603  0.33713596  1
  O  O78  1  0.90693162  0.95051253  0.39399000  1
  O  O79  1  0.14291215  0.32793593  0.33856853  1
