# generated using pymatgen
data_Na3Zr2Si2PO12
_symmetry_space_group_name_H-M   'P 1'
_cell_length_a   9.27295600
_cell_length_b   15.80284349
_cell_length_c   45.79685300
_cell_angle_alpha   90.00000000
_cell_angle_beta   90.00000000
_cell_angle_gamma   56.43985526
_symmetry_Int_Tables_number   1
_chemical_formula_structural   Na3Zr2Si2PO12
_chemical_formula_sum   'Na18 Zr12 Si12 P6 O72'
_cell_volume   5592.34006858
_cell_formula_units_Z   6
loop_
 _symmetry_equiv_pos_site_id
 _symmetry_equiv_pos_as_xyz
  1  'x, y, z'
loop_
 _atom_site_type_symbol
 _atom_site_label
 _atom_site_symmetry_multiplicity
 _atom_site_fract_x
 _atom_site_fract_y
 _atom_site_fract_z
 _atom_site_occupancy
  Na  Na0  1  0.42746560  0.96991648  0.07564944  1
  Na  Na1  1  0.07305651  0.60480696  0.07545722  1
  Na  Na2  1  0.75013944  0.28728798  0.02271724  1
  Na  Na3  1  0.42891496  0.47939440  0.18515892  1
  Na  Na4  1  0.55334362  0.11877907  0.12741209  1
  Na  Na5  1  0.07221975  0.09560933  0.18514456  1
  Na  Na6  1  0.94692582  0.45610618  0.12742505  1
  Na  Na7  1  0.75060933  0.78709765  0.13380468  1
  Na  Na8  1  0.24965744  0.78744689  0.17006952  1
  Na  Na9  1  0.44648586  0.95567000  0.28733401  1
  Na  Na10  1  0.57210320  0.59540271  0.23003056  1
  Na  Na11  1  0.05357139  0.61846230  0.28733822  1
  Na  Na12  1  0.92860115  0.97964956  0.22982329  1
  Na  Na13  1  0.74993740  0.28713573  0.24480982  1
  Na  Na14  1  0.24992911  0.28720140  0.28113031  1
  Na  Na15  1  0.57286194  0.10456476  0.33950772  1
  Na  Na16  1  0.92654345  0.46944279  0.33933595  1
  Na  Na17  1  0.24968143  0.78740449  0.39222473  1
  Zr  Zr18  1  0.90821226  0.90556483  0.10719427  1
  Zr  Zr19  1  0.03883225  0.19454731  0.11417738  1
  Zr  Zr20  1  0.59171431  0.66932460  0.10723912  1
  Zr  Zr21  1  0.46106046  0.38026929  0.11422403  1
  Zr  Zr22  1  0.94175701  0.39040260  0.21351024  1
  Zr  Zr23  1  0.05824368  0.68386233  0.20135035  1
  Zr  Zr24  1  0.55844004  0.18382912  0.21358045  1
  Zr  Zr25  1  0.44198176  0.89048132  0.20132538  1
  Zr  Zr26  1  0.96105351  0.88014066  0.30064101  1
  Zr  Zr27  1  0.09193316  0.16900103  0.30772116  1
  Zr  Zr28  1  0.53909799  0.69429002  0.30069378  1
  Zr  Zr29  1  0.40795133  0.40533510  0.30769489  1
  Si  Si30  1  0.73201455  0.15824018  0.07780924  1
  Si  Si31  1  0.76788735  0.41665591  0.07792063  1
  Si  Si32  1  0.26740716  0.92918938  0.12855743  1
  Si  Si33  1  0.73734170  0.64126647  0.17940964  1
  Si  Si34  1  0.23235940  0.64571216  0.12848608  1
  Si  Si35  1  0.76250034  0.93320302  0.17934072  1
  Si  Si36  1  0.26235995  0.43312331  0.23551530  1
  Si  Si37  1  0.73259281  0.14550066  0.28645174  1
  Si  Si38  1  0.23795386  0.14115788  0.23555936  1
  Si  Si39  1  0.76734199  0.42872545  0.28633741  1
  Si  Si40  1  0.26811987  0.91623329  0.33703030  1
  Si  Si41  1  0.23197853  0.65817487  0.33694527  1
  P  P42  1  0.74984703  0.78725045  0.06558680  1
  P  P43  1  0.75008213  0.28706846  0.17319819  1
  P  P44  1  0.25009549  0.28715218  0.15453888  1
  P  P45  1  0.75020112  0.78717128  0.26037589  1
  P  P46  1  0.24976589  0.78743308  0.24166953  1
  P  P47  1  0.24972847  0.28733889  0.34936077  1
  O  O48  1  0.54945724  0.24420906  0.09676225  1
  O  O49  1  0.95049822  0.33084900  0.09687031  1
  O  O50  1  0.91831899  0.73917994  0.04908766  1
  O  O51  1  0.58056258  0.83525784  0.04932496  1
  O  O52  1  0.73664597  0.87229823  0.08786534  1
  O  O53  1  0.76390223  0.70224516  0.08799242  1
  O  O54  1  0.88387448  0.16964132  0.09422988  1
  O  O55  1  0.61631184  0.40531501  0.09445766  1
  O  O56  1  0.77922135  0.39876170  0.04413309  1
  O  O57  1  0.72030658  0.17587268  0.04400750  1
  O  O58  1  0.77377639  0.04663328  0.09008469  1
  O  O59  1  0.72621498  0.52832018  0.09009800  1
  O  O60  1  0.44995927  0.82838419  0.11714802  1
  O  O61  1  0.54920198  0.73653329  0.19101494  1
  O  O62  1  0.04999598  0.74646369  0.11703016  1
  O  O63  1  0.95057943  0.83782843  0.19095025  1
  O  O64  1  0.08287526  0.34674089  0.17319687  1
  O  O65  1  0.91552001  0.23151825  0.15386123  1
  O  O66  1  0.41687616  0.22765472  0.17329205  1
  O  O67  1  0.58444709  0.34264168  0.15391855  1
  O  O68  1  0.74193072  0.37047888  0.19197543  1
  O  O69  1  0.24461162  0.20811131  0.13513255  1
  O  O70  1  0.75850421  0.20367149  0.19201843  1
  O  O71  1  0.25583788  0.36611130  0.13514122  1
  O  O72  1  0.10953357  0.91389522  0.12088778  1
  O  O73  1  0.88145111  0.67062011  0.18161283  1
  O  O74  1  0.39028266  0.66098475  0.12086276  1
  O  O75  1  0.61836863  0.90384753  0.18144420  1
  O  O76  1  0.77124672  0.95233640  0.14412390  1
  O  O77  1  0.22391959  0.63953809  0.16497675  1
  O  O78  1  0.72869285  0.62244727  0.14417369  1
  O  O79  1  0.27562823  0.93532913  0.16503945  1
  O  O80  1  0.79170393  0.53839948  0.19748356  1
  O  O81  1  0.23431468  0.03595891  0.11457871  1
  O  O82  1  0.70812112  0.03592123  0.19749340  1
  O  O83  1  0.26551853  0.53889810  0.11450737  1
  O  O84  1  0.45065991  0.33788024  0.22391961  1
  O  O85  1  0.55006940  0.24632472  0.29785993  1
  O  O86  1  0.04979638  0.23630782  0.22388500  1
  O  O87  1  0.94967792  0.32810437  0.29786776  1
  O  O88  1  0.08395796  0.84311807  0.26091539  1
  O  O89  1  0.91732558  0.72760094  0.24170408  1
  O  O90  1  0.41509626  0.73214480  0.26104013  1
  O  O91  1  0.58336770  0.84647813  0.24162413  1
  O  O92  1  0.75537547  0.86637002  0.27974743  1
  O  O93  1  0.25830135  0.70385684  0.22291412  1
  O  O94  1  0.74453392  0.70819715  0.27977741  1
  O  O95  1  0.24165960  0.87071050  0.22283445  1
  O  O96  1  0.11826901  0.40374230  0.23333175  1
  O  O97  1  0.89058246  0.16069845  0.29406286  1
  O  O98  1  0.38195089  0.17058456  0.23340633  1
  O  O99  1  0.60936433  0.41352356  0.29396534  1
  O  O100  1  0.77593170  0.43465038  0.24985241  1
  O  O101  1  0.22898343  0.12241571  0.27079253  1
  O  O102  1  0.72414295  0.13951695  0.24994682  1
  O  O103  1  0.27093231  0.45198196  0.27076020  1
  O  O104  1  0.76561633  0.03879607  0.30046042  1
  O  O105  1  0.20804130  0.53597582  0.21744982  1
  O  O106  1  0.73412505  0.53559595  0.30026658  1
  O  O107  1  0.29262474  0.03819059  0.21753733  1
  O  O108  1  0.45124588  0.83012695  0.31824299  1
  O  O109  1  0.04957823  0.74382272  0.31791486  1
  O  O110  1  0.08102712  0.33529438  0.36579759  1
  O  O111  1  0.41870401  0.23931423  0.36571885  1
  O  O112  1  0.26329713  0.20230948  0.32704046  1
  O  O113  1  0.23592274  0.37233253  0.32700251  1
  O  O114  1  0.11683097  0.90467388  0.32045537  1
  O  O115  1  0.38400309  0.66932049  0.32053576  1
  O  O116  1  0.21985740  0.67633265  0.37072804  1
  O  O117  1  0.27850627  0.89910714  0.37085199  1
  O  O118  1  0.22661862  0.02774209  0.32470879  1
  O  O119  1  0.27390772  0.54641199  0.32478453  1
