# generated using pymatgen
data_Na3Zr2Si2PO12
_symmetry_space_group_name_H-M   'P 1'
_cell_length_a   9.27295600
_cell_length_b   9.15937100
_cell_length_c   52.67441700
_cell_angle_alpha   90.00000000
_cell_angle_beta   90.00000000
_cell_angle_gamma   90.00000000
_symmetry_Int_Tables_number   1
_chemical_formula_structural   Na3Zr2Si2PO12
_chemical_formula_sum   'Na18 Zr12 Si12 P6 O72'
_cell_volume   4473.87233518
_cell_formula_units_Z   6
loop_
 _symmetry_equiv_pos_site_id
 _symmetry_equiv_pos_as_xyz
  1  'x, y, z'
loop_
 _atom_site_type_symbol
 _atom_site_label
 _atom_site_symmetry_multiplicity
 _atom_site_fract_x
 _atom_site_fract_y
 _atom_site_fract_z
 _atom_site_occupancy
  Na  Na0  1  0.71320317  0.69781865  0.04008970  1
  Na  Na1  1  0.21282592  0.04768162  0.04008148  1
  Na  Na2  1  0.60771675  0.46898136  0.09104263  1
  Na  Na3  1  0.10782414  0.27614819  0.09106759  1
  Na  Na4  1  0.23240100  0.23801498  0.17318195  1
  Na  Na5  1  0.94160454  0.99106543  0.13794279  1
  Na  Na6  1  0.44065831  0.75437442  0.13790701  1
  Na  Na7  1  0.73217658  0.50728445  0.17314038  1
  Na  Na8  1  0.07194984  0.97871088  0.21806308  1
  Na  Na9  1  0.57185257  0.76630535  0.21808940  1
  Na  Na10  1  0.70121097  0.75370065  0.29829008  1
  Na  Na11  1  0.41087788  0.50679658  0.26308266  1
  Na  Na12  1  0.91106142  0.23802468  0.26309793  1
  Na  Na13  1  0.20107951  0.99188038  0.29828321  1
  Na  Na14  1  0.53592938  0.46900812  0.34534401  1
  Na  Na15  1  0.03619742  0.27615533  0.34531142  1
  Na  Na16  1  0.93114669  0.04621577  0.39625112  1
  Na  Na17  1  0.43105205  0.69925442  0.39630135  1
  Zr  Zr18  1  0.30781943  0.60368073  0.07111634  1
  Zr  Zr19  1  0.38511901  0.12682623  0.11698315  1
  Zr  Zr20  1  0.88486539  0.61841931  0.11696921  1
  Zr  Zr21  1  0.80790985  0.14178283  0.07107189  1
  Zr  Zr22  1  0.78437085  0.11820037  0.19330026  1
  Zr  Zr23  1  0.85932581  0.62687439  0.24296775  1
  Zr  Zr24  1  0.35943930  0.11825524  0.24296544  1
  Zr  Zr25  1  0.28427791  0.62700103  0.19331704  1
  Zr  Zr26  1  0.25920107  0.61840787  0.31923539  1
  Zr  Zr27  1  0.33664736  0.14137446  0.36520795  1
  Zr  Zr28  1  0.83661531  0.60323128  0.36522071  1
  Zr  Zr29  1  0.75924553  0.12656415  0.31930825  1
  Si  Si30  1  0.94880633  0.48159428  0.05571028  1
  Si  Si31  1  0.44886192  0.26391331  0.05570685  1
  Si  Si32  1  0.42670636  0.98294753  0.18229699  1
  Si  Si33  1  0.74035648  0.26512792  0.12997805  1
  Si  Si34  1  0.23989997  0.47973349  0.12997887  1
  Si  Si35  1  0.92662237  0.76226022  0.18233399  1
  Si  Si36  1  0.90396270  0.47967655  0.30626138  1
  Si  Si37  1  0.21701056  0.76246772  0.25394011  1
  Si  Si38  1  0.71700892  0.98282956  0.25394648  1
  Si  Si39  1  0.40411444  0.26518919  0.30629072  1
  Si  Si40  1  0.69568434  0.26373160  0.38057331  1
  Si  Si41  1  0.19576128  0.48136439  0.38052530  1
  P  P42  1  0.59811982  0.83463347  0.08910294  1
  P  P43  1  0.09797732  0.91074937  0.08909512  1
  P  P44  1  0.07192605  0.33092886  0.21815138  1
  P  P45  1  0.57195918  0.41420094  0.21812044  1
  P  P46  1  0.54646406  0.83419999  0.34731230  1
  P  P47  1  0.04660209  0.91035708  0.34726663  1
  O  O48  1  0.85672647  0.53613964  0.08153930  1
  O  O49  1  0.84241256  0.18820382  0.10744815  1
  O  O50  1  0.34220881  0.55676785  0.10748511  1
  O  O51  1  0.35747019  0.20969901  0.08160640  1
  O  O52  1  0.20657965  0.81893190  0.07327017  1
  O  O53  1  0.49083843  0.93087156  0.10426535  1
  O  O54  1  0.99110079  0.81439688  0.10432591  1
  O  O55  1  0.70664598  0.92664030  0.07329110  1
  O  O56  1  0.51510103  0.73294771  0.07022136  1
  O  O57  1  0.17586230  0.00911617  0.10897456  1
  O  O58  1  0.67604452  0.73674231  0.10904462  1
  O  O59  1  0.01466279  0.01207630  0.07019504  1
  O  O60  1  0.12399846  0.50755525  0.06388758  1
  O  O61  1  0.57279528  0.23041811  0.12287957  1
  O  O62  1  0.07241875  0.51398093  0.12272747  1
  O  O63  1  0.62422077  0.23834868  0.06382271  1
  O  O64  1  0.43411541  0.44813375  0.05670066  1
  O  O65  1  0.93455910  0.29731621  0.05673011  1
  O  O66  1  0.89744934  0.56310596  0.03106437  1
  O  O67  1  0.39723144  0.18228539  0.03109689  1
  O  O68  1  0.32646331  0.06206141  0.20415086  1
  O  O69  1  0.31742049  0.68379030  0.23207222  1
  O  O70  1  0.81729299  0.06190692  0.23210248  1
  O  O71  1  0.82606767  0.68360505  0.20417253  1
  O  O72  1  0.68361040  0.31980988  0.20379320  1
  O  O73  1  0.96013430  0.42536921  0.23242802  1
  O  O74  1  0.46049709  0.31979748  0.23248585  1
  O  O75  1  0.18354522  0.42543129  0.20384188  1
  O  O76  1  0.99741314  0.23151098  0.19817248  1
  O  O77  1  0.64665973  0.51362690  0.23806772  1
  O  O78  1  0.14666017  0.23182667  0.23814335  1
  O  O79  1  0.49698150  0.51313776  0.19813009  1
  O  O80  1  0.59751364  0.01403613  0.18887508  1
  O  O81  1  0.04628701  0.73095219  0.24737518  1
  O  O82  1  0.54630657  0.01404763  0.24732137  1
  O  O83  1  0.09730392  0.73114464  0.18898016  1
  O  O84  1  0.91022096  0.94161578  0.18272828  1
  O  O85  1  0.25810171  0.30168195  0.13040529  1
  O  O86  1  0.75802739  0.44330190  0.13033643  1
  O  O87  1  0.41013027  0.80359641  0.18274530  1
  O  O88  1  0.79506684  0.19220859  0.15636680  1
  O  O89  1  0.37799550  0.04118824  0.15422422  1
  O  O90  1  0.87847241  0.70356375  0.15424355  1
  O  O91  1  0.29413748  0.55301184  0.15637325  1
  O  O92  1  0.80228295  0.55661711  0.32884644  1
  O  O93  1  0.78708013  0.21003299  0.35463920  1
  O  O94  1  0.28680899  0.53542539  0.35459536  1
  O  O95  1  0.30218516  0.18813788  0.32883426  1
  O  O96  1  0.15343607  0.81423787  0.33198366  1
  O  O97  1  0.43779937  0.92586079  0.36317771  1
  O  O98  1  0.93813303  0.81839469  0.36309798  1
  O  O99  1  0.65330614  0.93080869  0.33211922  1
  O  O100  1  0.46863343  0.73610858  0.32738322  1
  O  O101  1  0.12993403  0.01158954  0.36617745  1
  O  O102  1  0.62978616  0.73279342  0.36620003  1
  O  O103  1  0.96849508  0.00874415  0.32740776  1
  O  O104  1  0.07167373  0.51451479  0.31329556  1
  O  O105  1  0.52046238  0.23762485  0.37244314  1
  O  O106  1  0.02037513  0.50679709  0.37245687  1
  O  O107  1  0.57169961  0.23043834  0.31341141  1
  O  O108  1  0.38636163  0.44334146  0.30590624  1
  O  O109  1  0.73339348  0.80347643  0.25351469  1
  O  O110  1  0.23324550  0.94183342  0.25352223  1
  O  O111  1  0.88637522  0.30152040  0.30588687  1
  O  O112  1  0.26594264  0.70387589  0.28198362  1
  O  O113  1  0.84885856  0.55252192  0.27988797  1
  O  O114  1  0.34923124  0.19253689  0.27989184  1
  O  O115  1  0.76574611  0.04110157  0.28203111  1
  O  O116  1  0.21054060  0.29710855  0.37960073  1
  O  O117  1  0.71005969  0.44793979  0.37964707  1
  O  O118  1  0.74756736  0.18186429  0.40514768  1
  O  O119  1  0.24762167  0.56334992  0.40508837  1
