# generated using pymatgen
data_Na3Zr2Si2PO12
_symmetry_space_group_name_H-M   'P 1'
_cell_length_a   9.13268800
_cell_length_b   9.27295607
_cell_length_c   45.11609400
_cell_angle_alpha   90.00000000
_cell_angle_beta   90.00000000
_cell_angle_gamma   61.42673606
_symmetry_Int_Tables_number   1
_chemical_formula_structural   Na3Zr2Si2PO12
_chemical_formula_sum   'Na12 Zr8 Si8 P4 O48'
_cell_volume   3355.40417904
_cell_formula_units_Z   4
loop_
 _symmetry_equiv_pos_site_id
 _symmetry_equiv_pos_as_xyz
  1  'x, y, z'
loop_
 _atom_site_type_symbol
 _atom_site_label
 _atom_site_symmetry_multiplicity
 _atom_site_fract_x
 _atom_site_fract_y
 _atom_site_fract_z
 _atom_site_occupancy
  Na  Na0  1  0.21511570  0.80839564  0.02497776  1
  Na  Na1  1  0.80674805  0.34640588  0.16085545  1
  Na  Na2  1  0.79023931  0.11187005  0.07555565  1
  Na  Na3  1  0.23960657  0.98718147  0.15600905  1
  Na  Na4  1  0.16600252  0.62112561  0.08288418  1
  Na  Na5  1  0.25897416  0.81859612  0.23022827  1
  Na  Na6  1  0.64579179  0.98083786  0.20274173  1
  Na  Na7  1  0.11423833  0.68746721  0.35713812  1
  Na  Na8  1  0.09758058  0.45078880  0.27207351  1
  Na  Na9  1  0.73857699  0.17663361  0.35016059  1
  Na  Na10  1  0.66490295  0.81013680  0.27713697  1
  Na  Na11  1  0.68845699  0.99115808  0.40817863  1
  Zr  Zr12  1  0.30642129  0.21932848  0.08150246  1
  Zr  Zr13  1  0.98005679  0.85996836  0.15496185  1
  Zr  Zr14  1  0.55962664  0.62017501  0.11215204  1
  Zr  Zr15  1  0.24930565  0.29147179  0.19146906  1
  Zr  Zr16  1  0.65460589  0.50646981  0.24154003  1
  Zr  Zr17  1  0.34439658  0.17778389  0.32088931  1
  Zr  Zr18  1  0.92366931  0.93798547  0.27815909  1
  Zr  Zr19  1  0.59734519  0.57864716  0.35152680  1
  Si  Si20  1  0.15266003  0.92829620  0.09008058  1
  Si  Si21  1  0.99674562  0.49170701  0.12904201  1
  Si  Si22  1  0.54818383  0.00230030  0.13766258  1
  Si  Si23  1  0.39170468  0.58094933  0.17705688  1
  Si  Si24  1  0.51229237  0.21688878  0.25598011  1
  Si  Si25  1  0.35561426  0.79578283  0.29537132  1
  Si  Si26  1  0.90715916  0.30632600  0.30398272  1
  Si  Si27  1  0.75107952  0.86966869  0.34316033  1
  P  P28  1  0.51652214  0.41209997  0.04843587  1
  P  P29  1  0.97328374  0.13856556  0.21090343  1
  P  P30  1  0.93041214  0.65941617  0.22219338  1
  P  P31  1  0.38745639  0.38637900  0.38450321  1
  O  O32  1  0.32196462  0.75581930  0.09769231  1
  O  O33  1  0.06394823  0.37025548  0.15772927  1
  O  O34  1  0.49756474  0.12258594  0.10782951  1
  O  O35  1  0.66122674  0.26234088  0.03529625  1
  O  O36  1  0.42781360  0.56917534  0.03065691  1
  O  O37  1  0.37241257  0.35886181  0.05657569  1
  O  O38  1  0.57316942  0.44856232  0.08008089  1
  O  O39  1  0.21544938  0.06224629  0.07878413  1
  O  O40  1  0.00856282  0.66225991  0.13189730  1
  O  O41  1  0.53579990  0.83915101  0.12790959  1
  O  O42  1  0.12394386  0.40309084  0.10045010  1
  O  O43  1  0.04090446  0.98317239  0.12133213  1
  O  O44  1  0.52519174  0.52772223  0.14905525  1
  O  O45  1  0.04859438  0.89613683  0.06437648  1
  O  O46  1  0.72887042  0.97341132  0.14869960  1
  O  O47  1  0.81362416  0.51636355  0.11939445  1
  O  O48  1  0.22632590  0.75894178  0.17121558  1
  O  O49  1  0.67742768  0.03880122  0.26183753  1
  O  O50  1  0.40576016  0.67585526  0.32525836  1
  O  O51  1  0.84032044  0.42744121  0.27524804  1
  O  O52  1  0.06699581  0.47820520  0.21934718  1
  O  O53  1  0.83708111  0.31995168  0.21365657  1
  O  O54  1  0.92371884  0.76520909  0.19543197  1
  O  O55  1  0.98001885  0.03317316  0.23772648  1
  O  O56  1  0.14875750  0.12443120  0.20639156  1
  O  O57  1  0.75514143  0.67298912  0.22659428  1
  O  O58  1  0.93080728  0.07346269  0.18204095  1
  O  O59  1  0.97220053  0.72435124  0.25114555  1
  O  O60  1  0.33744924  0.43832130  0.17942058  1
  O  O61  1  0.56695027  0.35918447  0.25358767  1
  O  O62  1  0.36830370  0.95883711  0.30505877  1
  O  O63  1  0.89508687  0.13583916  0.30119222  1
  O  O64  1  0.41403523  0.09347494  0.16474505  1
  O  O65  1  0.48984486  0.70428440  0.26830958  1
  O  O66  1  0.37879041  0.27037854  0.28399191  1
  O  O67  1  0.86296238  0.81531176  0.31188952  1
  O  O68  1  0.41866469  0.20019774  0.22627374  1
  O  O69  1  0.48522129  0.59790419  0.20674627  1
  O  O70  1  0.09036882  0.28142090  0.31364436  1
  O  O71  1  0.17478508  0.82495017  0.28436071  1
  O  O72  1  0.58156887  0.04201649  0.33558326  1
  O  O73  1  0.24326902  0.53733032  0.39744166  1
  O  O74  1  0.47453901  0.22964885  0.40241999  1
  O  O75  1  0.53304008  0.43775928  0.37641764  1
  O  O76  1  0.33102651  0.34972206  0.35285235  1
  O  O77  1  0.68863445  0.73539476  0.35437111  1
  O  O78  1  0.77982777  0.39538741  0.33251439  1
  O  O79  1  0.85529066  0.90204595  0.36881435  1
