# generated using pymatgen
data_Na3Zr2Si2PO12
_symmetry_space_group_name_H-M   'P 1'
_cell_length_a   9.27295600
_cell_length_b   9.15937100
_cell_length_c   52.67441700
_cell_angle_alpha   90.00000000
_cell_angle_beta   90.00000000
_cell_angle_gamma   90.00000000
_symmetry_Int_Tables_number   1
_chemical_formula_structural   Na3Zr2Si2PO12
_chemical_formula_sum   'Na18 Zr12 Si12 P6 O72'
_cell_volume   4473.87233518
_cell_formula_units_Z   6
loop_
 _symmetry_equiv_pos_site_id
 _symmetry_equiv_pos_as_xyz
  1  'x, y, z'
loop_
 _atom_site_type_symbol
 _atom_site_label
 _atom_site_symmetry_multiplicity
 _atom_site_fract_x
 _atom_site_fract_y
 _atom_site_fract_z
 _atom_site_occupancy
  Na  Na0  1  0.62714172  0.60833901  0.01761273  1
  Na  Na1  1  0.85678410  0.90111257  0.11567548  1
  Na  Na2  1  0.35684882  0.66607828  0.11566177  1
  Na  Na3  1  0.12758465  0.95965387  0.01768065  1
  Na  Na4  1  0.52311232  0.38015233  0.06890377  1
  Na  Na5  1  0.02347936  0.18765660  0.06883605  1
  Na  Na6  1  0.14813247  0.14837699  0.15094176  1
  Na  Na7  1  0.32736253  0.41827333  0.24082515  1
  Na  Na8  1  0.82729094  0.14935518  0.24085703  1
  Na  Na9  1  0.64813402  0.41832852  0.15091354  1
  Na  Na10  1  0.98793242  0.88982720  0.19584943  1
  Na  Na11  1  0.48814933  0.67748675  0.19581601  1
  Na  Na12  1  0.61826296  0.66475517  0.27602084  1
  Na  Na13  1  0.84787349  0.95890447  0.37402508  1
  Na  Na14  1  0.34813144  0.60832809  0.37410537  1
  Na  Na15  1  0.11808577  0.90208930  0.27604804  1
  Na  Na16  1  0.45260708  0.37971813  0.32305756  1
  Na  Na17  1  0.95249513  0.18705144  0.32306112  1
  Zr  Zr18  1  0.22329465  0.51477210  0.04879719  1
  Zr  Zr19  1  0.30114865  0.03798714  0.09474890  1
  Zr  Zr20  1  0.80103062  0.52920104  0.09471645  1
  Zr  Zr21  1  0.72353625  0.05279798  0.04881701  1
  Zr  Zr22  1  0.70044168  0.02914253  0.17107197  1
  Zr  Zr23  1  0.77554613  0.53781545  0.22070657  1
  Zr  Zr24  1  0.27567457  0.02931017  0.22067918  1
  Zr  Zr25  1  0.20043890  0.53790711  0.17105934  1
  Zr  Zr26  1  0.17568826  0.52901737  0.29701126  1
  Zr  Zr27  1  0.25294873  0.05232661  0.34292038  1
  Zr  Zr28  1  0.75299881  0.51430625  0.34295353  1
  Zr  Zr29  1  0.67564861  0.03720957  0.29706506  1
  Si  Si30  1  0.86408207  0.39231605  0.03346814  1
  Si  Si31  1  0.65654970  0.17595652  0.10774969  1
  Si  Si32  1  0.15644391  0.39101284  0.10773959  1
  Si  Si33  1  0.36476878  0.17534069  0.03349169  1
  Si  Si34  1  0.34283620  0.89368667  0.16010909  1
  Si  Si35  1  0.13308308  0.67349391  0.23167782  1
  Si  Si36  1  0.63342491  0.89398514  0.23163907  1
  Si  Si37  1  0.84267910  0.67297050  0.16010503  1
  Si  Si38  1  0.82051298  0.39058212  0.28404072  1
  Si  Si39  1  0.61182566  0.17460514  0.35834664  1
  Si  Si40  1  0.11199075  0.39211974  0.35828582  1
  Si  Si41  1  0.32068695  0.17592631  0.28401618  1
  P  P42  1  0.51383717  0.74570554  0.06669392  1
  P  P43  1  0.01364916  0.82175142  0.06671115  1
  P  P44  1  0.98798432  0.24195752  0.19585264  1
  P  P45  1  0.48783278  0.32528720  0.19585933  1
  P  P46  1  0.46291389  0.74488827  0.32502238  1
  P  P47  1  0.96291145  0.82123235  0.32501281  1
  O  O48  1  0.77269802  0.44573052  0.05941107  1
  O  O49  1  0.75843603  0.09895724  0.08520126  1
  O  O50  1  0.25840515  0.46759540  0.08514085  1
  O  O51  1  0.27349407  0.12168848  0.05945257  1
  O  O52  1  0.12206467  0.72992513  0.05085167  1
  O  O53  1  0.40724899  0.84214334  0.08198307  1
  O  O54  1  0.90678432  0.72519167  0.08190582  1
  O  O55  1  0.62217850  0.83757503  0.05080483  1
  O  O56  1  0.43003634  0.64445419  0.04785713  1
  O  O57  1  0.09185069  0.91990495  0.08659334  1
  O  O58  1  0.59211323  0.64735891  0.08653015  1
  O  O59  1  0.93025244  0.92325352  0.04785031  1
  O  O60  1  0.03942736  0.41837901  0.04157191  1
  O  O61  1  0.48885308  0.14178707  0.10061544  1
  O  O62  1  0.98882334  0.42536181  0.10055294  1
  O  O63  1  0.53997741  0.14970927  0.04162013  1
  O  O64  1  0.34996343  0.35955820  0.03434960  1
  O  O65  1  0.17438475  0.21291410  0.10829187  1
  O  O66  1  0.67457339  0.35406970  0.10820319  1
  O  O67  1  0.85016461  0.20797730  0.03434646  1
  O  O68  1  0.81196481  0.47406755  0.00890089  1
  O  O69  1  0.31305706  0.09308588  0.00894840  1
  O  O70  1  0.24221733  0.97276062  0.18189498  1
  O  O71  1  0.23345457  0.59427918  0.20986342  1
  O  O72  1  0.73420251  0.97317298  0.20988488  1
  O  O73  1  0.74209307  0.59395522  0.18189515  1
  O  O74  1  0.59911317  0.23060180  0.18150911  1
  O  O75  1  0.87639513  0.33638633  0.21017508  1
  O  O76  1  0.37594478  0.23110619  0.21016568  1
  O  O77  1  0.09951665  0.33630439  0.18148501  1
  O  O78  1  0.91321804  0.14265973  0.17589029  1
  O  O79  1  0.56286437  0.42404182  0.21587542  1
  O  O80  1  0.06288544  0.14299620  0.21584699  1
  O  O81  1  0.41342958  0.42485804  0.17590353  1
  O  O82  1  0.51351753  0.92499690  0.16674006  1
  O  O83  1  0.96237806  0.64232622  0.22504414  1
  O  O84  1  0.46282973  0.92542102  0.22493207  1
  O  O85  1  0.01339200  0.64197371  0.16672647  1
  O  O86  1  0.82611268  0.85233316  0.16056887  1
  O  O87  1  0.64968021  0.71461950  0.23119995  1
  O  O88  1  0.14968368  0.85281048  0.23123931  1
  O  O89  1  0.32637134  0.71443820  0.16055996  1
  O  O90  1  0.71086910  0.10269308  0.13412042  1
  O  O91  1  0.29459060  0.95187716  0.13198446  1
  O  O92  1  0.79421390  0.61496143  0.13198663  1
  O  O93  1  0.21091524  0.46479077  0.13406464  1
  O  O94  1  0.71864614  0.46778990  0.30657081  1
  O  O95  1  0.70345631  0.12006263  0.33247021  1
  O  O96  1  0.20338765  0.44608225  0.33237801  1
  O  O97  1  0.21850276  0.09913270  0.30655369  1
  O  O98  1  0.06983375  0.72484170  0.30980123  1
  O  O99  1  0.35431053  0.83709798  0.34078613  1
  O  O100  1  0.85434932  0.72944348  0.34085943  1
  O  O101  1  0.57024871  0.84101166  0.30983812  1
  O  O102  1  0.38500646  0.64677674  0.30510556  1
  O  O103  1  0.04615516  0.92278766  0.34388368  1
  O  O104  1  0.54586264  0.64350281  0.34395810  1
  O  O105  1  0.88497616  0.91940485  0.30510097  1
  O  O106  1  0.98820654  0.42486267  0.29114223  1
  O  O107  1  0.43664688  0.14886826  0.35017112  1
  O  O108  1  0.93661172  0.41751775  0.35015818  1
  O  O109  1  0.48810090  0.14117084  0.29120661  1
  O  O110  1  0.30290014  0.35413138  0.28359676  1
  O  O111  1  0.12670595  0.20787281  0.35734913  1
  O  O112  1  0.62661342  0.35881244  0.35735609  1
  O  O113  1  0.80230934  0.21247960  0.28365872  1
  O  O114  1  0.18171024  0.61501671  0.25976702  1
  O  O115  1  0.76592176  0.46359231  0.25764693  1
  O  O116  1  0.26594918  0.10307313  0.25763222  1
  O  O117  1  0.68182254  0.95214311  0.25975539  1
  O  O118  1  0.66328731  0.09325917  0.38300200  1
  O  O119  1  0.16346485  0.47392657  0.38289033  1
