# generated using pymatgen
data_Na3Zr2Si2PO12
_symmetry_space_group_name_H-M   'P 1'
_cell_length_a   9.13268800
_cell_length_b   9.27295607
_cell_length_c   45.11609400
_cell_angle_alpha   90.00000000
_cell_angle_beta   90.00000000
_cell_angle_gamma   61.42673606
_symmetry_Int_Tables_number   1
_chemical_formula_structural   Na3Zr2Si2PO12
_chemical_formula_sum   'Na12 Zr8 Si8 P4 O48'
_cell_volume   3355.40417904
_cell_formula_units_Z   4
loop_
 _symmetry_equiv_pos_site_id
 _symmetry_equiv_pos_as_xyz
  1  'x, y, z'
loop_
 _atom_site_type_symbol
 _atom_site_label
 _atom_site_symmetry_multiplicity
 _atom_site_fract_x
 _atom_site_fract_y
 _atom_site_fract_z
 _atom_site_occupancy
  Na  Na0  1  0.22895872  0.81048867  0.03029981  1
  Na  Na1  1  0.80053004  0.11292216  0.08183310  1
  Na  Na2  1  0.24856072  0.99928579  0.16107000  1
  Na  Na3  1  0.17750358  0.62936435  0.08903782  1
  Na  Na4  1  0.27146798  0.83137117  0.23574928  1
  Na  Na5  1  0.65465851  0.98538426  0.20827059  1
  Na  Na6  1  0.81680267  0.35659471  0.16638547  1
  Na  Na7  1  0.10994238  0.46151442  0.27761986  1
  Na  Na8  1  0.75008241  0.18899572  0.35524148  1
  Na  Na9  1  0.67879725  0.81825189  0.28285270  1
  Na  Na10  1  0.69769519  0.00735582  0.41366295  1
  Na  Na11  1  0.12555305  0.70310553  0.36208728  1
  Zr  Zr12  1  0.31724848  0.22836699  0.08688946  1
  Zr  Zr13  1  0.99118332  0.86986417  0.16045122  1
  Zr  Zr14  1  0.57112097  0.62912209  0.11763219  1
  Zr  Zr15  1  0.26068367  0.30171934  0.19699937  1
  Zr  Zr16  1  0.66615955  0.51651252  0.24691685  1
  Zr  Zr17  1  0.35610729  0.18907782  0.32629556  1
  Zr  Zr18  1  0.93533153  0.94899025  0.28357019  1
  Zr  Zr19  1  0.60939562  0.59019808  0.35709543  1
  Si  Si20  1  0.16396227  0.93677786  0.09520344  1
  Si  Si21  1  0.00786379  0.50083053  0.13482022  1
  Si  Si22  1  0.55929149  0.01165129  0.14298021  1
  Si  Si23  1  0.40258582  0.59190510  0.18257239  1
  Si  Si24  1  0.52418874  0.22621844  0.26130734  1
  Si  Si25  1  0.36782310  0.80665837  0.30089080  1
  Si  Si26  1  0.91889005  0.31773266  0.30927271  1
  Si  Si27  1  0.76249312  0.88209317  0.34880678  1
  P  P28  1  0.52852825  0.41869309  0.05417684  1
  P  P29  1  0.98497791  0.14870072  0.21622699  1
  P  P30  1  0.94245363  0.66955310  0.22780073  1
  P  P31  1  0.39732718  0.39969767  0.38981093  1
  O  O32  1  0.33399807  0.76527106  0.10297693  1
  O  O33  1  0.07341983  0.38061146  0.16367363  1
  O  O34  1  0.51073266  0.12922519  0.11277008  1
  O  O35  1  0.67124421  0.26427686  0.04188013  1
  O  O36  1  0.44601594  0.57331894  0.03561063  1
  O  O37  1  0.37924349  0.37241814  0.06233701  1
  O  O38  1  0.58412481  0.45756800  0.08571338  1
  O  O39  1  0.22543721  0.07190719  0.08404105  1
  O  O40  1  0.01969977  0.67143939  0.13754656  1
  O  O41  1  0.54717141  0.84794478  0.13359993  1
  O  O42  1  0.13715681  0.41010104  0.10661342  1
  O  O43  1  0.05126532  0.99129362  0.12640563  1
  O  O44  1  0.53636618  0.53710769  0.15458684  1
  O  O45  1  0.06118503  0.90240261  0.06956159  1
  O  O46  1  0.73983960  0.98272204  0.15418507  1
  O  O47  1  0.82526310  0.52535438  0.12487713  1
  O  O48  1  0.23773170  0.76974355  0.17648705  1
  O  O49  1  0.68909906  0.04833263  0.26742536  1
  O  O50  1  0.41723034  0.68782261  0.33092754  1
  O  O51  1  0.85230959  0.43854417  0.28050062  1
  O  O52  1  0.07895130  0.48833190  0.22503654  1
  O  O53  1  0.84865572  0.32994711  0.21900892  1
  O  O54  1  0.93637367  0.77544426  0.20108822  1
  O  O55  1  0.99073638  0.04280967  0.24291768  1
  O  O56  1  0.16082181  0.13434821  0.21208479  1
  O  O57  1  0.76667854  0.68371263  0.23193149  1
  O  O58  1  0.94391492  0.08399618  0.18716092  1
  O  O59  1  0.98353215  0.73434180  0.25685343  1
  O  O60  1  0.34784882  0.44962360  0.18516352  1
  O  O61  1  0.57902368  0.36839954  0.25866208  1
  O  O62  1  0.38128170  0.96956985  0.31038122  1
  O  O63  1  0.90625062  0.14759805  0.30648882  1
  O  O64  1  0.42407704  0.10485454  0.16984944  1
  O  O65  1  0.50205250  0.71387739  0.27387801  1
  O  O66  1  0.39063234  0.28125088  0.28934216  1
  O  O67  1  0.87516931  0.82731528  0.31759183  1
  O  O68  1  0.43081407  0.20829792  0.23166993  1
  O  O69  1  0.49620463  0.60945355  0.21221597  1
  O  O70  1  0.10223741  0.29224924  0.31893423  1
  O  O71  1  0.18663727  0.83662522  0.28985725  1
  O  O72  1  0.59299386  0.05416437  0.34110640  1
  O  O73  1  0.25441752  0.55336507  0.40228921  1
  O  O74  1  0.48081376  0.24463736  0.40824144  1
  O  O75  1  0.54581945  0.44712867  0.38159916  1
  O  O76  1  0.34129780  0.36149918  0.35824928  1
  O  O77  1  0.70015933  0.74755378  0.35993502  1
  O  O78  1  0.79130190  0.40808981  0.33772607  1
  O  O79  1  0.86582811  0.91556582  0.37446237  1
