# generated using pymatgen
data_Na3Zr2Si2PO12
_symmetry_space_group_name_H-M   'P 1'
_cell_length_a   9.13268800
_cell_length_b   9.27295607
_cell_length_c   45.11609400
_cell_angle_alpha   90.00000000
_cell_angle_beta   90.00000000
_cell_angle_gamma   61.42673606
_symmetry_Int_Tables_number   1
_chemical_formula_structural   Na3Zr2Si2PO12
_chemical_formula_sum   'Na12 Zr8 Si8 P4 O48'
_cell_volume   3355.40417904
_cell_formula_units_Z   4
loop_
 _symmetry_equiv_pos_site_id
 _symmetry_equiv_pos_as_xyz
  1  'x, y, z'
loop_
 _atom_site_type_symbol
 _atom_site_label
 _atom_site_symmetry_multiplicity
 _atom_site_fract_x
 _atom_site_fract_y
 _atom_site_fract_z
 _atom_site_occupancy
  Na  Na0  1  0.15823724  0.75274339  0.99694694  1
  Na  Na1  1  0.74756941  0.29535198  0.13294706  1
  Na  Na2  1  0.73084216  0.05571431  0.04809426  1
  Na  Na3  1  0.17904528  0.93789855  0.12779271  1
  Na  Na4  1  0.10671877  0.56953340  0.05529078  1
  Na  Na5  1  0.20163572  0.77020510  0.20229497  1
  Na  Na6  1  0.58622311  0.92545538  0.17474968  1
  Na  Na7  1  0.05513394  0.63913536  0.32904708  1
  Na  Na8  1  0.03988883  0.39847943  0.24407889  1
  Na  Na9  1  0.68024687  0.12620121  0.32194758  1
  Na  Na10  1  0.60896785  0.75652219  0.24939849  1
  Na  Na11  1  0.62863811  0.94322081  0.38036302  1
  Zr  Zr12  1  0.19147425  0.23999222  0.16355394  1
  Zr  Zr13  1  0.24797011  0.16775563  0.05351824  1
  Zr  Zr14  1  0.92168564  0.80826862  0.12707733  1
  Zr  Zr15  1  0.50132109  0.56832051  0.08422793  1
  Zr  Zr16  1  0.53880967  0.52778197  0.32360885  1
  Zr  Zr17  1  0.59644448  0.45456352  0.21359166  1
  Zr  Zr18  1  0.28610384  0.12683118  0.29288374  1
  Zr  Zr19  1  0.86582216  0.88653882  0.25017007  1
  Si  Si20  1  0.33314442  0.53046266  0.14922375  1
  Si  Si21  1  0.09431135  0.87634002  0.06195342  1
  Si  Si22  1  0.93836448  0.43957622  0.10129811  1
  Si  Si23  1  0.48996046  0.95066816  0.10951741  1
  Si  Si24  1  0.69235667  0.81947637  0.31531549  1
  Si  Si25  1  0.45473316  0.16403854  0.22795396  1
  Si  Si26  1  0.29801939  0.74454869  0.26746938  1
  Si  Si27  1  0.84892653  0.25492259  0.27592223  1
  P  P28  1  0.45802314  0.35917930  0.02070093  1
  P  P29  1  0.91477571  0.08761125  0.18285903  1
  P  P30  1  0.87277401  0.60739103  0.19436017  1
  P  P31  1  0.32832819  0.33624263  0.35643875  1
  O  O32  1  0.16808648  0.70834407  0.14318737  1
  O  O33  1  0.26402938  0.70425024  0.06957717  1
  O  O34  1  0.00469900  0.31898927  0.13009070  1
  O  O35  1  0.44131361  0.06915398  0.07943903  1
  O  O36  1  0.60144869  0.20658226  0.00803078  1
  O  O37  1  0.37378812  0.51505433  0.00249015  1
  O  O38  1  0.31018239  0.31062796  0.02868268  1
  O  O39  1  0.87329206  0.02242993  0.15390187  1
  O  O40  1  0.51392630  0.39638881  0.05234739  1
  O  O41  1  0.27888839  0.38781417  0.15170012  1
  O  O42  1  0.15606331  0.01145451  0.05093665  1
  O  O43  1  0.94984972  0.61036148  0.10408704  1
  O  O44  1  0.47764373  0.78723788  0.09995444  1
  O  O45  1  0.35483333  0.04322688  0.13642377  1
  O  O46  1  0.06693123  0.35013209  0.07294216  1
  O  O47  1  0.98183577  0.93030431  0.09316326  1
  O  O48  1  0.46683512  0.47654721  0.12122464  1
  O  O49  1  0.99089697  0.84360849  0.03620389  1
  O  O50  1  0.67041569  0.92136339  0.12081850  1
  O  O51  1  0.75555159  0.46416343  0.09147128  1
  O  O52  1  0.52321786  0.99192529  0.30760843  1
  O  O53  1  0.61963460  0.98613915  0.23399180  1
  O  O54  1  0.34649634  0.62552566  0.29747987  1
  O  O55  1  0.78306480  0.37529892  0.24707998  1
  O  O56  1  0.00944072  0.42626721  0.19155606  1
  O  O57  1  0.77866122  0.26897357  0.18555672  1
  O  O58  1  0.86645255  0.71330807  0.16763490  1
  O  O59  1  0.92080325  0.98226255  0.20965369  1
  O  O60  1  0.09057384  0.07321466  0.17856619  1
  O  O61  1  0.69725831  0.62127267  0.19862059  1
  O  O62  1  0.27183361  0.29920362  0.32482946  1
  O  O63  1  0.91402676  0.67232885  0.22337413  1
  O  O64  1  0.62964496  0.68501967  0.32632424  1
  O  O65  1  0.50949924  0.30632365  0.22539666  1
  O  O66  1  0.31119752  0.90741906  0.27708158  1
  O  O67  1  0.83660725  0.08462598  0.27325760  1
  O  O68  1  0.72068158  0.34568646  0.30426319  1
  O  O69  1  0.43289447  0.65182689  0.24055745  1
  O  O70  1  0.32066023  0.21871393  0.25589680  1
  O  O71  1  0.80528069  0.76475648  0.28413838  1
  O  O72  1  0.36140234  0.14658344  0.19825216  1
  O  O73  1  0.42644577  0.54796654  0.17890235  1
  O  O74  1  0.03212228  0.22975912  0.28565359  1
  O  O75  1  0.11714925  0.77464462  0.25624965  1
  O  O76  1  0.18519668  0.48897155  0.36913996  1
  O  O77  1  0.41268682  0.18043678  0.37465565  1
  O  O78  1  0.47604585  0.38471978  0.34830428  1
  O  O79  1  0.79574729  0.85210009  0.34108188  1
