# generated using pymatgen
data_Na3Zr2Si2PO12
_symmetry_space_group_name_H-M   'P 1'
_cell_length_a   9.13268800
_cell_length_b   9.27295607
_cell_length_c   45.11609400
_cell_angle_alpha   90.00000000
_cell_angle_beta   90.00000000
_cell_angle_gamma   61.42673606
_symmetry_Int_Tables_number   1
_chemical_formula_structural   Na3Zr2Si2PO12
_chemical_formula_sum   'Na12 Zr8 Si8 P4 O48'
_cell_volume   3355.40417904
_cell_formula_units_Z   4
loop_
 _symmetry_equiv_pos_site_id
 _symmetry_equiv_pos_as_xyz
  1  'x, y, z'
loop_
 _atom_site_type_symbol
 _atom_site_label
 _atom_site_symmetry_multiplicity
 _atom_site_fract_x
 _atom_site_fract_y
 _atom_site_fract_z
 _atom_site_occupancy
  Na  Na0  1  0.25680135  0.83390539  0.04357297  1
  Na  Na1  1  0.82726006  0.13675279  0.09526079  1
  Na  Na2  1  0.20370787  0.65389842  0.10224551  1
  Na  Na3  1  0.29969517  0.85744237  0.24887131  1
  Na  Na4  1  0.68180447  0.00938249  0.22131499  1
  Na  Na5  1  0.84423559  0.37963054  0.17928209  1
  Na  Na6  1  0.13734966  0.48622383  0.29078411  1
  Na  Na7  1  0.27594074  0.02352900  0.17422650  1
  Na  Na8  1  0.70551077  0.84318337  0.29598130  1
  Na  Na9  1  0.72484588  0.03305931  0.42667957  1
  Na  Na10  1  0.15410629  0.72977362  0.37498141  1
  Na  Na11  1  0.77746565  0.21273065  0.36794680  1
  Zr  Zr12  1  0.34446941  0.25266370  0.09998912  1
  Zr  Zr13  1  0.59790788  0.65369375  0.13085230  1
  Zr  Zr14  1  0.28817493  0.32591292  0.21015944  1
  Zr  Zr15  1  0.69364016  0.54057311  0.26002070  1
  Zr  Zr16  1  0.01850945  0.89391248  0.17353834  1
  Zr  Zr17  1  0.96299876  0.97248692  0.29660279  1
  Zr  Zr18  1  0.63662855  0.61404592  0.37012051  1
  Zr  Zr19  1  0.38353172  0.21297941  0.33937984  1
  Si  Si20  1  0.19106862  0.96122369  0.10831220  1
  Si  Si21  1  0.03518816  0.52475577  0.14800139  1
  Si  Si22  1  0.58646946  0.03615284  0.15605626  1
  Si  Si23  1  0.42971159  0.61662260  0.19582868  1
  Si  Si24  1  0.55175168  0.25026828  0.27440893  1
  Si  Si25  1  0.39502003  0.83048166  0.31406917  1
  Si  Si26  1  0.94652860  0.34128381  0.32220291  1
  Si  Si27  1  0.79033090  0.90539924  0.36187796  1
  P  P28  1  0.55566551  0.44295644  0.06748200  1
  P  P29  1  0.01208987  0.17291091  0.22929912  1
  P  P30  1  0.96939633  0.69352566  0.24082057  1
  P  P31  1  0.42578789  0.42383508  0.40274499  1
  O  O32  1  0.36087514  0.78957538  0.11613594  1
  O  O33  1  0.53805439  0.15382397  0.12587391  1
  O  O34  1  0.69782834  0.28774245  0.05528422  1
  O  O35  1  0.47476585  0.59725686  0.04881169  1
  O  O36  1  0.40522062  0.39815613  0.07556363  1
  O  O37  1  0.61120898  0.48158634  0.09904304  1
  O  O38  1  0.25311369  0.09586003  0.09712792  1
  O  O39  1  0.04752923  0.69516725  0.15063222  1
  O  O40  1  0.57353090  0.87281938  0.14670857  1
  O  O41  1  0.16364389  0.43364099  0.11970904  1
  O  O42  1  0.07826280  0.01591395  0.13951680  1
  O  O43  1  0.56327697  0.56165957  0.16781104  1
  O  O44  1  0.08826447  0.92679589  0.08270349  1
  O  O45  1  0.76732968  0.00665630  0.16717633  1
  O  O46  1  0.85205807  0.54999558  0.13822712  1
  O  O47  1  0.26462148  0.79423052  0.18968247  1
  O  O48  1  0.71666611  0.07247658  0.28053271  1
  O  O49  1  0.10116944  0.40445997  0.17682452  1
  O  O50  1  0.88118393  0.46102762  0.29329785  1
  O  O51  1  0.10599697  0.51233549  0.23811753  1
  O  O52  1  0.87540071  0.35405094  0.23200022  1
  O  O53  1  0.96315910  0.79922671  0.21407382  1
  O  O54  1  0.01816229  0.06708095  0.25602200  1
  O  O55  1  0.18788939  0.15864698  0.22513538  1
  O  O56  1  0.79362146  0.70780817  0.24502716  1
  O  O57  1  0.97113880  0.10784782  0.20026957  1
  O  O58  1  0.01035375  0.75859268  0.26984778  1
  O  O59  1  0.37531273  0.47410315  0.19848056  1
  O  O60  1  0.60634278  0.39260133  0.27174920  1
  O  O61  1  0.40799535  0.99375754  0.32346298  1
  O  O62  1  0.93411460  0.17087067  0.31963427  1
  O  O63  1  0.45156466  0.12934939  0.18296112  1
  O  O64  1  0.53042200  0.73704892  0.28724788  1
  O  O65  1  0.41817395  0.30507258  0.30242401  1
  O  O66  1  0.90300879  0.85078007  0.33065250  1
  O  O67  1  0.45837567  0.23196742  0.24480433  1
  O  O68  1  0.52300099  0.63493857  0.22543130  1
  O  O69  1  0.12943110  0.31622829  0.33211879  1
  O  O70  1  0.21440256  0.85993468  0.30280954  1
  O  O71  1  0.62042567  0.07713228  0.35411371  1
  O  O72  1  0.44275521  0.71284286  0.34427463  1
  O  O73  1  0.28376432  0.57899567  0.41498555  1
  O  O74  1  0.50667715  0.26948327  0.42139961  1
  O  O75  1  0.57623605  0.46856460  0.39463135  1
  O  O76  1  0.37024625  0.38524385  0.37117130  1
  O  O77  1  0.72828739  0.77064450  0.37300362  1
  O  O78  1  0.81726923  0.43309587  0.35036298  1
  O  O79  1  0.89316415  0.93967201  0.38750727  1
