# generated using pymatgen
data_Na3Zr2Si2PO12
_symmetry_space_group_name_H-M   'P 1'
_cell_length_a   9.13268800
_cell_length_b   15.82410455
_cell_length_c   46.98437800
_cell_angle_alpha   90.00000000
_cell_angle_beta   90.00000000
_cell_angle_gamma   55.44796707
_symmetry_Int_Tables_number   1
_chemical_formula_structural   Na3Zr2Si2PO12
_chemical_formula_sum   'Na30 Zr20 Si20 P10 O120'
_cell_volume   5592.34083582
_cell_formula_units_Z   10
loop_
 _symmetry_equiv_pos_site_id
 _symmetry_equiv_pos_as_xyz
  1  'x, y, z'
loop_
 _atom_site_type_symbol
 _atom_site_label
 _atom_site_symmetry_multiplicity
 _atom_site_fract_x
 _atom_site_fract_y
 _atom_site_fract_z
 _atom_site_occupancy
  Na  Na0  1  0.79513192  0.74802508  0.06371620  1
  Na  Na1  1  0.16853745  0.77577229  0.03883639  1
  Na  Na2  1  0.47872412  0.38276030  0.04137344  1
  Na  Na3  1  0.66057038  0.99829714  0.02632255  1
  Na  Na4  1  0.91117068  0.16739074  0.08994801  1
  Na  Na5  1  0.15678816  0.31888350  0.02174487  1
  Na  Na6  1  0.80930727  0.20991068  0.16867621  1
  Na  Na7  1  0.22038121  0.25174080  0.13400774  1
  Na  Na8  1  0.48127370  0.85521713  0.16046591  1
  Na  Na9  1  0.61343877  0.53084506  0.14219968  1
  Na  Na10  1  0.92365293  0.65796836  0.18560104  1
  Na  Na11  1  0.12620061  0.81008761  0.11690392  1
  Na  Na12  1  0.84949009  0.70776274  0.26415837  1
  Na  Na13  1  0.22964887  0.74056131  0.23582555  1
  Na  Na14  1  0.48702467  0.35899791  0.25976418  1
  Na  Na15  1  0.59281126  0.08819730  0.24025048  1
  Na  Na16  1  0.93969175  0.14799763  0.28616334  1
  Na  Na17  1  0.13993118  0.30004514  0.21390602  1
  Na  Na18  1  0.85890813  0.19633179  0.36605237  1
  Na  Na19  1  0.26780053  0.23707147  0.33176743  1
  Na  Na20  1  0.46706769  0.91584858  0.35786807  1
  Na  Na21  1  0.59897035  0.59197682  0.33950645  1
  Na  Na22  1  0.95457311  0.63760023  0.38312092  1
  Na  Na23  1  0.15595047  0.79016132  0.31438706  1
  Na  Na24  1  0.91415451  0.67267625  0.46095382  1
  Na  Na25  1  0.28555755  0.70054983  0.43607972  1
  Na  Na26  1  0.41990124  0.44947468  0.47358716  1
  Na  Na27  1  0.60199484  0.06494252  0.45874812  1
  Na  Na28  1  0.92375356  0.12925945  0.47830926  1
  Na  Na29  1  0.16750448  0.28132740  0.41010296  1
  Zr  Zr30  1  0.86603428  0.39116897  0.08672518  1
  Zr  Zr31  1  0.14411282  0.10866431  0.01727788  1
  Zr  Zr32  1  0.66825125  0.61101986  0.01475123  1
  Zr  Zr33  1  0.35578787  0.89170598  0.09096017  1
  Zr  Zr34  1  0.88080544  0.87759360  0.19045087  1
  Zr  Zr35  1  0.15612142  0.59785364  0.10974495  1
  Zr  Zr36  1  0.66701679  0.09454565  0.10924013  1
  Zr  Zr37  1  0.37346022  0.38207492  0.19045581  1
  Zr  Zr38  1  0.89869357  0.36504388  0.29029343  1
  Zr  Zr39  1  0.18066789  0.08321325  0.20961468  1
  Zr  Zr40  1  0.68661481  0.57980987  0.20866910  1
  Zr  Zr41  1  0.39266763  0.86837094  0.29126047  1
  Zr  Zr42  1  0.92352495  0.85029324  0.39022137  1
  Zr  Zr43  1  0.19843417  0.57064269  0.30947109  1
  Zr  Zr44  1  0.70555120  0.06644547  0.30952810  1
  Zr  Zr45  1  0.41226380  0.35368943  0.39076522  1
  Zr  Zr46  1  0.93548855  0.33943405  0.48292918  1
  Zr  Zr47  1  0.21330303  0.05744164  0.41319849  1
  Zr  Zr48  1  0.72381919  0.55650180  0.40909132  1
  Zr  Zr49  1  0.41193590  0.83702124  0.48527674  1
  Si  Si50  1  0.04702026  0.51198673  0.04939570  1
  Si  Si51  1  0.96520633  0.99368958  0.05213971  1
  Si  Si52  1  0.78531555  0.35878345  0.01320838  1
  Si  Si53  1  0.27036775  0.13799278  0.07798699  1
  Si  Si54  1  0.05467371  0.99179028  0.14923359  1
  Si  Si55  1  0.99365423  0.47611887  0.14981386  1
  Si  Si56  1  0.76218528  0.84618128  0.12362370  1
  Si  Si57  1  0.27811862  0.62901449  0.17670494  1
  Si  Si58  1  0.06700550  0.48202424  0.24887019  1
  Si  Si59  1  0.01183090  0.96647129  0.25104898  1
  Si  Si60  1  0.78247647  0.33164823  0.22314377  1
  Si  Si61  1  0.29673176  0.11656084  0.27679473  1
  Si  Si62  1  0.08598152  0.97219490  0.35014064  1
  Si  Si63  1  0.02498958  0.45623793  0.35071773  1
  Si  Si64  1  0.80145685  0.81926191  0.32322194  1
  Si  Si65  1  0.31734423  0.60185502  0.37637961  1
  Si  Si66  1  0.11445511  0.45429644  0.44797075  1
  Si  Si67  1  0.03300403  0.93630233  0.45047579  1
  Si  Si68  1  0.80892873  0.31037124  0.42209753  1
  Si  Si69  1  0.29417226  0.08923640  0.48691206  1
  P  P70  1  0.50642163  0.85887118  0.01647593  1
  P  P71  1  0.46445558  0.64062211  0.07951627  1
  P  P72  1  0.55376492  0.34825060  0.11884817  1
  P  P73  1  0.48638762  0.13067881  0.18017489  1
  P  P74  1  0.57722211  0.83126933  0.22070284  1
  P  P75  1  0.50204811  0.61686032  0.27924853  1
  P  P76  1  0.59321010  0.31783105  0.31986162  1
  P  P77  1  0.52608875  0.10015370  0.38112278  1
  P  P78  1  0.61491599  0.80782457  0.42056507  1
  P  P79  1  0.57245661  0.58927298  0.48352036  1
  O  O80  1  0.86081638  0.60693903  0.03174486  1
  O  O81  1  0.12831868  0.91225724  0.07357777  1
  O  O82  1  0.79065546  0.36095988  0.04902637  1
  O  O83  1  0.28797142  0.13730335  0.04225718  1
  O  O84  1  0.61462516  0.53854435  0.09223975  1
  O  O85  1  0.34374062  0.96302568  0.00308553  1
  O  O86  1  0.49788346  0.63946049  0.04611000  1
  O  O87  1  0.46381175  0.85316028  0.04837234  1
  O  O88  1  0.67532797  0.85529774  0.01521769  1
  O  O89  1  0.28055444  0.65916320  0.08148908  1
  O  O90  1  0.52421884  0.76467521  0.00063619  1
  O  O91  1  0.46130467  0.72924459  0.09344479  1
  O  O92  1  0.97649178  0.44865205  0.06538775  1
  O  O93  1  0.00622170  0.08096293  0.04070814  1
  O  O94  1  0.77291158  0.46748978  0.00344940  1
  O  O95  1  0.26593623  0.03950849  0.08593177  1
  O  O96  1  0.08109617  0.23959192  0.08872790  1
  O  O97  1  0.99416563  0.25467343  0.00376266  1
  O  O98  1  0.78189621  0.06895541  0.07034555  1
  O  O99  1  0.20754032  0.43732418  0.02896704  1
  O  O100  1  0.94617475  0.93451320  0.02656997  1
  O  O101  1  0.07057581  0.58198869  0.07171083  1
  O  O102  1  0.42804307  0.13885071  0.09238721  1
  O  O103  1  0.63105856  0.35238314  0.00169808  1
  O  O104  1  0.88937225  0.08139924  0.12975970  1
  O  O105  1  0.16698076  0.38739470  0.16850556  1
  O  O106  1  0.77073035  0.83291966  0.15843561  1
  O  O107  1  0.27088023  0.63819019  0.14190026  1
  O  O108  1  0.64026843  0.02758454  0.19303625  1
  O  O109  1  0.39393327  0.44824883  0.10604519  1
  O  O110  1  0.52417778  0.14290330  0.14910714  1
  O  O111  1  0.52913545  0.34323066  0.15151334  1
  O  O112  1  0.72743856  0.34364629  0.11448673  1
  O  O113  1  0.30848624  0.13919569  0.18130339  1
  O  O114  1  0.57841636  0.25494071  0.10353632  1
  O  O115  1  0.46968160  0.21769525  0.19856835  1
  O  O116  1  0.99863847  0.91871181  0.16329029  1
  O  O117  1  0.03916836  0.55345286  0.13549441  1
  O  O118  1  0.75545313  0.94840889  0.11509081  1
  O  O119  1  0.27363765  0.53027560  0.18600611  1
  O  O120  1  0.10426712  0.72792774  0.19252520  1
  O  O121  1  0.94111782  0.75006799  0.10814748  1
  O  O122  1  0.81905308  0.54965220  0.17040147  1
  O  O123  1  0.23647730  0.91356032  0.13052861  1
  O  O124  1  0.94444441  0.41929055  0.12643146  1
  O  O125  1  0.09648350  0.04917137  0.17355265  1
  O  O126  1  0.46071748  0.61501973  0.18753674  1
  O  O127  1  0.58985287  0.85162456  0.11068324  1
  O  O128  1  0.89946321  0.57190584  0.22978303  1
  O  O129  1  0.17958379  0.87657780  0.27012418  1
  O  O130  1  0.79274711  0.32000379  0.25794480  1
  O  O131  1  0.28637688  0.12834413  0.24200104  1
  O  O132  1  0.65532754  0.51483520  0.29243083  1
  O  O133  1  0.42380642  0.93332687  0.20755842  1
  O  O134  1  0.53642405  0.62652149  0.24761050  1
  O  O135  1  0.54309043  0.82155058  0.25235122  1
  O  O136  1  0.75623302  0.82159275  0.21916290  1
  O  O137  1  0.32296097  0.62659214  0.28075146  1
  O  O138  1  0.59429163  0.74337423  0.20268948  1
  O  O139  1  0.48467854  0.70485741  0.29725468  1
  O  O140  1  0.01495119  0.40780320  0.26330915  1
  O  O141  1  0.06396416  0.04062437  0.23658443  1
  O  O142  1  0.78128653  0.43199167  0.21393751  1
  O  O143  1  0.29768158  0.01626076  0.28598257  1
  O  O144  1  0.12171069  0.21530672  0.29262686  1
  O  O145  1  0.95745920  0.23289712  0.20732685  1
  O  O146  1  0.83489404  0.04251621  0.27094257  1
  O  O147  1  0.24408082  0.40599213  0.22901336  1
  O  O148  1  0.96383056  0.91049177  0.22710191  1
  O  O149  1  0.11493994  0.53792910  0.27285098  1
  O  O150  1  0.47506696  0.10776097  0.28805689  1
  O  O151  1  0.60413472  0.34037606  0.21191125  1
  O  O152  1  0.91243378  0.06083403  0.33147421  1
  O  O153  1  0.19054137  0.36643772  0.37013029  1
  O  O154  1  0.80918837  0.80969657  0.35802772  1
  O  O155  1  0.30851990  0.61517902  0.34156789  1
  O  O156  1  0.68532570  0.99973735  0.39381892  1
  O  O157  1  0.43937609  0.42081778  0.30694896  1
  O  O158  1  0.55032605  0.10524674  0.34845527  1
  O  O159  1  0.55579198  0.30599988  0.35098533  1
  O  O160  1  0.77133272  0.30903623  0.31863615  1
  O  O161  1  0.35152337  0.10572324  0.38554823  1
  O  O162  1  0.60973792  0.23067555  0.30156133  1
  O  O163  1  0.50319642  0.19298313  0.39642875  1
  O  O164  1  0.04037148  0.89507012  0.36460404  1
  O  O165  1  0.08067494  0.52940502  0.33661742  1
  O  O166  1  0.80590628  0.91809685  0.31401060  1
  O  O167  1  0.32256081  0.50013524  0.38497745  1
  O  O168  1  0.13891193  0.69828015  0.39188867  1
  O  O169  1  0.97518610  0.72037914  0.30737068  1
  O  O170  1  0.84369725  0.53446564  0.36957028  1
  O  O171  1  0.26036436  0.89838439  0.32953947  1
  O  O172  1  0.98239620  0.39910559  0.32643950  1
  O  O173  1  0.13597697  0.02904827  0.37339452  1
  O  O174  1  0.49024844  0.59592485  0.38926744  1
  O  O175  1  0.61871006  0.83333438  0.31238955  1
  O  O176  1  0.95099129  0.53587756  0.42658040  1
  O  O177  1  0.21985793  0.84132726  0.46799832  1
  O  O178  1  0.79257083  0.31036325  0.45784223  1
  O  O179  1  0.28689170  0.08769311  0.45109428  1
  O  O180  1  0.73522155  0.48519518  0.49691791  1
  O  O181  1  0.46508836  0.91014472  0.40787487  1
  O  O182  1  0.61467122  0.59506105  0.45160672  1
  O  O183  1  0.58253278  0.80924581  0.45401843  1
  O  O184  1  0.79926547  0.78862235  0.41836806  1
  O  O185  1  0.40357673  0.59284622  0.48482807  1
  O  O186  1  0.61664471  0.71945853  0.40676763  1
  O  O187  1  0.55475037  0.68347895  0.49933658  1
  O  O188  1  0.07344735  0.36726572  0.45958800  1
  O  O189  1  0.10287826  0.99951660  0.43425666  1
  O  O190  1  0.81419365  0.40867089  0.41427124  1
  O  O191  1  0.30609597  0.98064374  0.49665671  1
  O  O192  1  0.08597550  0.19360459  0.49654943  1
  O  O193  1  0.99754499  0.20883050  0.41110717  1
  O  O194  1  0.87307992  0.01098236  0.47099796  1
  O  O195  1  0.29688906  0.37876994  0.42959349  1
  O  O196  1  0.00853341  0.86619810  0.42833103  1
  O  O197  1  0.13452147  0.51344596  0.47341267  1
  O  O198  1  0.44949824  0.09485363  0.49829460  1
  O  O199  1  0.65005034  0.31049778  0.40782513  1
