# generated using pymatgen
data_Na3Zr2Si2PO12
_symmetry_space_group_name_H-M   'P 1'
_cell_length_a   9.13268800
_cell_length_b   9.27295607
_cell_length_c   45.11609400
_cell_angle_alpha   90.00000000
_cell_angle_beta   90.00000000
_cell_angle_gamma   61.42673606
_symmetry_Int_Tables_number   1
_chemical_formula_structural   Na3Zr2Si2PO12
_chemical_formula_sum   'Na12 Zr8 Si8 P4 O48'
_cell_volume   3355.40417904
_cell_formula_units_Z   4
loop_
 _symmetry_equiv_pos_site_id
 _symmetry_equiv_pos_as_xyz
  1  'x, y, z'
loop_
 _atom_site_type_symbol
 _atom_site_label
 _atom_site_symmetry_multiplicity
 _atom_site_fract_x
 _atom_site_fract_y
 _atom_site_fract_z
 _atom_site_occupancy
  Na  Na0  1  0.19483886  0.78016112  0.01398843  1
  Na  Na1  1  0.78291100  0.32584908  0.15000948  1
  Na  Na2  1  0.76680488  0.08382847  0.06560594  1
  Na  Na3  1  0.21422726  0.96993438  0.14480167  1
  Na  Na4  1  0.14225375  0.60031295  0.07291674  1
  Na  Na5  1  0.23790601  0.80242650  0.21947221  1
  Na  Na6  1  0.62088332  0.95532863  0.19195984  1
  Na  Na7  1  0.09157989  0.67292671  0.34570406  1
  Na  Na8  1  0.07539452  0.43281965  0.26153441  1
  Na  Na9  1  0.71618327  0.15847104  0.33895719  1
  Na  Na10  1  0.64541187  0.78740505  0.26651311  1
  Na  Na11  1  0.66408075  0.97688091  0.39738203  1
  Zr  Zr12  1  0.28353361  0.19887977  0.07060345  1
  Zr  Zr13  1  0.95750336  0.83973984  0.14412451  1
  Zr  Zr14  1  0.53690760  0.59959030  0.10141066  1
  Zr  Zr15  1  0.22677970  0.27168109  0.18078281  1
  Zr  Zr16  1  0.63178404  0.48653187  0.23061961  1
  Zr  Zr17  1  0.32198111  0.15876601  0.30996940  1
  Zr  Zr18  1  0.90126978  0.91877314  0.26726269  1
  Zr  Zr19  1  0.57513397  0.55991413  0.34078572  1
  Si  Si20  1  0.36872083  0.56181736  0.16629262  1
  Si  Si21  1  0.13010515  0.90727043  0.07888664  1
  Si  Si22  1  0.97373946  0.47078007  0.11858879  1
  Si  Si23  1  0.52537924  0.98194857  0.12668053  1
  Si  Si24  1  0.72851965  0.85149983  0.33245949  1
  Si  Si25  1  0.49013479  0.19606099  0.24507188  1
  Si  Si26  1  0.33360129  0.77633139  0.28465715  1
  Si  Si27  1  0.88461871  0.28779654  0.29292214  1
  P  P28  1  0.49463250  0.38947705  0.03797108  1
  P  P29  1  0.95085556  0.11882964  0.19996358  1
  P  P30  1  0.90829208  0.63919409  0.21143726  1
  P  P31  1  0.36408453  0.36900644  0.37345083  1
  O  O32  1  0.20407401  0.73976696  0.16007369  1
  O  O33  1  0.29964966  0.73542668  0.08675829  1
  O  O34  1  0.03943325  0.35070106  0.14745468  1
  O  O35  1  0.47688588  0.09989839  0.09652253  1
  O  O36  1  0.63627124  0.23428791  0.02565252  1
  O  O37  1  0.41310069  0.54387164  0.01934192  1
  O  O38  1  0.34455281  0.34460697  0.04628532  1
  O  O39  1  0.55113152  0.42799326  0.06943601  1
  O  O40  1  0.31382291  0.41969905  0.16895008  1
  O  O41  1  0.19224331  0.04192491  0.06777252  1
  O  O42  1  0.98606348  0.64122592  0.12120727  1
  O  O43  1  0.51296526  0.81847122  0.11725091  1
  O  O44  1  0.39027547  0.07494053  0.15358886  1
  O  O45  1  0.10281113  0.37964458  0.09036854  1
  O  O46  1  0.01712607  0.96185662  0.11008215  1
  O  O47  1  0.50267804  0.50680509  0.13834063  1
  O  O48  1  0.02722039  0.87323388  0.05322585  1
  O  O49  1  0.70609561  0.95259943  0.13788989  1
  O  O50  1  0.79094817  0.49575057  0.10870802  1
  O  O51  1  0.55917145  0.02353912  0.32467265  1
  O  O52  1  0.65488607  0.01817312  0.25123520  1
  O  O53  1  0.38265719  0.65756999  0.31469291  1
  O  O54  1  0.81816586  0.40871779  0.26415915  1
  O  O55  1  0.04502879  0.45802146  0.20882105  1
  O  O56  1  0.81433235  0.30000831  0.20271102  1
  O  O57  1  0.90271091  0.74477042  0.18470196  1
  O  O58  1  0.95655196  0.01297704  0.22665648  1
  O  O59  1  0.12671202  0.10442588  0.19585572  1
  O  O60  1  0.73255705  0.65319450  0.21550211  1
  O  O61  1  0.91017203  0.05380036  0.17089515  1
  O  O62  1  0.94856659  0.70460925  0.24049385  1
  O  O63  1  0.66613242  0.71701938  0.34360269  1
  O  O64  1  0.54506475  0.33820112  0.24242793  1
  O  O65  1  0.34645906  0.93944691  0.29419932  1
  O  O66  1  0.87246060  0.11738350  0.29013925  1
  O  O67  1  0.75665344  0.37788562  0.32134400  1
  O  O68  1  0.46805707  0.68381658  0.25765071  1
  O  O69  1  0.35623254  0.25126966  0.27303467  1
  O  O70  1  0.84159613  0.79642899  0.30128594  1
  O  O71  1  0.39687943  0.17814238  0.21541140  1
  O  O72  1  0.46166317  0.57985295  0.19597894  1
  O  O73  1  0.06784817  0.26257272  0.30265661  1
  O  O74  1  0.15260895  0.80603635  0.27354880  1
  O  O75  1  0.22097244  0.52274455  0.38586134  1
  O  O76  1  0.44741240  0.21402394  0.39191114  1
  O  O77  1  0.51274979  0.41621139  0.36534473  1
  O  O78  1  0.30832718  0.33068116  0.34188332  1
  O  O79  1  0.83175693  0.88497681  0.35813335  1
