# generated using pymatgen
data_Na3Zr2Si2PO12
_symmetry_space_group_name_H-M   'P 1'
_cell_length_a   9.13268800
_cell_length_b   9.27295607
_cell_length_c   45.11609400
_cell_angle_alpha   90.00000000
_cell_angle_beta   90.00000000
_cell_angle_gamma   61.42673606
_symmetry_Int_Tables_number   1
_chemical_formula_structural   Na3Zr2Si2PO12
_chemical_formula_sum   'Na6 Zr4 Si4 P2 O24'
_cell_volume   3355.40417904
_cell_formula_units_Z   2
loop_
 _symmetry_equiv_pos_site_id
 _symmetry_equiv_pos_as_xyz
  1  'x, y, z'
loop_
 _atom_site_type_symbol
 _atom_site_label
 _atom_site_symmetry_multiplicity
 _atom_site_fract_x
 _atom_site_fract_y
 _atom_site_fract_z
 _atom_site_occupancy
  Na  Na0  1  0.33802378  0.84299628  0.05719578  1
  Na  Na1  1  0.88071261  0.08707060  0.10662616  1
  Na  Na2  1  0.25235265  0.68064349  0.11340418  1
  Na  Na3  1  0.35660471  0.77186520  0.27621638  1
  Na  Na4  1  0.81448103  0.52700703  0.22664728  1
  Na  Na5  1  0.44406593  0.93298256  0.21998379  1
  Zr  Zr6  1  0.41410708  0.24373464  0.13070655  1
  Zr  Zr7  1  0.63566412  0.66515818  0.14987357  1
  Zr  Zr8  1  0.28182784  0.37023411  0.20247669  1
  Zr  Zr9  1  0.05992273  0.94933513  0.18354088  1
  Si  Si10  1  0.24228354  0.99416860  0.12159319  1
  Si  Si11  1  0.03447591  0.60011848  0.16265584  1
  Si  Si12  1  0.45302405  0.62002514  0.21187685  1
  Si  Si13  1  0.66143430  0.01433812  0.17060875  1
  P  P14  1  0.58284756  0.44482910  0.08959753  1
  P  P15  1  0.11357257  0.16970977  0.24368840  1
  O  O16  1  0.41497298  0.83327089  0.13304528  1
  O  O17  1  0.65563156  0.05897122  0.13460745  1
  O  O18  1  0.72186988  0.29234919  0.07633943  1
  O  O19  1  0.47754876  0.59076212  0.06986309  1
  O  O20  1  0.44630205  0.39607427  0.10411996  1
  O  O21  1  0.64283189  0.50334998  0.11792375  1
  O  O22  1  0.29284612  0.13949940  0.11334060  1
  O  O23  1  0.63558008  0.85582324  0.17747697  1
  O  O24  1  0.22297033  0.43328601  0.15513992  1
  O  O25  1  0.10494926  0.05637808  0.14932715  1
  O  O26  1  0.16185434  0.94517100  0.09422409  1
  O  O27  1  0.88408422  0.59412095  0.14486051  1
  O  O28  1  0.28030459  0.78098958  0.20045615  1
  O  O29  1  0.04038475  0.55492257  0.19863312  1
  O  O30  1  0.97562460  0.32308010  0.25690020  1
  O  O31  1  0.21825342  0.02410330  0.26352838  1
  O  O32  1  0.25085719  0.21681334  0.22896259  1
  O  O33  1  0.05246627  0.11119313  0.21552276  1
  O  O34  1  0.40299266  0.47423323  0.21994948  1
  O  O35  1  0.06025466  0.75876718  0.15587124  1
  O  O36  1  0.47291106  0.18127474  0.17799133  1
  O  O37  1  0.59042786  0.55865589  0.18414569  1
  O  O38  1  0.53344241  0.66871065  0.23928550  1
  O  O39  1  0.81142962  0.02068856  0.18846056  1
