# generated using pymatgen
data_Na3Zr2Si2PO12
_symmetry_space_group_name_H-M   'P 1'
_cell_length_a   9.27295600
_cell_length_b   9.15937100
_cell_length_c   52.67441700
_cell_angle_alpha   90.00000000
_cell_angle_beta   90.00000000
_cell_angle_gamma   90.00000000
_symmetry_Int_Tables_number   1
_chemical_formula_structural   Na3Zr2Si2PO12
_chemical_formula_sum   'Na18 Zr12 Si12 P6 O72'
_cell_volume   4473.87233518
_cell_formula_units_Z   6
loop_
 _symmetry_equiv_pos_site_id
 _symmetry_equiv_pos_as_xyz
  1  'x, y, z'
loop_
 _atom_site_type_symbol
 _atom_site_label
 _atom_site_symmetry_multiplicity
 _atom_site_fract_x
 _atom_site_fract_y
 _atom_site_fract_z
 _atom_site_occupancy
  Na  Na0  1  0.68100453  0.66387932  0.03156170  1
  Na  Na1  1  0.18125611  0.01437895  0.03160025  1
  Na  Na2  1  0.57607875  0.43506796  0.08273479  1
  Na  Na3  1  0.07643609  0.24276862  0.08267346  1
  Na  Na4  1  0.20084597  0.20436450  0.16472517  1
  Na  Na5  1  0.90990243  0.95641345  0.12946548  1
  Na  Na6  1  0.40999121  0.72107051  0.12946801  1
  Na  Na7  1  0.70033261  0.47379998  0.16478421  1
  Na  Na8  1  0.04070869  0.94515560  0.20958063  1
  Na  Na9  1  0.54074163  0.73303778  0.20958968  1
  Na  Na10  1  0.67124328  0.72121681  0.28988216  1
  Na  Na11  1  0.38054822  0.47438532  0.25471793  1
  Na  Na12  1  0.88107708  0.20346926  0.25476676  1
  Na  Na13  1  0.17083789  0.95593644  0.28989270  1
  Na  Na14  1  0.50424462  0.43464139  0.33672289  1
  Na  Na15  1  0.00402099  0.24223694  0.33676844  1
  Na  Na16  1  0.89887299  0.01341234  0.38779874  1
  Na  Na17  1  0.40017805  0.66309123  0.38783245  1
  Zr  Zr18  1  0.27622897  0.57006922  0.06259474  1
  Zr  Zr19  1  0.35379990  0.09308963  0.10852156  1
  Zr  Zr20  1  0.85370618  0.58427398  0.10856817  1
  Zr  Zr21  1  0.77639505  0.10787910  0.06266759  1
  Zr  Zr22  1  0.75286897  0.08450168  0.18493927  1
  Zr  Zr23  1  0.82760955  0.59323172  0.23455673  1
  Zr  Zr24  1  0.32754976  0.08460970  0.23448676  1
  Zr  Zr25  1  0.25292790  0.59331455  0.18487592  1
  Zr  Zr26  1  0.22667293  0.58419198  0.31082803  1
  Zr  Zr27  1  0.30393516  0.10765482  0.35673361  1
  Zr  Zr28  1  0.80414912  0.56949936  0.35679315  1
  Zr  Zr29  1  0.72634648  0.09299573  0.31083971  1
  Si  Si30  1  0.91713535  0.44736198  0.04731344  1
  Si  Si31  1  0.70900291  0.23114971  0.12161085  1
  Si  Si32  1  0.20912140  0.44644157  0.12154868  1
  Si  Si33  1  0.41743205  0.23048403  0.04728678  1
  Si  Si34  1  0.39532396  0.94929608  0.17391630  1
  Si  Si35  1  0.18525214  0.72862791  0.24546841  1
  Si  Si36  1  0.68539768  0.94950474  0.24548691  1
  Si  Si37  1  0.89519518  0.72844205  0.17392000  1
  Si  Si38  1  0.87122110  0.44622323  0.29787611  1
  Si  Si39  1  0.66295792  0.22982304  0.37212285  1
  Si  Si40  1  0.16340060  0.44720636  0.37208113  1
  Si  Si41  1  0.37081670  0.23099930  0.29781035  1
  P  P42  1  0.56662508  0.80065940  0.08054898  1
  P  P43  1  0.06658009  0.87674391  0.08048084  1
  P  P44  1  0.04003601  0.29742305  0.20968102  1
  P  P45  1  0.54017387  0.38054769  0.20976170  1
  P  P46  1  0.51374176  0.80061299  0.33873980  1
  P  P47  1  0.01362324  0.87650129  0.33878751  1
  O  O48  1  0.82574175  0.50105500  0.07324335  1
  O  O49  1  0.81107050  0.15435529  0.09905576  1
  O  O50  1  0.31074213  0.52370666  0.09899098  1
  O  O51  1  0.32586249  0.17636496  0.07318069  1
  O  O52  1  0.17528031  0.78554094  0.06456738  1
  O  O53  1  0.45990354  0.89730416  0.09577089  1
  O  O54  1  0.96001249  0.77974907  0.09565441  1
  O  O55  1  0.67527650  0.89239184  0.06471724  1
  O  O56  1  0.48312292  0.69948428  0.06166144  1
  O  O57  1  0.14447247  0.97487040  0.10040582  1
  O  O58  1  0.64441983  0.70232484  0.10044966  1
  O  O59  1  0.98297576  0.97826185  0.06165527  1
  O  O60  1  0.09253003  0.47326888  0.05540763  1
  O  O61  1  0.54141589  0.19697364  0.11439273  1
  O  O62  1  0.04134754  0.48052876  0.11446736  1
  O  O63  1  0.59263905  0.20439088  0.05544663  1
  O  O64  1  0.40302883  0.41474469  0.04825260  1
  O  O65  1  0.22717557  0.26829841  0.12195171  1
  O  O66  1  0.72703984  0.40928146  0.12209386  1
  O  O67  1  0.90291284  0.26309522  0.04822305  1
  O  O68  1  0.86532804  0.52911808  0.02272773  1
  O  O69  1  0.36568289  0.14906099  0.02266530  1
  O  O70  1  0.29433016  0.02818308  0.19567749  1
  O  O71  1  0.28591715  0.64955563  0.22367873  1
  O  O72  1  0.78624372  0.02843092  0.22371552  1
  O  O73  1  0.79460614  0.64944358  0.19573489  1
  O  O74  1  0.65162530  0.28610957  0.19539650  1
  O  O75  1  0.92870212  0.39154835  0.22413876  1
  O  O76  1  0.42830546  0.28631169  0.22406316  1
  O  O77  1  0.15149335  0.39180901  0.19531084  1
  O  O78  1  0.96504215  0.19836931  0.18971196  1
  O  O79  1  0.61509855  0.47948143  0.22975644  1
  O  O80  1  0.11499429  0.19788850  0.22958768  1
  O  O81  1  0.46558426  0.48009436  0.18981543  1
  O  O82  1  0.56587753  0.98023635  0.18065950  1
  O  O83  1  0.01454606  0.69734466  0.23885682  1
  O  O84  1  0.51475412  0.98090056  0.23886233  1
  O  O85  1  0.06587737  0.69712450  0.18052419  1
  O  O86  1  0.87887534  0.90779945  0.17438861  1
  O  O87  1  0.70174869  0.77014083  0.24501185  1
  O  O88  1  0.20165300  0.90789650  0.24499909  1
  O  O89  1  0.37876570  0.76996096  0.17432885  1
  O  O90  1  0.76309617  0.15773733  0.14797626  1
  O  O91  1  0.34728473  0.00764947  0.14579596  1
  O  O92  1  0.84683725  0.67036357  0.14580356  1
  O  O93  1  0.26386451  0.51934145  0.14793108  1
  O  O94  1  0.76910270  0.52280801  0.32043643  1
  O  O95  1  0.75452270  0.17590468  0.34621699  1
  O  O96  1  0.25492971  0.50076695  0.34615068  1
  O  O97  1  0.26873507  0.15449031  0.32038005  1
  O  O98  1  0.12057626  0.77986645  0.32363489  1
  O  O99  1  0.40545019  0.89262232  0.35459932  1
  O  O100  1  0.90517737  0.78478086  0.35468166  1
  O  O101  1  0.62057582  0.89704409  0.32350674  1
  O  O102  1  0.43550100  0.70261044  0.31885126  1
  O  O103  1  0.09686558  0.97826800  0.35761897  1
  O  O104  1  0.59710260  0.69908880  0.35759343  1
  O  O105  1  0.93539563  0.97430786  0.31886752  1
  O  O106  1  0.03879237  0.48058991  0.30505187  1
  O  O107  1  0.48764836  0.20427475  0.36394640  1
  O  O108  1  0.98812381  0.47311346  0.36394985  1
  O  O109  1  0.53835223  0.19625491  0.30501406  1
  O  O110  1  0.35326548  0.40914614  0.29731446  1
  O  O111  1  0.17755886  0.26290160  0.37121496  1
  O  O112  1  0.67752494  0.41419015  0.37122059  1
  O  O113  1  0.85313126  0.26815335  0.29741603  1
  O  O114  1  0.23342450  0.67033654  0.27359382  1
  O  O115  1  0.81690211  0.51978223  0.27152626  1
  O  O116  1  0.31630587  0.15772524  0.27145239  1
  O  O117  1  0.73380404  0.00760115  0.27359280  1
  O  O118  1  0.71429218  0.14798234  0.39673869  1
  O  O119  1  0.21525892  0.52915991  0.39664455  1
