# generated using pymatgen
data_Na3Zr2Si2PO12
_symmetry_space_group_name_H-M   'P 1'
_cell_length_a   9.13268800
_cell_length_b   9.27295607
_cell_length_c   45.11609400
_cell_angle_alpha   90.00000000
_cell_angle_beta   90.00000000
_cell_angle_gamma   61.42673606
_symmetry_Int_Tables_number   1
_chemical_formula_structural   Na3Zr2Si2PO12
_chemical_formula_sum   'Na12 Zr8 Si8 P4 O48'
_cell_volume   3355.40417904
_cell_formula_units_Z   4
loop_
 _symmetry_equiv_pos_site_id
 _symmetry_equiv_pos_as_xyz
  1  'x, y, z'
loop_
 _atom_site_type_symbol
 _atom_site_label
 _atom_site_symmetry_multiplicity
 _atom_site_fract_x
 _atom_site_fract_y
 _atom_site_fract_z
 _atom_site_occupancy
  Na  Na0  1  0.17654767  0.76959083  0.00613814  1
  Na  Na1  1  0.76601012  0.31256438  0.14232090  1
  Na  Na2  1  0.74996011  0.07369296  0.05742031  1
  Na  Na3  1  0.19873217  0.95421813  0.13705653  1
  Na  Na4  1  0.12494072  0.58602207  0.06452823  1
  Na  Na5  1  0.22080985  0.78571966  0.21161482  1
  Na  Na6  1  0.60519413  0.94210911  0.18408028  1
  Na  Na7  1  0.07658654  0.65815757  0.33781838  1
  Na  Na8  1  0.05929062  0.41696823  0.25354890  1
  Na  Na9  1  0.69998505  0.14347566  0.33109044  1
  Na  Na10  1  0.62688700  0.77501970  0.25853762  1
  Na  Na11  1  0.64763410  0.96126123  0.38929770  1
  Zr  Zr12  1  0.26705853  0.18414703  0.06280108  1
  Zr  Zr13  1  0.94097490  0.82497186  0.13626840  1
  Zr  Zr14  1  0.52009391  0.58519549  0.09343076  1
  Zr  Zr15  1  0.21031051  0.25682063  0.17286165  1
  Zr  Zr16  1  0.61580301  0.47189941  0.22277938  1
  Zr  Zr17  1  0.30577824  0.14404237  0.30218546  1
  Zr  Zr18  1  0.88491528  0.90384751  0.25941633  1
  Zr  Zr19  1  0.55915386  0.54505983  0.33288358  1
  Si  Si20  1  0.35228947  0.54708921  0.15840779  1
  Si  Si21  1  0.11338150  0.89273533  0.07112252  1
  Si  Si22  1  0.95719088  0.45621365  0.11063119  1
  Si  Si23  1  0.50895941  0.96735796  0.11884196  1
  Si  Si24  1  0.71263484  0.83615097  0.32455696  1
  Si  Si25  1  0.47361514  0.18179440  0.23718762  1
  Si  Si26  1  0.31701974  0.76183361  0.27679398  1
  Si  Si27  1  0.86872891  0.27243794  0.28509153  1
  P  P28  1  0.47684570  0.37623415  0.02990997  1
  P  P29  1  0.93431500  0.10379812  0.19209099  1
  P  P30  1  0.89212351  0.62437492  0.20361068  1
  P  P31  1  0.34841811  0.35426872  0.36557764  1
  O  O32  1  0.18717698  0.72500435  0.15246382  1
  O  O33  1  0.28272770  0.72037334  0.07878889  1
  O  O34  1  0.02341575  0.33586681  0.13944810  1
  O  O35  1  0.46008419  0.08606516  0.08879463  1
  O  O36  1  0.61954274  0.22312659  0.01721430  1
  O  O37  1  0.39241391  0.53193233  0.01166905  1
  O  O38  1  0.32904522  0.32814176  0.03822238  1
  O  O39  1  0.89220962  0.03912674  0.16313438  1
  O  O40  1  0.53408888  0.41341850  0.06143411  1
  O  O41  1  0.29796466  0.40452877  0.16104285  1
  O  O42  1  0.17614531  0.02691287  0.05992043  1
  O  O43  1  0.96937706  0.62671566  0.11331949  1
  O  O44  1  0.49593675  0.80420607  0.10929061  1
  O  O45  1  0.37419805  0.05995611  0.14579353  1
  O  O46  1  0.08553769  0.36583506  0.08227499  1
  O  O47  1  0.00126159  0.94734976  0.10238792  1
  O  O48  1  0.48542341  0.49288495  0.13033356  1
  O  O49  1  0.00941859  0.86006227  0.04547940  1
  O  O50  1  0.68972980  0.93751223  0.13005081  1
  O  O51  1  0.77415426  0.48116925  0.10085270  1
  O  O52  1  0.54275312  0.00822460  0.31693246  1
  O  O53  1  0.63881057  0.00399088  0.24319293  1
  O  O54  1  0.36620250  0.64336524  0.30688017  1
  O  O55  1  0.80232785  0.39291314  0.25627973  1
  O  O56  1  0.02832906  0.44304861  0.20087486  1
  O  O57  1  0.79816580  0.28512690  0.19489798  1
  O  O58  1  0.88605414  0.72997928  0.17685848  1
  O  O59  1  0.94086863  0.99809684  0.21886372  1
  O  O60  1  0.11004972  0.08938157  0.18772809  1
  O  O61  1  0.71629296  0.63884881  0.20784916  1
  O  O62  1  0.29269416  0.31626862  0.33398053  1
  O  O63  1  0.93349380  0.68941686  0.23260087  1
  O  O64  1  0.65055618  0.70170032  0.33585048  1
  O  O65  1  0.52797343  0.32432219  0.23453021  1
  O  O66  1  0.32996506  0.92504604  0.28625355  1
  O  O67  1  0.85634861  0.10206918  0.28239687  1
  O  O68  1  0.74048062  0.36299883  0.31344523  1
  O  O69  1  0.45154252  0.66916616  0.24980617  1
  O  O70  1  0.34037042  0.23606991  0.26523904  1
  O  O71  1  0.82442443  0.78166605  0.29326647  1
  O  O72  1  0.38009815  0.16380268  0.20757344  1
  O  O73  1  0.44633118  0.56467925  0.18798966  1
  O  O74  1  0.05169052  0.24764989  0.29486365  1
  O  O75  1  0.13606719  0.79102818  0.26578554  1
  O  O76  1  0.20546432  0.50800695  0.37801614  1
  O  O77  1  0.43147950  0.19912058  0.38399792  1
  O  O78  1  0.49715687  0.40137171  0.35750928  1
  O  O79  1  0.81635798  0.86968151  0.35011769  1
