# generated using pymatgen
data_Na3Zr2Si2PO12
_symmetry_space_group_name_H-M   'P 1'
_cell_length_a   9.27295600
_cell_length_b   9.15937100
_cell_length_c   52.67441700
_cell_angle_alpha   90.00000000
_cell_angle_beta   90.00000000
_cell_angle_gamma   90.00000000
_symmetry_Int_Tables_number   1
_chemical_formula_structural   Na3Zr2Si2PO12
_chemical_formula_sum   'Na18 Zr12 Si12 P6 O72'
_cell_volume   4473.87233518
_cell_formula_units_Z   6
loop_
 _symmetry_equiv_pos_site_id
 _symmetry_equiv_pos_as_xyz
  1  'x, y, z'
loop_
 _atom_site_type_symbol
 _atom_site_label
 _atom_site_symmetry_multiplicity
 _atom_site_fract_x
 _atom_site_fract_y
 _atom_site_fract_z
 _atom_site_occupancy
  Na  Na0  1  0.76720473  0.75599165  0.05463950  1
  Na  Na1  1  0.26748002  0.10644658  0.05469580  1
  Na  Na2  1  0.66292107  0.52764105  0.10576096  1
  Na  Na3  1  0.16288594  0.33494450  0.10573848  1
  Na  Na4  1  0.28720281  0.29608658  0.18782868  1
  Na  Na5  1  0.99629578  0.04902135  0.15262651  1
  Na  Na6  1  0.49602367  0.81355671  0.15261599  1
  Na  Na7  1  0.78720705  0.56694908  0.18783090  1
  Na  Na8  1  0.12731304  0.03736897  0.23282397  1
  Na  Na9  1  0.62716962  0.82540316  0.23289001  1
  Na  Na10  1  0.75755767  0.81323585  0.31301369  1
  Na  Na11  1  0.46798381  0.56644014  0.27776067  1
  Na  Na12  1  0.96783850  0.29594710  0.27782842  1
  Na  Na13  1  0.25819007  0.04867255  0.31300161  1
  Na  Na14  1  0.59116929  0.52718514  0.35995610  1
  Na  Na15  1  0.09116493  0.33478605  0.35987979  1
  Na  Na16  1  0.98657733  0.10596760  0.41092213  1
  Na  Na17  1  0.48620965  0.75678332  0.41098874  1
  Zr  Zr18  1  0.36277616  0.66239570  0.08576338  1
  Zr  Zr19  1  0.86294524  0.20045806  0.08573998  1
  Zr  Zr20  1  0.84015073  0.17712640  0.20801023  1
  Zr  Zr21  1  0.44082628  0.18565562  0.13168129  1
  Zr  Zr22  1  0.94053558  0.67688989  0.13165889  1
  Zr  Zr23  1  0.33996701  0.68573656  0.20797768  1
  Zr  Zr24  1  0.31411695  0.67671295  0.33388627  1
  Zr  Zr25  1  0.91479957  0.68550769  0.25761957  1
  Zr  Zr26  1  0.41493403  0.17682770  0.25758539  1
  Zr  Zr27  1  0.81410761  0.18536536  0.33397528  1
  Zr  Zr28  1  0.39149609  0.20000451  0.37985912  1
  Zr  Zr29  1  0.89131896  0.66210300  0.37988868  1
  Si  Si30  1  0.00380734  0.53988618  0.07037827  1
  Si  Si31  1  0.50389611  0.32291155  0.07041614  1
  Si  Si32  1  0.48247930  0.04185619  0.19703373  1
  Si  Si33  1  0.79608095  0.32387702  0.14469356  1
  Si  Si34  1  0.29564396  0.53852877  0.14465985  1
  Si  Si35  1  0.98242218  0.82125210  0.19702960  1
  Si  Si36  1  0.95860193  0.53884819  0.32093064  1
  Si  Si37  1  0.27277254  0.82074415  0.26856105  1
  Si  Si38  1  0.77262997  0.04155125  0.26859920  1
  Si  Si39  1  0.45894157  0.32344128  0.32088441  1
  Si  Si40  1  0.75049766  0.32220063  0.39531878  1
  Si  Si41  1  0.25038377  0.53977389  0.39510584  1
  P  P42  1  0.65335771  0.89331161  0.10369100  1
  P  P43  1  0.15347137  0.96950215  0.10375335  1
  P  P44  1  0.12752968  0.38970487  0.23282948  1
  P  P45  1  0.62744377  0.47297147  0.23275762  1
  P  P46  1  0.60126039  0.89293958  0.36196417  1
  P  P47  1  0.10113531  0.96904427  0.36194411  1
  O  O48  1  0.91241252  0.59366254  0.09631724  1
  O  O49  1  0.89790644  0.24736940  0.12209188  1
  O  O50  1  0.39766708  0.61548821  0.12211225  1
  O  O51  1  0.41258161  0.26900580  0.09634757  1
  O  O52  1  0.26175016  0.87765465  0.08784406  1
  O  O53  1  0.54653361  0.98981545  0.11891795  1
  O  O54  1  0.04660875  0.87285491  0.11892946  1
  O  O55  1  0.76166823  0.98532728  0.08783260  1
  O  O56  1  0.57000191  0.79179227  0.08484452  1
  O  O57  1  0.07019286  0.07128672  0.08492803  1
  O  O58  1  0.17906656  0.56574720  0.07852787  1
  O  O59  1  0.67922431  0.29705857  0.07852149  1
  O  O60  1  0.48950911  0.50728127  0.07132541  1
  O  O61  1  0.98935463  0.35558946  0.07122979  1
  O  O62  1  0.95202382  0.62185978  0.04580599  1
  O  O63  1  0.45189293  0.24121717  0.04583236  1
  O  O64  1  0.38159592  0.12082642  0.21879512  1
  O  O65  1  0.37362419  0.74184667  0.24678423  1
  O  O66  1  0.87347588  0.12032926  0.24679961  1
  O  O67  1  0.88173113  0.74223238  0.21882227  1
  O  O68  1  0.73954113  0.37893737  0.21846757  1
  O  O69  1  0.01585592  0.48382075  0.24719993  1
  O  O70  1  0.51619931  0.37844722  0.24715001  1
  O  O71  1  0.23881928  0.48416885  0.21843265  1
  O  O72  1  0.05276594  0.29025998  0.21288634  1
  O  O73  1  0.23167797  0.06737469  0.12366871  1
  O  O74  1  0.73158433  0.79529131  0.12357759  1
  O  O75  1  0.55240226  0.57172615  0.21275017  1
  O  O76  1  0.65300421  0.07325292  0.20374521  1
  O  O77  1  0.62846402  0.28950238  0.13753828  1
  O  O78  1  0.12812205  0.57266220  0.13741907  1
  O  O79  1  0.15311422  0.79032872  0.20370786  1
  O  O80  1  0.96587913  0.00053786  0.19741025  1
  O  O81  1  0.31391662  0.36051924  0.14516428  1
  O  O82  1  0.81391657  0.50198723  0.14517451  1
  O  O83  1  0.46599197  0.86248511  0.19749661  1
  O  O84  1  0.85065148  0.25036985  0.17102893  1
  O  O85  1  0.43424880  0.09995363  0.16892020  1
  O  O86  1  0.93426001  0.76262491  0.16893072  1
  O  O87  1  0.34987639  0.61211877  0.17102575  1
  O  O88  1  0.85678929  0.61570168  0.34351689  1
  O  O89  1  0.84169211  0.26813224  0.36936850  1
  O  O90  1  0.34205916  0.59346780  0.36922064  1
  O  O91  1  0.35722520  0.24653442  0.34347586  1
  O  O92  1  0.20779848  0.87235227  0.34673183  1
  O  O93  1  0.49279529  0.98468806  0.37784414  1
  O  O94  1  0.99267228  0.87748698  0.37784493  1
  O  O95  1  0.70790509  0.98942289  0.34670105  1
  O  O96  1  0.52327393  0.79464636  0.34209091  1
  O  O97  1  0.70193170  0.57272485  0.25268826  1
  O  O98  1  0.20258027  0.29061398  0.25278515  1
  O  O99  1  0.02297830  0.06707853  0.34203766  1
  O  O100  1  0.12634209  0.57336201  0.32793940  1
  O  O101  1  0.10216137  0.78887048  0.26197378  1
  O  O102  1  0.60195297  0.07264751  0.26194681  1
  O  O103  1  0.62651588  0.28915106  0.32805013  1
  O  O104  1  0.44082740  0.50156196  0.32043912  1
  O  O105  1  0.78904980  0.86218715  0.26819029  1
  O  O106  1  0.28881700  0.00013110  0.26808011  1
  O  O107  1  0.94086217  0.36067029  0.32058099  1
  O  O108  1  0.32152451  0.76288750  0.29668037  1
  O  O109  1  0.90358224  0.61176964  0.29457019  1
  O  O110  1  0.40423117  0.25018050  0.29453992  1
  O  O111  1  0.82093816  0.10009015  0.29669281  1
  O  O112  1  0.18465093  0.07065544  0.38077284  1
  O  O113  1  0.68477287  0.79173025  0.38085027  1
  O  O114  1  0.57515232  0.29644794  0.38720733  1
  O  O115  1  0.07512451  0.56533383  0.38693891  1
  O  O116  1  0.26493265  0.35548070  0.39423719  1
  O  O117  1  0.76511190  0.50650719  0.39434204  1
  O  O118  1  0.80226341  0.24051366  0.41991838  1
  O  O119  1  0.30179755  0.62182914  0.41969448  1
