# generated using pymatgen
data_Na3Zr2Si2PO12
_symmetry_space_group_name_H-M   'P 1'
_cell_length_a   9.13268800
_cell_length_b   9.27295607
_cell_length_c   45.11609400
_cell_angle_alpha   90.00000000
_cell_angle_beta   90.00000000
_cell_angle_gamma   61.42673606
_symmetry_Int_Tables_number   1
_chemical_formula_structural   Na3Zr2Si2PO12
_chemical_formula_sum   'Na12 Zr8 Si8 P4 O48'
_cell_volume   3355.40417904
_cell_formula_units_Z   4
loop_
 _symmetry_equiv_pos_site_id
 _symmetry_equiv_pos_as_xyz
  1  'x, y, z'
loop_
 _atom_site_type_symbol
 _atom_site_label
 _atom_site_symmetry_multiplicity
 _atom_site_fract_x
 _atom_site_fract_y
 _atom_site_fract_z
 _atom_site_occupancy
  Na  Na0  1  0.24252541  0.82706531  0.03738011  1
  Na  Na1  1  0.81497564  0.13059505  0.08876332  1
  Na  Na2  1  0.26472644  0.01128878  0.16824218  1
  Na  Na3  1  0.19112761  0.64380280  0.09562994  1
  Na  Na4  1  0.28653597  0.84318453  0.24269522  1
  Na  Na5  1  0.67122758  0.00211812  0.21512500  1
  Na  Na6  1  0.83219865  0.36975566  0.17342546  1
  Na  Na7  1  0.12428543  0.47340089  0.28448668  1
  Na  Na8  1  0.76385643  0.20053781  0.36202431  1
  Na  Na9  1  0.69175668  0.83215945  0.28970760  1
  Na  Na10  1  0.71294999  0.01883866  0.42063262  1
  Na  Na11  1  0.14040530  0.71462698  0.36906934  1
  Zr  Zr12  1  0.33268479  0.24203359  0.09388987  1
  Zr  Zr13  1  0.58554128  0.64310356  0.12465093  1
  Zr  Zr14  1  0.27535847  0.31462959  0.20396043  1
  Zr  Zr15  1  0.68070557  0.52906160  0.25401253  1
  Zr  Zr16  1  0.00636316  0.88275480  0.16743483  1
  Zr  Zr17  1  0.94996222  0.96062845  0.29060794  1
  Zr  Zr18  1  0.62375029  0.60177923  0.36417704  1
  Zr  Zr19  1  0.37003457  0.20112218  0.33332931  1
  Si  Si20  1  0.17863498  0.95095254  0.10233618  1
  Si  Si21  1  0.02264192  0.51429850  0.14168439  1
  Si  Si22  1  0.57430116  0.02535295  0.14997700  1
  Si  Si23  1  0.41768906  0.60430814  0.18955081  1
  Si  Si24  1  0.53868199  0.23915183  0.26839525  1
  Si  Si25  1  0.38163805  0.81865240  0.30799097  1
  Si  Si26  1  0.93312294  0.32979398  0.31629667  1
  Si  Si27  1  0.77693800  0.89313104  0.35577624  1
  P  P28  1  0.54272606  0.43402227  0.06110105  1
  P  P29  1  0.99993099  0.16107610  0.22335940  1
  P  P30  1  0.95656823  0.68219124  0.23469016  1
  P  P31  1  0.41261433  0.41087954  0.39678397  1
  O  O32  1  0.34822242  0.77879072  0.11001525  1
  O  O33  1  0.52580982  0.14365080  0.11986730  1
  O  O34  1  0.68583024  0.28088931  0.04850918  1
  O  O35  1  0.45865696  0.58952897  0.04280033  1
  O  O36  1  0.39475479  0.38590021  0.06926861  1
  O  O37  1  0.59887504  0.47160826  0.09267946  1
  O  O38  1  0.24104617  0.08536984  0.09114612  1
  O  O39  1  0.03479139  0.68474412  0.14441564  1
  O  O40  1  0.56127661  0.86222102  0.14047169  1
  O  O41  1  0.15134022  0.42380425  0.11337435  1
  O  O42  1  0.06655777  0.00532489  0.13361060  1
  O  O43  1  0.55128074  0.55040296  0.16155818  1
  O  O44  1  0.07502172  0.91785547  0.07668186  1
  O  O45  1  0.75501931  0.99591035  0.16117345  1
  O  O46  1  0.83964054  0.53943999  0.13186474  1
  O  O47  1  0.25267100  0.78237426  0.18360531  1
  O  O48  1  0.70380788  0.06110611  0.27429563  1
  O  O49  1  0.08843811  0.39382984  0.17050860  1
  O  O50  1  0.86691140  0.45059083  0.28752153  1
  O  O51  1  0.09351735  0.50118005  0.23188142  1
  O  O52  1  0.86327128  0.34214312  0.22618656  1
  O  O53  1  0.95005264  0.78826289  0.20797512  1
  O  O54  1  0.00676863  0.05486778  0.25006604  1
  O  O55  1  0.17540100  0.14730520  0.21901934  1
  O  O56  1  0.78124771  0.69566154  0.23894148  1
  O  O57  1  0.95825265  0.09641888  0.19434978  1
  O  O58  1  0.99780259  0.74701224  0.26371975  1
  O  O59  1  0.36293450  0.46205830  0.19199804  1
  O  O60  1  0.59322063  0.38155042  0.26593565  1
  O  O61  1  0.39336192  0.98248559  0.31742976  1
  O  O62  1  0.92119665  0.15924186  0.31350057  1
  O  O63  1  0.43932657  0.11805538  0.17687874  1
  O  O64  1  0.51622678  0.72645232  0.28099294  1
  O  O65  1  0.40516651  0.29287059  0.29638908  1
  O  O66  1  0.88911680  0.83881986  0.32450353  1
  O  O67  1  0.44521987  0.22215986  0.23868191  1
  O  O68  1  0.51136686  0.62131575  0.21922404  1
  O  O69  1  0.11598777  0.30524146  0.32605920  1
  O  O70  1  0.20095504  0.84716145  0.29699334  1
  O  O71  1  0.60694520  0.06474763  0.34803903  1
  O  O72  1  0.43137383  0.70009969  0.33807093  1
  O  O73  1  0.26943555  0.56441725  0.40923664  1
  O  O74  1  0.49558196  0.25559688  0.41516513  1
  O  O75  1  0.56133961  0.45814951  0.38877109  1
  O  O76  1  0.35710776  0.37325143  0.36514070  1
  O  O77  1  0.71542537  0.75830282  0.36704254  1
  O  O78  1  0.80473034  0.41984122  0.34465265  1
  O  O79  1  0.88030535  0.92722425  0.38133234  1
