# generated using pymatgen
data_Na3Zr2Si2PO12
_symmetry_space_group_name_H-M   'P 1'
_cell_length_a   9.27295600
_cell_length_b   9.15937100
_cell_length_c   52.67441700
_cell_angle_alpha   90.00000000
_cell_angle_beta   90.00000000
_cell_angle_gamma   90.00000000
_symmetry_Int_Tables_number   1
_chemical_formula_structural   Na3Zr2Si2PO12
_chemical_formula_sum   'Na18 Zr12 Si12 P6 O72'
_cell_volume   4473.87233518
_cell_formula_units_Z   6
loop_
 _symmetry_equiv_pos_site_id
 _symmetry_equiv_pos_as_xyz
  1  'x, y, z'
loop_
 _atom_site_type_symbol
 _atom_site_label
 _atom_site_symmetry_multiplicity
 _atom_site_fract_x
 _atom_site_fract_y
 _atom_site_fract_z
 _atom_site_occupancy
  Na  Na0  1  0.73187228  0.71700109  0.04507222  1
  Na  Na1  1  0.23119419  0.06738439  0.04496078  1
  Na  Na2  1  0.62633596  0.48842581  0.09599442  1
  Na  Na3  1  0.12638983  0.29531470  0.09596275  1
  Na  Na4  1  0.25066119  0.25694696  0.17810959  1
  Na  Na5  1  0.95909607  0.00973278  0.14286137  1
  Na  Na6  1  0.45888406  0.77413692  0.14285427  1
  Na  Na7  1  0.75092731  0.52679419  0.17812015  1
  Na  Na8  1  0.09070075  0.99819646  0.22300520  1
  Na  Na9  1  0.59056121  0.78577921  0.22302552  1
  Na  Na10  1  0.72156493  0.77475947  0.30321742  1
  Na  Na11  1  0.43001364  0.52701006  0.26804175  1
  Na  Na12  1  0.93048883  0.25719132  0.26801662  1
  Na  Na13  1  0.22130930  0.01053203  0.30321843  1
  Na  Na14  1  0.55459692  0.48921792  0.35020289  1
  Na  Na15  1  0.05500089  0.29646898  0.35013672  1
  Na  Na16  1  0.95038921  0.06850790  0.40116776  1
  Na  Na17  1  0.44987094  0.71742423  0.40116555  1
  Zr  Zr18  1  0.32622597  0.62306161  0.07601510  1
  Zr  Zr19  1  0.40360838  0.14632295  0.12196527  1
  Zr  Zr20  1  0.90353036  0.63761898  0.12191284  1
  Zr  Zr21  1  0.82618150  0.16087896  0.07607233  1
  Zr  Zr22  1  0.80302419  0.13778134  0.19827806  1
  Zr  Zr23  1  0.87819564  0.64665677  0.24784893  1
  Zr  Zr24  1  0.37799903  0.13804847  0.24789778  1
  Zr  Zr25  1  0.30324318  0.64641981  0.19821597  1
  Zr  Zr26  1  0.27764124  0.63807385  0.32420341  1
  Zr  Zr27  1  0.35498839  0.16165851  0.37009100  1
  Zr  Zr28  1  0.85505557  0.62373541  0.37008345  1
  Zr  Zr29  1  0.77767178  0.14685439  0.32420886  1
  Si  Si30  1  0.96746493  0.50035002  0.06063373  1
  Si  Si31  1  0.46732948  0.28349043  0.06071953  1
  Si  Si32  1  0.44541240  0.00247101  0.18732084  1
  Si  Si33  1  0.75868725  0.28458978  0.13495855  1
  Si  Si34  1  0.25840370  0.49907866  0.13491335  1
  Si  Si35  1  0.94574279  0.78168176  0.18725862  1
  Si  Si36  1  0.92259470  0.49989555  0.31119062  1
  Si  Si37  1  0.23568297  0.78204489  0.25881048  1
  Si  Si38  1  0.73560390  0.00266121  0.25886338  1
  Si  Si39  1  0.42248707  0.28511316  0.31120329  1
  Si  Si40  1  0.71396735  0.28425957  0.38541352  1
  Si  Si41  1  0.21390079  0.50120627  0.38554021  1
  P  P42  1  0.61641776  0.85394816  0.09400790  1
  P  P43  1  0.11649138  0.93006202  0.09396602  1
  P  P44  1  0.09064789  0.35059981  0.22302229  1
  P  P45  1  0.59070742  0.43378845  0.22310752  1
  P  P46  1  0.56458160  0.85464195  0.35213832  1
  P  P47  1  0.06475774  0.93069001  0.35209339  1
  O  O48  1  0.87585804  0.55476451  0.08652615  1
  O  O49  1  0.86068765  0.20732497  0.11244672  1
  O  O50  1  0.36032103  0.57621379  0.11238191  1
  O  O51  1  0.37565292  0.22945089  0.08660372  1
  O  O52  1  0.22487410  0.83825654  0.07808606  1
  O  O53  1  0.50963103  0.95046659  0.10922127  1
  O  O54  1  0.00969075  0.83351874  0.10918072  1
  O  O55  1  0.72498320  0.94573731  0.07816270  1
  O  O56  1  0.53314330  0.75254812  0.07513598  1
  O  O57  1  0.19461348  0.02808643  0.11386929  1
  O  O58  1  0.69447250  0.75578853  0.11389732  1
  O  O59  1  0.03316523  0.03160086  0.07511162  1
  O  O60  1  0.14266102  0.52630379  0.06877748  1
  O  O61  1  0.64254899  0.25759498  0.06887119  1
  O  O62  1  0.45295304  0.46773682  0.06166110  1
  O  O63  1  0.95292572  0.31612432  0.06165640  1
  O  O64  1  0.91566409  0.58176971  0.03601363  1
  O  O65  1  0.41572011  0.20191667  0.03610241  1
  O  O66  1  0.34467168  0.08135302  0.20910847  1
  O  O67  1  0.33636895  0.70304234  0.23702552  1
  O  O68  1  0.83617345  0.08172630  0.23706216  1
  O  O69  1  0.84523003  0.70241409  0.20904647  1
  O  O70  1  0.70205848  0.33932019  0.20873355  1
  O  O71  1  0.97926208  0.44497371  0.23740753  1
  O  O72  1  0.47896491  0.33962315  0.23744048  1
  O  O73  1  0.20227822  0.44478949  0.20864624  1
  O  O74  1  0.01578011  0.25136385  0.20306098  1
  O  O75  1  0.66571152  0.53274497  0.24308964  1
  O  O76  1  0.16543771  0.25131694  0.24298352  1
  O  O77  1  0.51609098  0.53325728  0.20314815  1
  O  O78  1  0.61599786  0.03371237  0.19398148  1
  O  O79  1  0.59110406  0.25028932  0.12782766  1
  O  O80  1  0.09082282  0.53319587  0.12776688  1
  O  O81  1  0.11649161  0.75100797  0.19388190  1
  O  O82  1  0.92870786  0.96101871  0.18771179  1
  O  O83  1  0.27661763  0.32104162  0.13539581  1
  O  O84  1  0.77659932  0.46271000  0.13536387  1
  O  O85  1  0.42902238  0.82310364  0.18770090  1
  O  O86  1  0.81315995  0.21160040  0.16134212  1
  O  O87  1  0.39703886  0.06084167  0.15922429  1
  O  O88  1  0.89736565  0.72336493  0.15915388  1
  O  O89  1  0.31303597  0.57253497  0.16126494  1
  O  O90  1  0.82063172  0.57699374  0.33371388  1
  O  O91  1  0.80572442  0.23005385  0.35955857  1
  O  O92  1  0.30537454  0.55555693  0.35963280  1
  O  O93  1  0.32029706  0.20832396  0.33372808  1
  O  O94  1  0.17131463  0.83402947  0.33685481  1
  O  O95  1  0.45610937  0.94629673  0.36803091  1
  O  O96  1  0.95631645  0.83892896  0.36796653  1
  O  O97  1  0.67152602  0.95108435  0.33694970  1
  O  O98  1  0.48647457  0.75668768  0.33221544  1
  O  O99  1  0.14819573  0.03222601  0.37093622  1
  O  O100  1  0.64798351  0.75302080  0.37096710  1
  O  O101  1  0.98668920  0.02894476  0.33221569  1
  O  O102  1  0.09025325  0.53351439  0.31842877  1
  O  O103  1  0.06510401  0.75097842  0.25206678  1
  O  O104  1  0.56492973  0.03410798  0.25229665  1
  O  O105  1  0.58996598  0.25050713  0.31835119  1
  O  O106  1  0.40480868  0.46330012  0.31079017  1
  O  O107  1  0.75184295  0.82329063  0.25833911  1
  O  O108  1  0.25216389  0.96141630  0.25844034  1
  O  O109  1  0.90415145  0.32184843  0.31069836  1
  O  O110  1  0.28379630  0.72344528  0.28691467  1
  O  O111  1  0.86866418  0.57356668  0.28482852  1
  O  O112  1  0.36774110  0.21232102  0.28481520  1
  O  O113  1  0.78429149  0.06066480  0.28696967  1
  O  O114  1  0.53870243  0.25831548  0.37727577  1
  O  O115  1  0.03861313  0.52703517  0.37740140  1
  O  O116  1  0.22838233  0.31689534  0.38454559  1
  O  O117  1  0.72823655  0.46849663  0.38447437  1
  O  O118  1  0.76554157  0.20254722  0.41002468  1
  O  O119  1  0.26559962  0.58264115  0.41016516  1
