# generated using pymatgen
data_Na3Zr2Si2PO12
_symmetry_space_group_name_H-M   'P 1'
_cell_length_a   9.27295600
_cell_length_b   9.15937100
_cell_length_c   52.67441700
_cell_angle_alpha   90.00000000
_cell_angle_beta   90.00000000
_cell_angle_gamma   90.00000000
_symmetry_Int_Tables_number   1
_chemical_formula_structural   Na3Zr2Si2PO12
_chemical_formula_sum   'Na18 Zr12 Si12 P6 O72'
_cell_volume   4473.87233518
_cell_formula_units_Z   6
loop_
 _symmetry_equiv_pos_site_id
 _symmetry_equiv_pos_as_xyz
  1  'x, y, z'
loop_
 _atom_site_type_symbol
 _atom_site_label
 _atom_site_symmetry_multiplicity
 _atom_site_fract_x
 _atom_site_fract_y
 _atom_site_fract_z
 _atom_site_occupancy
  Na  Na0  1  0.74860627  0.73402594  0.04916235  1
  Na  Na1  1  0.24825705  0.08440655  0.04911506  1
  Na  Na2  1  0.64336971  0.50563334  0.10022246  1
  Na  Na3  1  0.14338800  0.31252139  0.10020149  1
  Na  Na4  1  0.26566845  0.27385232  0.18224580  1
  Na  Na5  1  0.97547051  0.02663457  0.14703158  1
  Na  Na6  1  0.47602893  0.79185141  0.14712348  1
  Na  Na7  1  0.76620827  0.54421661  0.18224359  1
  Na  Na8  1  0.10567301  0.01529123  0.22744862  1
  Na  Na9  1  0.60583931  0.80293771  0.22742122  1
  Na  Na10  1  0.73691190  0.79109953  0.30750719  1
  Na  Na11  1  0.44552618  0.54351908  0.27228098  1
  Na  Na12  1  0.94565952  0.27484879  0.27225829  1
  Na  Na13  1  0.23678772  0.02704637  0.30751020  1
  Na  Na14  1  0.57022149  0.50526889  0.35428668  1
  Na  Na15  1  0.07022089  0.31250172  0.35434607  1
  Na  Na16  1  0.96445108  0.08406922  0.40534687  1
  Na  Na17  1  0.46470269  0.73367339  0.40528905  1
  Zr  Zr18  1  0.34347105  0.64027497  0.08027636  1
  Zr  Zr19  1  0.84337920  0.17840124  0.08019736  1
  Zr  Zr20  1  0.81876427  0.15489809  0.20246668  1
  Zr  Zr21  1  0.42044375  0.16346716  0.12615381  1
  Zr  Zr22  1  0.92055391  0.65503715  0.12611777  1
  Zr  Zr23  1  0.31859236  0.66345271  0.20250684  1
  Zr  Zr24  1  0.29279160  0.65478855  0.32847832  1
  Zr  Zr25  1  0.89379024  0.66387251  0.25210848  1
  Zr  Zr26  1  0.39375647  0.15504943  0.25208209  1
  Zr  Zr27  1  0.79281761  0.16347808  0.32847477  1
  Zr  Zr28  1  0.37021069  0.17775081  0.37431138  1
  Zr  Zr29  1  0.87025569  0.63967575  0.37435075  1
  Si  Si30  1  0.98480950  0.51784894  0.06490864  1
  Si  Si31  1  0.48437337  0.30075475  0.06492925  1
  Si  Si32  1  0.46091541  0.01962682  0.19152648  1
  Si  Si33  1  0.77554636  0.30191895  0.13913301  1
  Si  Si34  1  0.27560482  0.51657555  0.13917928  1
  Si  Si35  1  0.96089899  0.79901996  0.19149306  1
  Si  Si36  1  0.93772085  0.51660272  0.31544845  1
  Si  Si37  1  0.25142355  0.79889998  0.26311605  1
  Si  Si38  1  0.75125617  0.01977006  0.26311320  1
  Si  Si39  1  0.43754637  0.30148284  0.31544964  1
  Si  Si40  1  0.72885071  0.30034776  0.38972150  1
  Si  Si41  1  0.22912563  0.51743695  0.38974292  1
  P  P42  1  0.63377130  0.87148993  0.09810500  1
  P  P43  1  0.13379378  0.94732767  0.09812361  1
  P  P44  1  0.10605352  0.36770011  0.22729416  1
  P  P45  1  0.60664066  0.45094680  0.22731563  1
  P  P46  1  0.58021914  0.87078189  0.35637321  1
  P  P47  1  0.08004978  0.94692944  0.35643979  1
  O  O48  1  0.89276073  0.57176173  0.09076759  1
  O  O49  1  0.87753672  0.22469930  0.11659731  1
  O  O50  1  0.37776682  0.59356687  0.11665015  1
  O  O51  1  0.39261500  0.24685533  0.09080532  1
  O  O52  1  0.24221629  0.85565203  0.08222123  1
  O  O53  1  0.52695394  0.96794762  0.11333532  1
  O  O54  1  0.02699002  0.85067591  0.11331522  1
  O  O55  1  0.74198451  0.96319519  0.08216390  1
  O  O56  1  0.55031958  0.76973256  0.07930721  1
  O  O57  1  0.21177887  0.04519142  0.11806255  1
  O  O58  1  0.71206366  0.77371112  0.11801884  1
  O  O59  1  0.05042563  0.04899820  0.07929982  1
  O  O60  1  0.15988207  0.54332846  0.07314807  1
  O  O61  1  0.65963504  0.27507147  0.07307366  1
  O  O62  1  0.46996309  0.48500937  0.06583190  1
  O  O63  1  0.97015486  0.33359100  0.06576646  1
  O  O64  1  0.93376887  0.60013142  0.04031943  1
  O  O65  1  0.43298627  0.21892146  0.04032109  1
  O  O66  1  0.36034356  0.09906275  0.21328046  1
  O  O67  1  0.35181445  0.71938187  0.24133949  1
  O  O68  1  0.85184123  0.09871227  0.24129949  1
  O  O69  1  0.86028827  0.72031845  0.21332282  1
  O  O70  1  0.71809570  0.35674945  0.21291166  1
  O  O71  1  0.99482676  0.46254612  0.24160944  1
  O  O72  1  0.49515626  0.35635448  0.24165220  1
  O  O73  1  0.21759225  0.46171497  0.21286384  1
  O  O74  1  0.03099129  0.26826490  0.20739605  1
  O  O75  1  0.68140842  0.54992281  0.24732242  1
  O  O76  1  0.18090213  0.26868062  0.24729449  1
  O  O77  1  0.53165514  0.55035437  0.20740590  1
  O  O78  1  0.63166385  0.05094762  0.19810672  1
  O  O79  1  0.60793376  0.26750703  0.13202352  1
  O  O80  1  0.10802795  0.55121124  0.13208798  1
  O  O81  1  0.13154547  0.76745415  0.19812728  1
  O  O82  1  0.94473445  0.97833896  0.19192112  1
  O  O83  1  0.29348174  0.33845961  0.13958359  1
  O  O84  1  0.79348370  0.48004501  0.13951025  1
  O  O85  1  0.44435264  0.84031021  0.19204772  1
  O  O86  1  0.82993967  0.22892217  0.16552479  1
  O  O87  1  0.41286408  0.07737970  0.16337194  1
  O  O88  1  0.91255389  0.74080121  0.16337371  1
  O  O89  1  0.32998997  0.58981226  0.16555871  1
  O  O90  1  0.83538038  0.59342398  0.33795168  1
  O  O91  1  0.82076076  0.24624591  0.36386268  1
  O  O92  1  0.32065114  0.57215514  0.36387695  1
  O  O93  1  0.33539525  0.22410583  0.33792395  1
  O  O94  1  0.18696577  0.85088173  0.34116232  1
  O  O95  1  0.47170833  0.96264612  0.37221793  1
  O  O96  1  0.97185828  0.85473395  0.37229966  1
  O  O97  1  0.68676615  0.96737485  0.34111697  1
  O  O98  1  0.50206900  0.77246939  0.33652272  1
  O  O99  1  0.16337742  0.04838006  0.37531029  1
  O  O100  1  0.66371597  0.76953660  0.37524337  1
  O  O101  1  0.00165862  0.04506481  0.33658776  1
  O  O102  1  0.10523031  0.55077219  0.32269595  1
  O  O103  1  0.08065078  0.76816296  0.25645834  1
  O  O104  1  0.58059031  0.05068086  0.25644334  1
  O  O105  1  0.60516908  0.26754865  0.32263846  1
  O  O106  1  0.41919716  0.47956796  0.31503442  1
  O  O107  1  0.76799897  0.84047824  0.26269501  1
  O  O108  1  0.26817186  0.97820419  0.26261924  1
  O  O109  1  0.91962704  0.33847004  0.31501524  1
  O  O110  1  0.29951345  0.74058714  0.29123038  1
  O  O111  1  0.88380979  0.58993350  0.28905596  1
  O  O112  1  0.38335887  0.22851760  0.28903920  1
  O  O113  1  0.79948224  0.07827045  0.29120288  1
  O  O114  1  0.55377909  0.27462326  0.38145447  1
  O  O115  1  0.05382469  0.54286853  0.38155689  1
  O  O116  1  0.24381157  0.33323881  0.38872241  1
  O  O117  1  0.74334777  0.48459341  0.38875850  1
  O  O118  1  0.77994997  0.21857451  0.41435211  1
  O  O119  1  0.28035763  0.59902603  0.41438378  1
