# generated using pymatgen
data_Li26P3S18Cl5
_symmetry_space_group_name_H-M   'P 1'
_cell_length_a   9.80533700
_cell_length_b   7.22029003
_cell_length_c   44.07776800
_cell_angle_alpha   90.00000000
_cell_angle_beta   90.00000000
_cell_angle_gamma   47.23346674
_symmetry_Int_Tables_number   1
_chemical_formula_structural   Li26P3S18Cl5
_chemical_formula_sum   'Li26 P3 S18 Cl5'
_cell_volume   2290.90840188
_cell_formula_units_Z   1
loop_
 _symmetry_equiv_pos_site_id
 _symmetry_equiv_pos_as_xyz
  1  'x, y, z'
loop_
 _atom_site_type_symbol
 _atom_site_label
 _atom_site_symmetry_multiplicity
 _atom_site_fract_x
 _atom_site_fract_y
 _atom_site_fract_z
 _atom_site_occupancy
  Li  Li0  1  0.50390476  0.66373844  0.03083290  1
  Li  Li1  1  0.00651532  0.33497495  0.04989328  1
  Li  Li2  1  0.78116281  0.79927072  0.08385741  1
  Li  Li3  1  0.25766318  0.60000489  0.08287159  1
  Li  Li4  1  0.38273204  0.05617681  0.06854242  1
  Li  Li5  1  0.18645202  0.07621585  0.10696195  1
  Li  Li6  1  0.08488702  0.58586079  0.13765161  1
  Li  Li7  1  0.50597317  0.55617575  0.14510322  1
  Li  Li8  1  0.26027106  0.79934079  0.19486994  1
  Li  Li9  1  0.79268670  0.53240005  0.19853324  1
  Li  Li10  1  0.86533759  0.06761314  0.18115667  1
  Li  Li11  1  0.56237706  0.16696225  0.20910782  1
  Li  Li12  1  0.54180158  0.62242628  0.24808487  1
  Li  Li13  1  0.17201782  0.40788614  0.25504932  1
  Li  Li14  1  0.78987673  0.66454366  0.29072491  1
  Li  Li15  1  0.15327183  0.70664019  0.32869872  1
  Li  Li16  1  0.41655522  0.16736807  0.30917550  1
  Li  Li17  1  0.09603561  0.14994581  0.30963280  1
  Li  Li18  1  0.95608095  0.49534023  0.35342928  1
  Li  Li19  1  0.67602084  0.42720953  0.37179079  1
  Li  Li20  1  0.48399010  0.37413943  0.43973294  1
  Li  Li21  1  0.69770976  0.75646187  0.43276076  1
  Li  Li22  1  0.97161764  0.03289649  0.40652145  1
  Li  Li23  1  0.87745777  0.12279287  0.46418477  1
  Li  Li24  1  0.38190058  0.82214916  0.42327382  1
  Li  Li25  1  0.03703195  0.65459986  0.44499042  1
  P  P26  1  0.55525876  0.02946552  0.14105320  1
  P  P27  1  0.05082732  0.02032306  0.25252771  1
  P  P28  1  0.58838222  0.02222920  0.37279301  1
  S  S29  1  0.23608312  0.89679725  0.05579963  1
  S  S30  1  0.10092220  0.46168914  0.08744019  1
  S  S31  1  0.33811119  0.24292594  0.17002388  1
  S  S32  1  0.58134837  0.22356309  0.11066083  1
  S  S33  1  0.55452429  0.79490329  0.11439616  1
  S  S34  1  0.79310420  0.81039338  0.16838311  1
  S  S35  1  0.58751029  0.47249563  0.19707925  1
  S  S36  1  0.82308935  0.27326882  0.27946094  1
  S  S37  1  0.09519556  0.19874050  0.22299853  1
  S  S38  1  0.04111327  0.79678021  0.22534447  1
  S  S39  1  0.27867192  0.77819353  0.28068740  1
  S  S40  1  0.08770454  0.47668914  0.30692695  1
  S  S41  1  0.40660631  0.14232386  0.40794244  1
  S  S42  1  0.51155974  0.31873245  0.34749753  1
  S  S43  1  0.59610243  0.79088957  0.34288804  1
  S  S44  1  0.85559436  0.80569054  0.39015375  1
  S  S45  1  0.69312155  0.43466513  0.42563038  1
  S  S46  1  0.18313183  0.79609790  0.44620293  1
  Cl  Cl47  1  0.69766660  0.72914958  0.03472208  1
  Cl  Cl48  1  0.13121768  0.89049687  0.14427556  1
  Cl  Cl49  1  0.54393602  0.99005510  0.25653787  1
  Cl  Cl50  1  0.03117846  0.09486567  0.35774390  1
  Cl  Cl51  1  0.75872032  0.91804560  0.47178185  1
