# generated using pymatgen
data_Li44P6S33Cl8
_symmetry_space_group_name_H-M   'P 1'
_cell_length_a   10.60410300
_cell_length_b   21.51103300
_cell_length_c   40.15794400
_cell_angle_alpha   90.00000000
_cell_angle_beta   90.00000000
_cell_angle_gamma   90.00000000
_symmetry_Int_Tables_number   1
_chemical_formula_structural   Li44P6S33Cl8
_chemical_formula_sum   'Li88 P12 S66 Cl16'
_cell_volume   9160.23623196
_cell_formula_units_Z   2
loop_
 _symmetry_equiv_pos_site_id
 _symmetry_equiv_pos_as_xyz
  1  'x, y, z'
loop_
 _atom_site_type_symbol
 _atom_site_label
 _atom_site_symmetry_multiplicity
 _atom_site_fract_x
 _atom_site_fract_y
 _atom_site_fract_z
 _atom_site_occupancy
  Li  Li0  1  0.76703046  0.13793526  0.12261657  1
  Li  Li1  1  0.62040564  0.48226462  0.03452154  1
  Li  Li2  1  0.80775461  0.84599996  0.15354184  1
  Li  Li3  1  0.79246180  0.34898865  0.12471767  1
  Li  Li4  1  0.92872310  0.61159240  0.07027431  1
  Li  Li5  1  0.98710255  0.25428439  0.10170718  1
  Li  Li6  1  0.64636016  0.64819065  0.05132968  1
  Li  Li7  1  0.79604065  0.99588083  0.12131263  1
  Li  Li8  1  0.72231347  0.22826172  0.16965433  1
  Li  Li9  1  0.82440631  0.48169888  0.09748025  1
  Li  Li10  1  0.83639816  0.76007670  0.04843797  1
  Li  Li11  1  0.30782506  0.34601846  0.15354743  1
  Li  Li12  1  0.26707342  0.63792778  0.12261299  1
  Li  Li13  1  0.12037660  0.98231544  0.03448829  1
  Li  Li14  1  0.42868934  0.11159735  0.07027864  1
  Li  Li15  1  0.29241201  0.84899890  0.12472047  1
  Li  Li16  1  0.14631058  0.14819467  0.05135161  1
  Li  Li17  1  0.29606516  0.49586028  0.12131287  1
  Li  Li18  1  0.48715520  0.75423899  0.10172175  1
  Li  Li19  1  0.33637224  0.26008096  0.04843103  1
  Li  Li20  1  0.22234466  0.72826222  0.16965642  1
  Li  Li21  1  0.32446795  0.98172166  0.09747765  1
  Li  Li22  1  0.07805580  0.03325880  0.10110696  1
  Li  Li23  1  0.15826566  0.34886117  0.07214686  1
  Li  Li24  1  0.03347269  0.73711080  0.10334634  1
  Li  Li25  1  0.03969618  0.42812899  0.14274689  1
  Li  Li26  1  0.19882347  0.76778090  0.05599372  1
  Li  Li27  1  0.53348267  0.23699207  0.10340579  1
  Li  Li28  1  0.57807121  0.53328028  0.10113754  1
  Li  Li29  1  0.65823156  0.84887232  0.07213123  1
  Li  Li30  1  0.69872342  0.26775131  0.05600255  1
  Li  Li31  1  0.53970828  0.92812542  0.14274259  1
  Li  Li32  1  0.80374342  0.25226565  0.26574392  1
  Li  Li33  1  0.77341994  0.54682188  0.20775399  1
  Li  Li34  1  0.79560139  0.94561144  0.32924236  1
  Li  Li35  1  0.80671813  0.44857868  0.29937509  1
  Li  Li36  1  0.77745644  0.74726253  0.24561903  1
  Li  Li37  1  0.81566338  0.04127469  0.18818566  1
  Li  Li38  1  0.78829105  0.40697907  0.23466024  1
  Li  Li39  1  0.82326932  0.70285993  0.18209774  1
  Li  Li40  1  0.71331014  0.06431156  0.28399332  1
  Li  Li41  1  0.79839716  0.29804592  0.33149971  1
  Li  Li42  1  0.79746622  0.59248839  0.27281147  1
  Li  Li43  1  0.79354897  0.88870560  0.21875205  1
  Li  Li44  1  0.29563134  0.44559618  0.32921421  1
  Li  Li45  1  0.30327757  0.75237936  0.26584787  1
  Li  Li46  1  0.27346038  0.04680957  0.20776164  1
  Li  Li47  1  0.27752808  0.24715111  0.24559020  1
  Li  Li48  1  0.31569830  0.54128209  0.18818373  1
  Li  Li49  1  0.30673926  0.94860175  0.29937868  1
  Li  Li50  1  0.32319929  0.20293025  0.18208841  1
  Li  Li51  1  0.21338004  0.56427495  0.28400147  1
  Li  Li52  1  0.28826750  0.90699042  0.23466502  1
  Li  Li53  1  0.29354121  0.38868645  0.21876125  1
  Li  Li54  1  0.29840059  0.79806078  0.33151336  1
  Li  Li55  1  0.29695682  0.09250592  0.27289065  1
  Li  Li56  1  0.02748183  0.15824416  0.25595032  1
  Li  Li57  1  0.03933531  0.46256964  0.20349854  1
  Li  Li58  1  0.04026325  0.86533501  0.31175405  1
  Li  Li59  1  0.05798835  0.15680969  0.18305902  1
  Li  Li60  1  0.03314522  0.55799506  0.35032849  1
  Li  Li61  1  0.03749736  0.83515251  0.25058255  1
  Li  Li62  1  0.54032899  0.36532913  0.31174830  1
  Li  Li63  1  0.52745034  0.65824642  0.25602414  1
  Li  Li64  1  0.53933654  0.96256933  0.20350246  1
  Li  Li65  1  0.53751915  0.33513458  0.25058137  1
  Li  Li66  1  0.55760206  0.65714423  0.18342642  1
  Li  Li67  1  0.53309199  0.05799356  0.35033081  1
  Li  Li68  1  0.92699168  0.68325526  0.38229437  1
  Li  Li69  1  0.61668543  0.81214626  0.41843171  1
  Li  Li70  1  0.76837824  0.15621470  0.32932725  1
  Li  Li71  1  0.83402101  0.53554601  0.40361714  1
  Li  Li72  1  0.82197440  0.81399348  0.35608012  1
  Li  Li73  1  0.64594813  0.64745099  0.40236083  1
  Li  Li74  1  0.98592319  0.04434508  0.35024866  1
  Li  Li75  1  0.42698600  0.18325357  0.38229128  1
  Li  Li76  1  0.11662694  0.31212788  0.41842967  1
  Li  Li77  1  0.26843101  0.65618084  0.32934543  1
  Li  Li78  1  0.32224321  0.31403375  0.35619121  1
  Li  Li79  1  0.33381579  0.03558260  0.40364108  1
  Li  Li80  1  0.48654766  0.54395588  0.35062107  1
  Li  Li81  1  0.14563685  0.14731816  0.40219508  1
  Li  Li82  1  0.19839044  0.52660304  0.39739044  1
  Li  Li83  1  0.07988430  0.26121161  0.35109072  1
  Li  Li84  1  0.15594127  0.94764632  0.37937912  1
  Li  Li85  1  0.69836405  0.02660700  0.39738375  1
  Li  Li86  1  0.65607930  0.44766543  0.37941525  1
  Li  Li87  1  0.57982661  0.76121328  0.35109967  1
  P  P88  1  0.51533871  0.09215310  0.14288726  1
  P  P89  1  0.51232667  0.39935113  0.08244944  1
  P  P90  1  0.01544362  0.59216699  0.14287981  1
  P  P91  1  0.01238489  0.89936446  0.08242340  1
  P  P92  1  0.51415721  0.20152722  0.30987267  1
  P  P93  1  0.50738560  0.49707419  0.25696773  1
  P  P94  1  0.51027720  0.79741612  0.19767418  1
  P  P95  1  0.01026027  0.29728685  0.19760336  1
  P  P96  1  0.01408431  0.70148555  0.30992326  1
  P  P97  1  0.00730995  0.99705968  0.25694720  1
  P  P98  1  0.51152291  0.89529229  0.37050369  1
  P  P99  1  0.01158969  0.39525786  0.37048582  1
  S  S100  1  0.61335380  0.06333150  0.10117421  1
  S  S101  1  0.61407798  0.37088605  0.04202497  1
  S  S102  1  0.61778581  0.76625492  0.15769022  1
  S  S103  1  0.62160035  0.42494754  0.12261887  1
  S  S104  1  0.11785917  0.26624380  0.15760892  1
  S  S105  1  0.11347661  0.56326964  0.10118122  1
  S  S106  1  0.11410084  0.87090124  0.04199654  1
  S  S107  1  0.12163343  0.92496895  0.12259895  1
  S  S108  1  0.39529128  0.16245699  0.12889211  1
  S  S109  1  0.40967563  0.47607962  0.06792076  1
  S  S110  1  0.38526504  0.32968371  0.09636841  1
  S  S111  1  0.40334014  0.01835634  0.15817353  1
  S  S112  1  0.89560825  0.66252713  0.12884429  1
  S  S113  1  0.90969579  0.97608308  0.06791439  1
  S  S114  1  0.90328394  0.51842556  0.15816560  1
  S  S115  1  0.88529467  0.82969266  0.09635335  1
  S  S116  1  0.23948373  0.05546248  0.06095636  1
  S  S117  1  0.12113609  0.25019283  0.05526555  1
  S  S118  1  0.25872621  0.74472299  0.11179682  1
  S  S119  1  0.75869382  0.24470682  0.11179988  1
  S  S120  1  0.73952385  0.55544779  0.06096750  1
  S  S121  1  0.62116274  0.75018340  0.05528075  1
  S  S122  1  0.63387577  0.17182612  0.27304710  1
  S  S123  1  0.60259156  0.46851710  0.21557641  1
  S  S124  1  0.62229639  0.87030661  0.33046862  1
  S  S125  1  0.63673467  0.12124579  0.17938414  1
  S  S126  1  0.61726339  0.52528376  0.29672308  1
  S  S127  1  0.60782719  0.82644526  0.23824969  1
  S  S128  1  0.12238305  0.37027117  0.33045932  1
  S  S129  1  0.13377862  0.67179734  0.27308057  1
  S  S130  1  0.10252415  0.96849949  0.21556022  1
  S  S131  1  0.10782635  0.32623940  0.23818690  1
  S  S132  1  0.13675892  0.62125591  0.17939250  1
  S  S133  1  0.11714781  0.02528592  0.29670916  1
  S  S134  1  0.40324206  0.27585880  0.29485104  1
  S  S135  1  0.38697239  0.56944767  0.24409220  1
  S  S136  1  0.39373150  0.86939001  0.18229906  1
  S  S137  1  0.39253719  0.42364963  0.27180416  1
  S  S138  1  0.39384169  0.72321629  0.21111319  1
  S  S139  1  0.39397640  0.13159428  0.32409280  1
  S  S140  1  0.89374715  0.36932950  0.18228818  1
  S  S141  1  0.90318910  0.77582763  0.29488722  1
  S  S142  1  0.88689365  0.06942737  0.24408120  1
  S  S143  1  0.89392168  0.22302252  0.21098311  1
  S  S144  1  0.89390088  0.63157018  0.32411058  1
  S  S145  1  0.89249874  0.92364313  0.27180098  1
  S  S146  1  0.22098103  0.14808527  0.22543346  1
  S  S147  1  0.23158477  0.44451529  0.17090978  1
  S  S148  1  0.23014875  0.85017374  0.28230612  1
  S  S149  1  0.73026628  0.35007562  0.28226990  1
  S  S150  1  0.72101590  0.64812767  0.22549109  1
  S  S151  1  0.73159961  0.94452137  0.17088801  1
  S  S152  1  0.61383752  0.23022995  0.35129294  1
  S  S153  1  0.61164500  0.92372629  0.41119069  1
  S  S154  1  0.11179864  0.42365784  0.41116807  1
  S  S155  1  0.11384312  0.73021310  0.35131074  1
  S  S156  1  0.38461424  0.96487107  0.35633398  1
  S  S157  1  0.40957998  0.81810396  0.38466949  1
  S  S158  1  0.88476110  0.46486795  0.35630707  1
  S  S159  1  0.90957064  0.31809562  0.38464981  1
  S  S160  1  0.23873963  0.23964010  0.39214862  1
  S  S161  1  0.25733498  0.54983989  0.34160446  1
  S  S162  1  0.11853061  0.04569728  0.39707750  1
  S  S163  1  0.61882321  0.54569846  0.39733260  1
  S  S164  1  0.73881972  0.73969154  0.39213412  1
  S  S165  1  0.75707266  0.04989222  0.34157570  1
  Cl  Cl166  1  0.95240961  0.08732878  0.14221041  1
  Cl  Cl167  1  0.96775609  0.39358747  0.09177042  1
  Cl  Cl168  1  0.02025624  0.70191945  0.04397518  1
  Cl  Cl169  1  0.52015206  0.20192084  0.04404167  1
  Cl  Cl170  1  0.45245204  0.58737292  0.14226746  1
  Cl  Cl171  1  0.46780719  0.89358127  0.09176168  1
  Cl  Cl172  1  0.94966815  0.20963256  0.30920422  1
  Cl  Cl173  1  0.92297036  0.49829373  0.25171395  1
  Cl  Cl174  1  0.92869109  0.79756155  0.20090399  1
  Cl  Cl175  1  0.42872162  0.29754759  0.20089191  1
  Cl  Cl176  1  0.44954862  0.70967634  0.30921304  1
  Cl  Cl177  1  0.42276819  0.99834695  0.25170505  1
  Cl  Cl178  1  0.01834787  0.59291858  0.40901467  1
  Cl  Cl179  1  0.96662280  0.89941498  0.36244202  1
  Cl  Cl180  1  0.46686756  0.39954341  0.36244871  1
  Cl  Cl181  1  0.51820073  0.09290852  0.40901804  1
