# generated using pymatgen
data_Li132P21S107Cl23
_symmetry_space_group_name_H-M   'P 1'
_cell_length_a   10.60410300
_cell_length_b   25.21121900
_cell_length_c   39.97474400
_cell_angle_alpha   90.00000000
_cell_angle_beta   90.00000000
_cell_angle_gamma   90.00000000
_symmetry_Int_Tables_number   1
_chemical_formula_structural   Li132P21S107Cl23
_chemical_formula_sum   'Li132 P21 S107 Cl23'
_cell_volume   10686.94252254
_cell_formula_units_Z   1
loop_
 _symmetry_equiv_pos_site_id
 _symmetry_equiv_pos_as_xyz
  1  'x, y, z'
loop_
 _atom_site_type_symbol
 _atom_site_label
 _atom_site_symmetry_multiplicity
 _atom_site_fract_x
 _atom_site_fract_y
 _atom_site_fract_z
 _atom_site_occupancy
  Li  Li0  1  0.61271353  0.25053752  0.01957251  1
  Li  Li1  1  0.76988697  0.87974806  0.09716963  1
  Li  Li2  1  0.80769993  0.46870490  0.13689258  1
  Li  Li3  1  0.77100616  0.64270429  0.09146151  1
  Li  Li4  1  0.76270147  0.14803246  0.10397355  1
  Li  Li5  1  0.76740613  0.53223186  0.05463557  1
  Li  Li6  1  0.69629899  0.99090334  0.11711898  1
  Li  Li7  1  0.74930131  0.64091955  0.01925270  1
  Li  Li8  1  0.90251089  0.37712317  0.01041972  1
  Li  Li9  1  0.22889414  0.99906505  0.04193180  1
  Li  Li10  1  0.31972501  0.65509300  0.10545551  1
  Li  Li11  1  0.56872625  0.35900760  0.04291130  1
  Li  Li12  1  0.39593363  0.80913525  0.07574417  1
  Li  Li13  1  0.28811607  0.44618768  0.12314899  1
  Li  Li14  1  0.31380626  0.97914142  0.12826241  1
  Li  Li15  1  0.36706722  0.72221233  0.03579934  1
  Li  Li16  1  0.31292186  0.35703740  0.08000893  1
  Li  Li17  1  0.43569337  0.12561280  0.09208759  1
  Li  Li18  1  0.39916919  0.89270388  0.00166447  1
  Li  Li19  1  0.31007444  0.50450822  0.05278578  1
  Li  Li20  1  0.05789532  0.16671210  0.09328857  1
  Li  Li21  1  0.07974469  0.78022034  0.12244667  1
  Li  Li22  1  0.97470997  0.56336310  0.09971789  1
  Li  Li23  1  0.07075863  0.68281580  0.08099164  1
  Li  Li24  1  0.06368869  0.33335660  0.09953464  1
  Li  Li25  1  0.62486660  0.99230023  0.02347976  1
  Li  Li26  1  0.54559632  0.59305067  0.12979805  1
  Li  Li27  1  0.80344805  0.31040243  0.07050892  1
  Li  Li28  1  0.50979584  0.93768763  0.06554379  1
  Li  Li29  1  0.55532999  0.49392210  0.10567628  1
  Li  Li30  1  0.83320693  0.09830720  0.18517467  1
  Li  Li31  1  0.81652699  0.71212071  0.23300539  1
  Li  Li32  1  0.82143699  0.32538792  0.28254100  1
  Li  Li33  1  0.82797037  0.87081445  0.18745219  1
  Li  Li34  1  0.80940458  0.48174937  0.23641648  1
  Li  Li35  1  0.82704672  0.24938278  0.14015425  1
  Li  Li36  1  0.77425232  0.00761955  0.25129002  1
  Li  Li37  1  0.77531818  0.77818232  0.15260199  1
  Li  Li38  1  0.74642383  0.37993647  0.20192620  1
  Li  Li39  1  0.75052304  0.81256435  0.26781778  1
  Li  Li40  1  0.78876250  0.56187050  0.17213681  1
  Li  Li41  1  0.74224469  0.19880469  0.21801040  1
  Li  Li42  1  0.25635000  0.88806675  0.19493970  1
  Li  Li43  1  0.26056644  0.50676962  0.24430492  1
  Li  Li44  1  0.23695356  0.26887255  0.14631610  1
  Li  Li45  1  0.29530514  0.06432612  0.17083894  1
  Li  Li46  1  0.25615429  0.68837651  0.22447023  1
  Li  Li47  1  0.24400764  0.30643434  0.27505308  1
  Li  Li48  1  0.32845272  0.83635930  0.27668513  1
  Li  Li49  1  0.30598574  0.59624628  0.17976686  1
  Li  Li50  1  0.32100316  0.21866902  0.22830084  1
  Li  Li51  1  0.30585187  0.97911157  0.23955467  1
  Li  Li52  1  0.32149729  0.74373261  0.14458545  1
  Li  Li53  1  0.31489094  0.35804992  0.19162746  1
  Li  Li54  1  0.03790859  0.01546066  0.20427133  1
  Li  Li55  1  0.06410754  0.62966646  0.27462703  1
  Li  Li56  1  0.03934852  0.39647642  0.15789179  1
  Li  Li57  1  0.04938895  0.94715351  0.14587470  1
  Li  Li58  1  0.02956620  0.56616056  0.21508422  1
  Li  Li59  1  0.05502575  0.18555817  0.24714575  1
  Li  Li60  1  0.56666064  0.86062054  0.21230706  1
  Li  Li61  1  0.53596439  0.45031840  0.26860036  1
  Li  Li62  1  0.55117894  0.23286720  0.16102994  1
  Li  Li63  1  0.57017339  0.10744461  0.16404242  1
  Li  Li64  1  0.54586767  0.74391979  0.20297784  1
  Li  Li65  1  0.55621652  0.33677349  0.25453578  1
  Li  Li66  1  0.80826589  0.94692525  0.32914984  1
  Li  Li67  1  0.82567925  0.55856166  0.37789932  1
  Li  Li68  1  0.82426307  0.17871247  0.42495154  1
  Li  Li69  1  0.81579752  0.71726922  0.33206268  1
  Li  Li70  1  0.83444300  0.33003255  0.38035323  1
  Li  Li71  1  0.82124724  0.10409953  0.28300700  1
  Li  Li72  1  0.79129815  0.86789439  0.39333593  1
  Li  Li73  1  0.74917985  0.61588859  0.29747956  1
  Li  Li74  1  0.74101269  0.23001349  0.34725924  1
  Li  Li75  1  0.77738448  0.65114111  0.41247104  1
  Li  Li76  1  0.77230421  0.42292263  0.31406199  1
  Li  Li77  1  0.74975119  0.04817275  0.36369671  1
  Li  Li78  1  0.25778743  0.74126441  0.34151864  1
  Li  Li79  1  0.29384917  0.36510180  0.39451005  1
  Li  Li80  1  0.24409600  0.12228603  0.29094799  1
  Li  Li81  1  0.25888526  0.92320928  0.32142062  1
  Li  Li82  1  0.25277707  0.54251378  0.37127570  1
  Li  Li83  1  0.23711466  0.15995596  0.41914002  1
  Li  Li84  1  0.32067392  0.68563713  0.42076550  1
  Li  Li85  1  0.30793940  0.45129536  0.32632670  1
  Li  Li86  1  0.31404422  0.07077474  0.37407169  1
  Li  Li87  1  0.30447909  0.83340491  0.38568397  1
  Li  Li88  1  0.32932463  0.59367141  0.28898564  1
  Li  Li89  1  0.32240343  0.21062615  0.33712113  1
  Li  Li90  1  0.02955471  0.86321381  0.34990915  1
  Li  Li91  1  0.04775246  0.48230326  0.41944898  1
  Li  Li92  1  0.05546996  0.24373586  0.31849670  1
  Li  Li93  1  0.06390653  0.79969233  0.29089309  1
  Li  Li94  1  0.03769675  0.41394803  0.36094008  1
  Li  Li95  1  0.04074558  0.03299622  0.40755794  1
  Li  Li96  1  0.54584093  0.68539841  0.36262098  1
  Li  Li97  1  0.57046200  0.32167171  0.40113889  1
  Li  Li98  1  0.55817025  0.09245400  0.31108386  1
  Li  Li99  1  0.53587062  0.97926113  0.29676910  1
  Li  Li100  1  0.56574179  0.56941226  0.35269729  1
  Li  Li101  1  0.55031530  0.19608957  0.40459229  1
  Li  Li102  1  0.77024362  0.78667868  0.47414506  1
  Li  Li103  1  0.76659311  0.54893767  0.46776972  1
  Li  Li104  1  0.61157683  0.17798012  0.54651847  1
  Li  Li105  1  0.80682829  0.96061251  0.42856122  1
  Li  Li106  1  0.74817360  0.78915135  0.54661322  1
  Li  Li107  1  0.69435505  0.43793335  0.44791027  1
  Li  Li108  1  0.90139803  0.05209036  0.55467251  1
  Li  Li109  1  0.76266249  0.27981031  0.46094785  1
  Li  Li110  1  0.76811361  0.89585967  0.51105678  1
  Li  Li111  1  0.39558165  0.62018034  0.48986287  1
  Li  Li112  1  0.28868325  0.98304411  0.44289351  1
  Li  Li113  1  0.31816704  0.77426678  0.45997186  1
  Li  Li114  1  0.22715686  0.42967930  0.52345202  1
  Li  Li115  1  0.56958308  0.07057121  0.52138294  1
  Li  Li116  1  0.39539971  0.53659509  0.56355351  1
  Li  Li117  1  0.43920481  0.30320804  0.47332513  1
  Li  Li118  1  0.30886386  0.92358434  0.51283816  1
  Li  Li119  1  0.36272127  0.70720435  0.52951136  1
  Li  Li120  1  0.31176449  0.45015917  0.43720321  1
  Li  Li121  1  0.31285051  0.07258584  0.48590824  1
  Li  Li122  1  0.06888954  0.74589486  0.48497355  1
  Li  Li123  1  0.06338240  0.09579786  0.46609326  1
  Li  Li124  1  0.07899838  0.64918675  0.44268587  1
  Li  Li125  1  0.05507179  0.26252085  0.47202002  1
  Li  Li126  1  0.97455005  0.86613404  0.46523443  1
  Li  Li127  1  0.50811438  0.49197808  0.50004744  1
  Li  Li128  1  0.55507089  0.93453747  0.45990216  1
  Li  Li129  1  0.54622504  0.83668795  0.43422307  1
  Li  Li130  1  0.62300376  0.43664767  0.54166989  1
  Li  Li131  1  0.80347289  0.12001270  0.49461159  1
  P  P132  1  0.50687024  0.24297637  0.08688332  1
  P  P133  1  0.51082956  0.86096065  0.13816967  1
  P  P134  1  0.49760876  0.61550487  0.03770174  1
  P  P135  1  0.02289675  0.05573423  0.11169756  1
  P  P136  1  0.01391373  0.43588107  0.06555782  1
  P  P137  1  0.51661356  0.09770951  0.23558020  1
  P  P138  1  0.51554363  0.71488092  0.28273622  1
  P  P139  1  0.51849589  0.47907728  0.18652805  1
  P  P140  1  0.01908418  0.90821708  0.25927559  1
  P  P141  1  0.01321928  0.67359175  0.15952339  1
  P  P142  1  0.01340040  0.28966319  0.21059710  1
  P  P143  1  0.51839674  0.95012835  0.37872865  1
  P  P144  1  0.51011004  0.56868171  0.42700778  1
  P  P145  1  0.51646573  0.33136103  0.32969557  1
  P  P146  1  0.01314311  0.75574771  0.40578356  1
  P  P147  1  0.01939849  0.52122240  0.30620730  1
  P  P148  1  0.01359503  0.13932937  0.35498089  1
  P  P149  1  0.49630442  0.81399084  0.52736600  1
  P  P150  1  0.50623184  0.18634644  0.47890744  1
  P  P151  1  0.02058259  0.37345530  0.45346102  1
  P  P152  1  0.01262417  0.99330278  0.49981916  1
  S  S153  1  0.59947834  0.17986019  0.06387602  1
  S  S154  1  0.61149460  0.80616236  0.11135845  1
  S  S155  1  0.61960654  0.56456556  0.01394638  1
  S  S156  1  0.59754572  0.68024268  0.05633680  1
  S  S157  1  0.62341542  0.29351215  0.11242490  1
  S  S158  1  0.11464069  0.98960976  0.09287655  1
  S  S159  1  0.11881726  0.61537461  0.13614910  1
  S  S160  1  0.11579819  0.37533226  0.04448034  1
  S  S161  1  0.14858143  0.10826765  0.13247907  1
  S  S162  1  0.12674846  0.49219294  0.08898119  1
  S  S163  1  0.41134903  0.28199883  0.04972407  1
  S  S164  1  0.37977774  0.89379386  0.10623288  1
  S  S165  1  0.35680876  0.63825511  0.00776564  1
  S  S166  1  0.38315091  0.20734511  0.12039334  1
  S  S167  1  0.41135340  0.97756654  0.01818224  1
  S  S168  1  0.41857644  0.57711661  0.07981814  1
  S  S169  1  0.92577286  0.09534572  0.07532396  1
  S  S170  1  0.90297772  0.71045364  0.12310862  1
  S  S171  1  0.91121810  0.47032978  0.02883732  1
  S  S172  1  0.89959587  0.40060627  0.10211962  1
  S  S173  1  0.24570504  0.73977549  0.08871696  1
  S  S174  1  0.23163279  0.35920925  0.13599116  1
  S  S175  1  0.73774409  0.32198377  0.01654312  1
  S  S176  1  0.72389106  0.95192286  0.06639131  1
  S  S177  1  0.74757731  0.55274107  0.11363400  1
  S  S178  1  0.62615202  0.04456206  0.20983246  1
  S  S179  1  0.61934552  0.66186629  0.25546511  1
  S  S180  1  0.61686557  0.42421347  0.15897881  1
  S  S181  1  0.62165706  0.91603818  0.16171634  1
  S  S182  1  0.62245173  0.53341495  0.21213306  1
  S  S183  1  0.61851913  0.15276020  0.26197531  1
  S  S184  1  0.12204669  0.84750269  0.23844453  1
  S  S185  1  0.12376749  0.46260302  0.28517511  1
  S  S186  1  0.11468700  0.22751982  0.19057311  1
  S  S187  1  0.12251454  0.96700117  0.28050554  1
  S  S188  1  0.12191742  0.73165032  0.18061663  1
  S  S189  1  0.12181137  0.34831865  0.23059136  1
  S  S190  1  0.40119636  0.13558276  0.20145596  1
  S  S191  1  0.39796958  0.75423174  0.24922833  1
  S  S192  1  0.40511389  0.51858814  0.15180759  1
  S  S193  1  0.40218736  0.05779997  0.26970399  1
  S  S194  1  0.40691548  0.82110101  0.17507521  1
  S  S195  1  0.39874033  0.44027777  0.21933735  1
  S  S196  1  0.90166869  0.94152122  0.22340529  1
  S  S197  1  0.90267686  0.55630634  0.26992963  1
  S  S198  1  0.89852704  0.32354499  0.17439935  1
  S  S199  1  0.90087342  0.02515588  0.14835897  1
  S  S200  1  0.89653471  0.64005041  0.19490972  1
  S  S201  1  0.89688246  0.25527257  0.24647053  1
  S  S202  1  0.22662738  0.97756596  0.18340203  1
  S  S203  1  0.22652783  0.59803423  0.23520295  1
  S  S204  1  0.22850191  0.21438262  0.28278456  1
  S  S205  1  0.73067490  0.17226570  0.16130903  1
  S  S206  1  0.73535651  0.79331279  0.21054719  1
  S  S207  1  0.72662152  0.40198917  0.25840612  1
  S  S208  1  0.62252170  0.89553727  0.35337572  1
  S  S209  1  0.62020130  0.51339808  0.40341490  1
  S  S210  1  0.61792557  0.27631893  0.30316287  1
  S  S211  1  0.61951329  0.76787113  0.30994631  1
  S  S212  1  0.62660837  0.38422438  0.35552274  1
  S  S213  1  0.61702043  0.00482380  0.40629811  1
  S  S214  1  0.12153344  0.69743215  0.38478529  1
  S  S215  1  0.14515349  0.32084741  0.43239937  1
  S  S216  1  0.12140874  0.08031858  0.33509875  1
  S  S217  1  0.11877891  0.81396054  0.42916717  1
  S  S218  1  0.12166525  0.58220835  0.32700496  1
  S  S219  1  0.11544021  0.20133924  0.37492652  1
  S  S220  1  0.39905555  0.98910462  0.34589797  1
  S  S221  1  0.40626303  0.60870115  0.39015151  1
  S  S222  1  0.40138964  0.37155306  0.29586250  1
  S  S223  1  0.40431098  0.91089650  0.41340769  1
  S  S224  1  0.39812042  0.67549966  0.31629466  1
  S  S225  1  0.40125134  0.29355287  0.36392258  1
  S  S226  1  0.89683941  0.78921350  0.37032113  1
  S  S227  1  0.89889676  0.40426699  0.41681000  1
  S  S228  1  0.89738003  0.17385674  0.31912584  1
  S  S229  1  0.90252863  0.87275163  0.29544977  1
  S  S230  1  0.90181678  0.48796772  0.34208960  1
  S  S231  1  0.89900352  0.10537006  0.39118005  1
  S  S232  1  0.22620411  0.83156193  0.33029299  1
  S  S233  1  0.22582184  0.45237274  0.38211873  1
  S  S234  1  0.23215478  0.07000954  0.42988129  1
  S  S235  1  0.72754408  0.02718416  0.30716540  1
  S  S236  1  0.73487118  0.63611902  0.35464042  1
  S  S237  1  0.73020924  0.25626644  0.40391065  1
  S  S238  1  0.59684280  0.74897614  0.50952318  1
  S  S239  1  0.62147335  0.13528084  0.45330393  1
  S  S240  1  0.61158235  0.62335994  0.45368662  1
  S  S241  1  0.60044589  0.24905784  0.50185721  1
  S  S242  1  0.61713160  0.86512702  0.55141416  1
  S  S243  1  0.12607934  0.93689331  0.47673951  1
  S  S244  1  0.11276586  0.43936973  0.47248840  1
  S  S245  1  0.11429846  0.05381234  0.52107499  1
  S  S246  1  0.41949589  0.85220417  0.48489973  1
  S  S247  1  0.40937231  0.45182120  0.54711338  1
  S  S248  1  0.38280482  0.22203531  0.44532612  1
  S  S249  1  0.35315291  0.79196362  0.55679429  1
  S  S250  1  0.37903982  0.53590652  0.45898854  1
  S  S251  1  0.41064345  0.14745065  0.51611036  1
  S  S252  1  0.89957390  0.02857620  0.46302075  1
  S  S253  1  0.90249063  0.71912925  0.44224171  1
  S  S254  1  0.92288774  0.33385838  0.48974689  1
  S  S255  1  0.90890223  0.95911043  0.53642762  1
  S  S256  1  0.24435804  0.68944172  0.47666192  1
  S  S257  1  0.74765070  0.87643214  0.45172103  1
  S  S258  1  0.72170498  0.47690071  0.49873508  1
  S  S259  1  0.73733788  0.10712271  0.54847363  1
  Cl  Cl260  1  0.96720583  0.24948113  0.09352396  1
  Cl  Cl261  1  0.94975163  0.85808569  0.13631268  1
  Cl  Cl262  1  0.93554054  0.62435575  0.05027671  1
  Cl  Cl263  1  0.48333555  0.05018410  0.12255514  1
  Cl  Cl264  1  0.41728285  0.80837077  0.01769663  1
  Cl  Cl265  1  0.44871831  0.43253091  0.06876708  1
  Cl  Cl266  1  0.96092510  0.09619809  0.23467684  1
  Cl  Cl267  1  0.96081374  0.71469794  0.28257258  1
  Cl  Cl268  1  0.94559959  0.48609082  0.18522190  1
  Cl  Cl269  1  0.45918759  0.90945005  0.25790066  1
  Cl  Cl270  1  0.44865508  0.66722702  0.15936852  1
  Cl  Cl271  1  0.46744108  0.28676515  0.20817110  1
  Cl  Cl272  1  0.94503009  0.94308137  0.38015121  1
  Cl  Cl273  1  0.94836892  0.57160431  0.42887180  1
  Cl  Cl274  1  0.96179902  0.33266969  0.33079895  1
  Cl  Cl275  1  0.44730777  0.76193170  0.40545792  1
  Cl  Cl276  1  0.46047901  0.52032221  0.30736208  1
  Cl  Cl277  1  0.46672807  0.14217171  0.35748339  1
  Cl  Cl278  1  0.93411490  0.80524960  0.51542795  1
  Cl  Cl279  1  0.96578112  0.17982151  0.47154948  1
  Cl  Cl280  1  0.41467645  0.62112497  0.54792352  1
  Cl  Cl281  1  0.48204889  0.37864192  0.44258599  1
  Cl  Cl282  1  0.44756725  0.99641974  0.49643873  1
