# generated using pymatgen
data_Li128P21S105Cl23
_symmetry_space_group_name_H-M   'P 1'
_cell_length_a   10.60410300
_cell_length_b   24.76865600
_cell_length_c   40.68900700
_cell_angle_alpha   90.00000000
_cell_angle_beta   90.00000000
_cell_angle_gamma   90.00000000
_symmetry_Int_Tables_number   1
_chemical_formula_structural   Li128P21S105Cl23
_chemical_formula_sum   'Li128 P21 S105 Cl23'
_cell_volume   10686.94243677
_cell_formula_units_Z   1
loop_
 _symmetry_equiv_pos_site_id
 _symmetry_equiv_pos_as_xyz
  1  'x, y, z'
loop_
 _atom_site_type_symbol
 _atom_site_label
 _atom_site_symmetry_multiplicity
 _atom_site_fract_x
 _atom_site_fract_y
 _atom_site_fract_z
 _atom_site_occupancy
  Li  Li0  1  0.79917929  0.19689289  0.11682115  1
  Li  Li1  1  0.80172173  0.58753864  0.14389690  1
  Li  Li2  1  0.60075974  0.82895298  0.02898182  1
  Li  Li3  1  0.82421266  0.37089925  0.09948110  1
  Li  Li4  1  0.76804955  0.33342769  0.04347482  1
  Li  Li5  1  0.72065017  0.66602850  0.08202193  1
  Li  Li6  1  0.75954351  0.05579660  0.12712011  1
  Li  Li7  1  0.89382461  0.48127262  0.04887889  1
  Li  Li8  1  0.88286095  0.90253516  0.06522244  1
  Li  Li9  1  0.32041975  0.38286639  0.11450284  1
  Li  Li10  1  0.12075562  0.03018738  0.05286909  1
  Li  Li11  1  0.30045444  0.18595267  0.07100123  1
  Li  Li12  1  0.30218919  0.56901790  0.11476741  1
  Li  Li13  1  0.46486680  0.10749179  0.05532871  1
  Li  Li14  1  0.23188087  0.48928321  0.05357510  1
  Li  Li15  1  0.29529834  0.89106756  0.10974747  1
  Li  Li16  1  0.45956798  0.29013060  0.01800367  1
  Li  Li17  1  0.39049209  0.67144866  0.06609256  1
  Li  Li18  1  0.32489564  0.04438176  0.11596599  1
  Li  Li19  1  0.09174724  0.09996510  0.11186210  1
  Li  Li20  1  0.02889386  0.70524974  0.07449660  1
  Li  Li21  1  0.08119970  0.40953218  0.09802827  1
  Li  Li22  1  0.02184219  0.85644028  0.13972036  1
  Li  Li23  1  0.55419558  0.33412498  0.10287788  1
  Li  Li24  1  0.47925519  0.49487147  0.08598452  1
  Li  Li25  1  0.57950558  0.90156696  0.08223142  1
  Li  Li26  1  0.58296221  0.22436277  0.07563728  1
  Li  Li27  1  0.52410814  0.64133601  0.12914271  1
  Li  Li28  1  0.82552533  0.35647323  0.24017764  1
  Li  Li29  1  0.82660699  0.74079007  0.28776302  1
  Li  Li30  1  0.84400681  0.96430751  0.18551192  1
  Li  Li31  1  0.82517144  0.53469989  0.23598926  1
  Li  Li32  1  0.81803183  0.76110410  0.13278574  1
  Li  Li33  1  0.83489822  0.13345879  0.18502928  1
  Li  Li34  1  0.79120883  0.47003148  0.18368911  1
  Li  Li35  1  0.75287352  0.83750825  0.22759217  1
  Li  Li36  1  0.75242586  0.22154619  0.27266429  1
  Li  Li37  1  0.72053051  0.28739964  0.15280165  1
  Li  Li38  1  0.72990500  0.66584037  0.19850977  1
  Li  Li39  1  0.77634930  0.02831592  0.24102130  1
  Li  Li40  1  0.25076220  0.54286108  0.24522674  1
  Li  Li41  1  0.19820329  0.77320585  0.13942920  1
  Li  Li42  1  0.25775043  0.15491292  0.19724953  1
  Li  Li43  1  0.26202839  0.33607375  0.22763799  1
  Li  Li44  1  0.25871758  0.72547566  0.27255728  1
  Li  Li45  1  0.28752447  0.95166212  0.16822857  1
  Li  Li46  1  0.31786280  0.28248266  0.16302787  1
  Li  Li47  1  0.32383249  0.67070229  0.21046777  1
  Li  Li48  1  0.32978214  0.05330740  0.26049587  1
  Li  Li49  1  0.30463320  0.44790648  0.16793846  1
  Li  Li50  1  0.33243208  0.82166488  0.20832784  1
  Li  Li51  1  0.33724064  0.20843790  0.25988838  1
  Li  Li52  1  0.07047543  0.25164892  0.25548647  1
  Li  Li53  1  0.04991183  0.50833715  0.13635824  1
  Li  Li54  1  0.07476098  0.86931422  0.20810966  1
  Li  Li55  1  0.03761737  0.23362712  0.18509057  1
  Li  Li56  1  0.05483834  0.63029895  0.22025295  1
  Li  Li57  1  0.06524261  0.01218372  0.26891713  1
  Li  Li58  1  0.56942659  0.50545600  0.25681208  1
  Li  Li59  1  0.55801503  0.74289196  0.15769495  1
  Li  Li60  1  0.54817551  0.08754078  0.20641870  1
  Li  Li61  1  0.55042457  0.40637682  0.21803902  1
  Li  Li62  1  0.55835815  0.76945150  0.26860594  1
  Li  Li63  1  0.57079851  0.98697008  0.16921275  1
  Li  Li64  1  0.83412860  0.51820164  0.38375519  1
  Li  Li65  1  0.82115842  0.89129774  0.43608235  1
  Li  Li66  1  0.82692904  0.11753927  0.33217133  1
  Li  Li67  1  0.83982029  0.68810802  0.38327048  1
  Li  Li68  1  0.82485093  0.91234126  0.28124559  1
  Li  Li69  1  0.82793634  0.29506081  0.32800527  1
  Li  Li70  1  0.78292416  0.62514347  0.32830861  1
  Li  Li71  1  0.73709296  0.98894968  0.37076929  1
  Li  Li72  1  0.72200528  0.36487054  0.41485656  1
  Li  Li73  1  0.75335249  0.43007213  0.29571551  1
  Li  Li74  1  0.74977424  0.81710143  0.34129930  1
  Li  Li75  1  0.79235123  0.18291959  0.38461101  1
  Li  Li76  1  0.28956975  0.70078802  0.40036126  1
  Li  Li77  1  0.25659371  0.92664420  0.29584803  1
  Li  Li78  1  0.26262622  0.31603862  0.34013392  1
  Li  Li79  1  0.26326064  0.49667823  0.37044637  1
  Li  Li80  1  0.20000277  0.87901191  0.42945861  1
  Li  Li81  1  0.25336234  0.10902433  0.32328057  1
  Li  Li82  1  0.33420103  0.44323492  0.30805708  1
  Li  Li83  1  0.33076253  0.83039452  0.36029507  1
  Li  Li84  1  0.30659592  0.20437412  0.40114956  1
  Li  Li85  1  0.33171604  0.59871264  0.30773882  1
  Li  Li86  1  0.32836910  0.98091751  0.35785597  1
  Li  Li87  1  0.32092683  0.36912976  0.40531371  1
  Li  Li88  1  0.03957090  0.41954440  0.38333438  1
  Li  Li89  1  0.06663103  0.63932398  0.29979309  1
  Li  Li90  1  0.05742761  0.02183487  0.34905302  1
  Li  Li91  1  0.06873003  0.40070640  0.31352623  1
  Li  Li92  1  0.07411562  0.78300558  0.36108932  1
  Li  Li93  1  0.05206574  0.14371349  0.43222430  1
  Li  Li94  1  0.57132206  0.66522448  0.39932975  1
  Li  Li95  1  0.55542188  0.88277156  0.30021206  1
  Li  Li96  1  0.55075873  0.24611562  0.35009663  1
  Li  Li97  1  0.54928405  0.56470062  0.36214222  1
  Li  Li98  1  0.56161774  0.90924830  0.41105528  1
  Li  Li99  1  0.56840921  0.14638127  0.31193507  1
  Li  Li100  1  0.82658724  0.28169230  0.46908130  1
  Li  Li101  1  0.60025150  0.82028953  0.53927185  1
  Li  Li102  1  0.80293058  0.06553134  0.42514756  1
  Li  Li103  1  0.79681801  0.45519795  0.45129014  1
  Li  Li104  1  0.88108988  0.74602219  0.50371681  1
  Li  Li105  1  0.89311939  0.17138619  0.51980271  1
  Li  Li106  1  0.75976025  0.59484962  0.44153418  1
  Li  Li107  1  0.72374104  0.98554368  0.48679016  1
  Li  Li108  1  0.77422569  0.32127669  0.52506590  1
  Li  Li109  1  0.30416300  0.08302274  0.45411954  1
  Li  Li110  1  0.30275339  0.46579408  0.49721535  1
  Li  Li111  1  0.12134897  0.62172134  0.51540090  1
  Li  Li112  1  0.32321046  0.26943183  0.45427629  1
  Li  Li113  1  0.32480291  0.60732827  0.45326443  1
  Li  Li114  1  0.39280569  0.98032155  0.50277725  1
  Li  Li115  1  0.46222226  0.36220480  0.55114409  1
  Li  Li116  1  0.29344168  0.76124622  0.45943134  1
  Li  Li117  1  0.23332703  0.16327815  0.51543640  1
  Li  Li118  1  0.46543245  0.54563917  0.51317608  1
  Li  Li119  1  0.02109533  0.79613789  0.42916752  1
  Li  Li120  1  0.08297145  0.24261439  0.47062547  1
  Li  Li121  1  0.09189197  0.55197591  0.45634558  1
  Li  Li122  1  0.03227876  0.94663909  0.49526597  1
  Li  Li123  1  0.52582396  0.01080844  0.43972616  1
  Li  Li124  1  0.58280270  0.42735927  0.49252538  1
  Li  Li125  1  0.58096047  0.74996604  0.48505336  1
  Li  Li126  1  0.48248087  0.15684606  0.48302855  1
  Li  Li127  1  0.55893208  0.31695328  0.46523276  1
  P  P128  1  0.51993623  0.16625993  0.13852066  1
  P  P129  1  0.50947106  0.40008360  0.04186524  1
  P  P130  1  0.49566466  0.77877270  0.09049103  1
  P  P131  1  0.00414202  0.58968699  0.06307396  1
  P  P132  1  0.01535008  0.98165245  0.11191672  1
  P  P133  1  0.52647458  0.32575027  0.28397327  1
  P  P134  1  0.51423647  0.55236625  0.18883093  1
  P  P135  1  0.51694106  0.93867835  0.23538712  1
  P  P136  1  0.02729141  0.36561065  0.16645998  1
  P  P137  1  0.01409772  0.74911582  0.21138797  1
  P  P138  1  0.02195972  0.13126633  0.25855500  1
  P  P139  1  0.51993745  0.48595453  0.42977950  1
  P  P140  1  0.51929441  0.71328121  0.33313053  1
  P  P141  1  0.51504887  0.09971452  0.37994447  1
  P  P142  1  0.02156899  0.52074984  0.30989301  1
  P  P143  1  0.01502130  0.90302509  0.35740951  1
  P  P144  1  0.03013536  0.28662846  0.40195474  1
  P  P145  1  0.49845759  0.87305602  0.47828844  1
  P  P146  1  0.51489510  0.25219325  0.52638706  1
  P  P147  1  0.01621842  0.67029909  0.45649888  1
  P  P148  1  0.00557519  0.06261243  0.50561049  1
  S  S149  1  0.62408846  0.13042319  0.10055854  1
  S  S150  1  0.60453245  0.35932449  0.00549763  1
  S  S151  1  0.57803093  0.73242585  0.05410655  1
  S  S152  1  0.63040597  0.42280437  0.07981320  1
  S  S153  1  0.61845258  0.81658601  0.12200708  1
  S  S154  1  0.12958364  0.32562382  0.13082969  1
  S  S155  1  0.06238381  0.53779722  0.02710385  1
  S  S156  1  0.11548803  0.93860473  0.07748591  1
  S  S157  1  0.15206309  0.62811137  0.08726755  1
  S  S158  1  0.41216356  0.22700695  0.11793396  1
  S  S159  1  0.42481719  0.46732100  0.02514233  1
  S  S160  1  0.38929248  0.83505970  0.06703186  1
  S  S161  1  0.38234049  0.34391231  0.06237052  1
  S  S162  1  0.38395260  0.72465506  0.11774556  1
  S  S163  1  0.91966753  0.42355051  0.14195249  1
  S  S164  1  0.89261656  0.64923818  0.04386524  1
  S  S165  1  0.92549498  0.04330911  0.08688899  1
  S  S166  1  0.89857628  0.54272169  0.09582378  1
  S  S167  1  0.87941166  0.93065082  0.13072015  1
  S  S168  1  0.25743467  0.09612162  0.07092339  1
  S  S169  1  0.25075788  0.47430051  0.11225179  1
  S  S170  1  0.74209617  0.28296923  0.09440595  1
  S  S171  1  0.72168324  0.67622604  0.14175708  1
  S  S172  1  0.70392921  0.90552267  0.03758248  1
  S  S173  1  0.63054876  0.29363937  0.24639417  1
  S  S174  1  0.62125929  0.51830970  0.15280885  1
  S  S175  1  0.62014939  0.90236460  0.19899761  1
  S  S176  1  0.64571257  0.19811105  0.17147294  1
  S  S177  1  0.61643771  0.59054801  0.22497917  1
  S  S178  1  0.62232029  0.97267273  0.27226704  1
  S  S179  1  0.12434383  0.47724154  0.27639251  1
  S  S180  1  0.11652247  0.70332678  0.17931134  1
  S  S181  1  0.12880550  0.08672629  0.22661097  1
  S  S182  1  0.13435474  0.40421362  0.20046337  1
  S  S183  1  0.12500355  0.79150127  0.24394904  1
  S  S184  1  0.12512886  0.01649937  0.14790912  1
  S  S185  1  0.40876356  0.38396357  0.26355705  1
  S  S186  1  0.38192719  0.60408091  0.16887929  1
  S  S187  1  0.40796950  0.99834482  0.21328094  1
  S  S188  1  0.41020718  0.49255737  0.21308575  1
  S  S189  1  0.39685172  0.88225011  0.25626391  1
  S  S190  1  0.40668147  0.10963862  0.16064798  1
  S  S191  1  0.90222595  0.57461409  0.28649001  1
  S  S192  1  0.90224481  0.80581087  0.18704748  1
  S  S193  1  0.91045453  0.18686191  0.23325359  1
  S  S194  1  0.90187358  0.31266065  0.18851685  1
  S  S195  1  0.89533466  0.69716493  0.23676964  1
  S  S196  1  0.90242150  0.07743589  0.28197608  1
  S  S197  1  0.23493049  0.24584161  0.21271096  1
  S  S198  1  0.23128683  0.63418128  0.25963918  1
  S  S199  1  0.22384120  0.86176340  0.16336380  1
  S  S200  1  0.73977037  0.44611582  0.23889289  1
  S  S201  1  0.73097518  0.82650902  0.28440684  1
  S  S202  1  0.73756158  0.04820585  0.18513983  1
  S  S203  1  0.64535532  0.45427805  0.39665678  1
  S  S204  1  0.62538873  0.67946875  0.29639374  1
  S  S205  1  0.61679531  0.06140325  0.34373031  1
  S  S206  1  0.63150221  0.35757583  0.32148622  1
  S  S207  1  0.62257352  0.74953209  0.36961408  1
  S  S208  1  0.62252152  0.13421414  0.41573354  1
  S  S209  1  0.12704769  0.63553067  0.42076808  1
  S  S210  1  0.12464384  0.86023190  0.32474432  1
  S  S211  1  0.13732936  0.24782877  0.36807318  1
  S  S212  1  0.12942031  0.56483278  0.34180440  1
  S  S213  1  0.11870953  0.94845908  0.38935129  1
  S  S214  1  0.12584066  0.17440708  0.29196286  1
  S  S215  1  0.40664082  0.54265547  0.40789446  1
  S  S216  1  0.39902756  0.76975115  0.31237017  1
  S  S217  1  0.41057253  0.15938477  0.35572564  1
  S  S218  1  0.40982431  0.65370902  0.35508414  1
  S  S219  1  0.38336487  0.04777191  0.39995986  1
  S  S220  1  0.40880946  0.26763886  0.30450151  1
  S  S221  1  0.88053865  0.72145887  0.43777390  1
  S  S222  1  0.89708886  0.95541442  0.33205446  1
  S  S223  1  0.90492407  0.33951735  0.37967707  1
  S  S224  1  0.90978978  0.46539643  0.33534363  1
  S  S225  1  0.90211244  0.84669969  0.38176920  1
  S  S226  1  0.92212581  0.22880591  0.42647973  1
  S  S227  1  0.23601548  0.40589986  0.35563198  1
  S  S228  1  0.22350924  0.79055295  0.40554166  1
  S  S229  1  0.23170160  0.01779401  0.30899078  1
  S  S230  1  0.73784399  0.60363183  0.38373214  1
  S  S231  1  0.72426094  0.97644452  0.42717003  1
  S  S232  1  0.74020230  0.20582123  0.32943465  1
  S  S233  1  0.62181932  0.83551119  0.44673181  1
  S  S234  1  0.63456727  0.22873084  0.48835292  1
  S  S235  1  0.62396519  0.52149764  0.46786550  1
  S  S236  1  0.58086889  0.91895495  0.51479616  1
  S  S237  1  0.61068734  0.29308915  0.56259006  1
  S  S238  1  0.15353276  0.02397408  0.48158960  1
  S  S239  1  0.11521594  0.71327498  0.49127958  1
  S  S240  1  0.06298352  0.11475995  0.54156015  1
  S  S241  1  0.13251676  0.32647288  0.43760922  1
  S  S242  1  0.38670202  0.92718879  0.45108953  1
  S  S243  1  0.38815287  0.30860134  0.50603590  1
  S  S244  1  0.39195078  0.81658497  0.50160930  1
  S  S245  1  0.42926546  0.18523681  0.54333697  1
  S  S246  1  0.41291492  0.42498064  0.45029124  1
  S  S247  1  0.90058271  0.10971253  0.47283923  1
  S  S248  1  0.92597509  0.60862779  0.48143686  1
  S  S249  1  0.89418480  0.00312557  0.52501502  1
  S  S250  1  0.25727812  0.55538896  0.49779357  1
  S  S251  1  0.25281222  0.17780572  0.45670034  1
  S  S252  1  0.70064092  0.74306986  0.53051578  1
  S  S253  1  0.74389882  0.36945908  0.47359044  1
  Cl  Cl254  1  0.98362199  0.16822807  0.14345301  1
  Cl  Cl255  1  0.95317325  0.38977667  0.05211097  1
  Cl  Cl256  1  0.00754836  0.78438561  0.10210824  1
  Cl  Cl257  1  0.46359966  0.19867628  0.02920449  1
  Cl  Cl258  1  0.48923406  0.59075087  0.08072739  1
  Cl  Cl259  1  0.45218021  0.96565151  0.12145735  1
  Cl  Cl260  1  0.97408348  0.32621888  0.28410169  1
  Cl  Cl261  1  0.95299195  0.55480287  0.18803925  1
  Cl  Cl262  1  0.95911058  0.94256531  0.23582839  1
  Cl  Cl263  1  0.46496922  0.36113030  0.15896060  1
  Cl  Cl264  1  0.47792867  0.74560297  0.21394409  1
  Cl  Cl265  1  0.47372877  0.13002404  0.25838988  1
  Cl  Cl266  1  0.98254940  0.48372752  0.42514888  1
  Cl  Cl267  1  0.95951742  0.70849994  0.33312784  1
  Cl  Cl268  1  0.95342362  0.09711992  0.38048776  1
  Cl  Cl269  1  0.47295819  0.52127801  0.31034923  1
  Cl  Cl270  1  0.47824670  0.90540459  0.35501337  1
  Cl  Cl271  1  0.46789540  0.29068004  0.40949392  1
  Cl  Cl272  1  0.01002047  0.86834512  0.46673174  1
  Cl  Cl273  1  0.95564829  0.26299734  0.51644261  1
  Cl  Cl274  1  0.45142662  0.68629680  0.44694141  1
  Cl  Cl275  1  0.49090699  0.06118229  0.48802714  1
  Cl  Cl276  1  0.46496652  0.45341806  0.53919913  1
