# generated using pymatgen
data_Li46P8S39Cl8
_symmetry_space_group_name_H-M   'P 1'
_cell_length_a   10.60410300
_cell_length_b   21.51103300
_cell_length_c   40.15794400
_cell_angle_alpha   90.00000000
_cell_angle_beta   90.00000000
_cell_angle_gamma   90.00000000
_symmetry_Int_Tables_number   1
_chemical_formula_structural   Li46P8S39Cl8
_chemical_formula_sum   'Li92 P16 S78 Cl16'
_cell_volume   9160.23623196
_cell_formula_units_Z   2
loop_
 _symmetry_equiv_pos_site_id
 _symmetry_equiv_pos_as_xyz
  1  'x, y, z'
loop_
 _atom_site_type_symbol
 _atom_site_label
 _atom_site_symmetry_multiplicity
 _atom_site_fract_x
 _atom_site_fract_y
 _atom_site_fract_z
 _atom_site_occupancy
  Li  Li0  1  0.91738183  0.18853640  0.11771496  1
  Li  Li1  1  0.78683047  0.45578338  0.07531633  1
  Li  Li2  1  0.80224370  0.75855149  0.05742639  1
  Li  Li3  1  0.78750111  0.35500517  0.15285442  1
  Li  Li4  1  0.77585945  0.65112770  0.10779809  1
  Li  Li5  1  0.80753882  0.31560061  0.08421538  1
  Li  Li6  1  0.80606059  0.62229963  0.04030961  1
  Li  Li7  1  0.81659751  0.01811518  0.14671764  1
  Li  Li8  1  0.72359600  0.51960698  0.13742008  1
  Li  Li9  1  0.06002606  0.78248228  0.08830186  1
  Li  Li10  1  0.30180541  0.25817378  0.05746481  1
  Li  Li11  1  0.41742198  0.68853468  0.11771644  1
  Li  Li12  1  0.28659606  0.95563252  0.07528947  1
  Li  Li13  1  0.27564049  0.15107458  0.10778979  1
  Li  Li14  1  0.28751158  0.85495778  0.15283468  1
  Li  Li15  1  0.30604299  0.12225600  0.04030590  1
  Li  Li16  1  0.31690555  0.51815562  0.14672934  1
  Li  Li17  1  0.30756559  0.81558372  0.08421673  1
  Li  Li18  1  0.55987964  0.28249264  0.08829984  1
  Li  Li19  1  0.22349289  0.01960135  0.13741835  1
  Li  Li20  1  0.02907727  0.06072073  0.07058509  1
  Li  Li21  1  0.08050823  0.34108949  0.08697822  1
  Li  Li22  1  0.04190881  0.46498949  0.15529004  1
  Li  Li23  1  0.10597800  0.66896228  0.10714400  1
  Li  Li24  1  0.52913560  0.56072581  0.07058847  1
  Li  Li25  1  0.58046405  0.84108106  0.08698223  1
  Li  Li26  1  0.60599805  0.16896485  0.10714029  1
  Li  Li27  1  0.54186436  0.96497561  0.15529318  1
  Li  Li28  1  0.77785776  0.26683150  0.28342360  1
  Li  Li29  1  0.77980215  0.56080238  0.23385462  1
  Li  Li30  1  0.77888152  0.86030588  0.17178456  1
  Li  Li31  1  0.77926065  0.46248569  0.32511098  1
  Li  Li32  1  0.77951084  0.76246256  0.26260943  1
  Li  Li33  1  0.77880011  0.05560351  0.21370911  1
  Li  Li34  1  0.78936301  0.41982848  0.25891601  1
  Li  Li35  1  0.78413697  0.71597823  0.20018426  1
  Li  Li36  1  0.77880940  0.12756839  0.31595147  1
  Li  Li37  1  0.77793968  0.19571384  0.18097155  1
  Li  Li38  1  0.78736044  0.60699712  0.29600207  1
  Li  Li39  1  0.78758772  0.90314061  0.23791543  1
  Li  Li40  1  0.27887742  0.36031166  0.17177852  1
  Li  Li41  1  0.27784567  0.76685163  0.28360931  1
  Li  Li42  1  0.27971036  0.06075676  0.23386024  1
  Li  Li43  1  0.27945895  0.26243346  0.26260538  1
  Li  Li44  1  0.27880148  0.55561445  0.21371000  1
  Li  Li45  1  0.27926606  0.96252329  0.32511722  1
  Li  Li46  1  0.28423924  0.21583266  0.20021167  1
  Li  Li47  1  0.27863040  0.62765106  0.31593226  1
  Li  Li48  1  0.28940461  0.91981373  0.25892801  1
  Li  Li49  1  0.28754482  0.40312481  0.23789921  1
  Li  Li50  1  0.27799500  0.69565365  0.18099576  1
  Li  Li51  1  0.28734240  0.10699645  0.29599932  1
  Li  Li52  1  0.02868549  0.18101015  0.27960618  1
  Li  Li53  1  0.02986704  0.46843692  0.22414185  1
  Li  Li54  1  0.02956117  0.78199976  0.15982175  1
  Li  Li55  1  0.02716225  0.14286098  0.21751950  1
  Li  Li56  1  0.02825774  0.54161396  0.33728562  1
  Li  Li57  1  0.03200140  0.85613645  0.27228283  1
  Li  Li58  1  0.52943364  0.28201406  0.15979469  1
  Li  Li59  1  0.52872423  0.68104099  0.27961830  1
  Li  Li60  1  0.52986951  0.96842352  0.22414250  1
  Li  Li61  1  0.53140405  0.35569029  0.27230409  1
  Li  Li62  1  0.52721233  0.64270267  0.21766373  1
  Li  Li63  1  0.52851298  0.04163074  0.33719741  1
  Li  Li64  1  0.75645227  0.67629432  0.38463302  1
  Li  Li65  1  0.78704772  0.96910055  0.34415260  1
  Li  Li66  1  0.80571283  0.56557494  0.43635595  1
  Li  Li67  1  0.78767467  0.86824571  0.42284722  1
  Li  Li68  1  0.91298891  0.13583173  0.38001153  1
  Li  Li69  1  0.06107038  0.54129042  0.40877472  1
  Li  Li70  1  0.73098946  0.80908262  0.35994612  1
  Li  Li71  1  0.81697931  0.30480928  0.35018441  1
  Li  Li72  1  0.81503967  0.69826901  0.45383702  1
  Li  Li73  1  0.80714380  0.00830801  0.41264518  1
  Li  Li74  1  0.28843302  0.46964591  0.34375115  1
  Li  Li75  1  0.25653642  0.17627299  0.38465287  1
  Li  Li76  1  0.28769790  0.36827030  0.42282929  1
  Li  Li77  1  0.41271496  0.63591389  0.38000175  1
  Li  Li78  1  0.30581682  0.06553685  0.43639889  1
  Li  Li79  1  0.23111474  0.30901896  0.35994865  1
  Li  Li80  1  0.56112591  0.04129112  0.40877747  1
  Li  Li81  1  0.30640221  0.50826910  0.41242436  1
  Li  Li82  1  0.31702070  0.80484902  0.35025497  1
  Li  Li83  1  0.31517523  0.19827896  0.45383321  1
  Li  Li84  1  0.10014561  0.65521000  0.38994184  1
  Li  Li85  1  0.04171871  0.85851048  0.34135366  1
  Li  Li86  1  0.03269974  0.26346074  0.42687625  1
  Li  Li87  1  0.07924194  0.98207229  0.40966981  1
  Li  Li88  1  0.54175860  0.35850714  0.34134550  1
  Li  Li89  1  0.60017220  0.15519420  0.38993847  1
  Li  Li90  1  0.57908065  0.48210813  0.40964638  1
  Li  Li91  1  0.53266584  0.76348621  0.42687669  1
  P  P92  1  0.50957949  0.10440280  0.16842661  1
  P  P93  1  0.50207567  0.40959476  0.10555299  1
  P  P94  1  0.53814212  0.71997543  0.05104592  1
  P  P95  1  0.03796211  0.21993711  0.05103661  1
  P  P96  1  0.00981073  0.60445205  0.16848477  1
  P  P97  1  0.00200624  0.90955109  0.10555447  1
  P  P98  1  0.50875551  0.21934670  0.32849798  1
  P  P99  1  0.50769148  0.51312011  0.27711911  1
  P  P100  1  0.50611466  0.81024120  0.21967135  1
  P  P101  1  0.00616827  0.31026463  0.21964803  1
  P  P102  1  0.00866310  0.71938070  0.32851934  1
  P  P103  1  0.00737710  0.01310608  0.27725529  1
  P  P104  1  0.54009097  0.60357709  0.44532930  1
  P  P105  1  0.50210185  0.91411910  0.39139619  1
  P  P106  1  0.00240797  0.41408465  0.39135367  1
  P  P107  1  0.04035917  0.10355812  0.44536908  1
  S  S108  1  0.60701438  0.06828602  0.12862553  1
  S  S109  1  0.61652004  0.38183918  0.06587274  1
  S  S110  1  0.67447321  0.70215491  0.01647198  1
  S  S111  1  0.59974823  0.42654702  0.14876660  1
  S  S112  1  0.62794295  0.73465864  0.09759621  1
  S  S113  1  0.17414234  0.20199340  0.01644399  1
  S  S114  1  0.10740424  0.56834161  0.12869328  1
  S  S115  1  0.11642565  0.88176813  0.06586876  1
  S  S116  1  0.12783115  0.23463123  0.09758473  1
  S  S117  1  0.09968395  0.92649222  0.14877043  1
  S  S118  1  0.40822111  0.18154283  0.15196885  1
  S  S119  1  0.38862257  0.48108693  0.09159091  1
  S  S120  1  0.45912788  0.80453442  0.03986647  1
  S  S121  1  0.38397888  0.33321578  0.11522876  1
  S  S122  1  0.40539932  0.65272241  0.05810509  1
  S  S123  1  0.95909563  0.30452428  0.03986214  1
  S  S124  1  0.90847163  0.68157063  0.15199351  1
  S  S125  1  0.88859409  0.98106427  0.09159014  1
  S  S126  1  0.90523113  0.15269996  0.05812345  1
  S  S127  1  0.88394585  0.83317516  0.11521665  1
  S  S128  1  0.24217022  0.05749748  0.08282312  1
  S  S129  1  0.22711759  0.75431536  0.12988408  1
  S  S130  1  0.72705706  0.25435677  0.12987703  1
  S  S131  1  0.74232818  0.55758174  0.08284600  1
  S  S132  1  0.61095351  0.18993760  0.28895944  1
  S  S133  1  0.60776023  0.48367643  0.23661377  1
  S  S134  1  0.60633313  0.78239123  0.17875461  1
  S  S135  1  0.61184809  0.13300427  0.20812924  1
  S  S136  1  0.60853386  0.54107229  0.31784506  1
  S  S137  1  0.60679807  0.83946086  0.26010979  1
  S  S138  1  0.10641768  0.28237509  0.17874952  1
  S  S139  1  0.11083307  0.68997811  0.28897652  1
  S  S140  1  0.10744185  0.98345549  0.23676090  1
  S  S141  1  0.10677750  0.33943396  0.26010754  1
  S  S142  1  0.11181085  0.63305852  0.20823318  1
  S  S143  1  0.10851867  0.04114600  0.31790336  1
  S  S144  1  0.38381149  0.28901054  0.31402893  1
  S  S145  1  0.39272138  0.58790499  0.26356088  1
  S  S146  1  0.38635185  0.88265068  0.20648375  1
  S  S147  1  0.38784705  0.44077881  0.29040351  1
  S  S148  1  0.39156247  0.73545151  0.23340805  1
  S  S149  1  0.38397914  0.03462484  0.18245582  1
  S  S150  1  0.88640045  0.38266649  0.20647764  1
  S  S151  1  0.88378376  0.78905722  0.31404939  1
  S  S152  1  0.89265459  0.08789917  0.26357352  1
  S  S153  1  0.89157477  0.23545322  0.23333023  1
  S  S154  1  0.88412994  0.53468679  0.18244903  1
  S  S155  1  0.88744515  0.94086691  0.29057455  1
  S  S156  1  0.21800846  0.16154827  0.24831653  1
  S  S157  1  0.22124459  0.45949408  0.19147922  1
  S  S158  1  0.22163057  0.86354774  0.30539030  1
  S  S159  1  0.72152896  0.36352711  0.30532607  1
  S  S160  1  0.71808545  0.66162393  0.24834780  1
  S  S161  1  0.72120824  0.95949105  0.19147935  1
  S  S162  1  0.62494433  0.58872318  0.39808357  1
  S  S163  1  0.59820949  0.89811186  0.34783809  1
  S  S164  1  0.60603213  0.25566801  0.36826283  1
  S  S165  1  0.68028614  0.62008012  0.47884120  1
  S  S166  1  0.61685564  0.94179430  0.43096035  1
  S  S167  1  0.09903738  0.39824012  0.34786340  1
  S  S168  1  0.12510698  0.08866653  0.39811816  1
  S  S169  1  0.11679963  0.44178989  0.43098054  1
  S  S170  1  0.10600948  0.75566849  0.36828081  1
  S  S171  1  0.18050895  0.12017308  0.47887399  1
  S  S172  1  0.40851261  0.67173353  0.43922333  1
  S  S173  1  0.38339550  0.99059800  0.38191832  1
  S  S174  1  0.45907561  0.51945787  0.45662536  1
  S  S175  1  0.39005507  0.84216149  0.40533270  1
  S  S176  1  0.40676349  0.14244281  0.34522308  1
  S  S177  1  0.88350855  0.49051136  0.38187802  1
  S  S178  1  0.90862409  0.17162743  0.43924123  1
  S  S179  1  0.89039051  0.34205426  0.40520127  1
  S  S180  1  0.90669991  0.64245717  0.34524279  1
  S  S181  1  0.95970164  0.01937509  0.45672554  1
  S  S182  1  0.24490272  0.26666867  0.41357501  1
  S  S183  1  0.22558057  0.56980993  0.36701361  1
  S  S184  1  0.74483678  0.76668008  0.41356237  1
  S  S185  1  0.72563495  0.06972151  0.36706912  1
  Cl  Cl186  1  0.93215948  0.11362575  0.16519286  1
  Cl  Cl187  1  0.93339989  0.40483350  0.11220678  1
  Cl  Cl188  1  0.97964070  0.69477143  0.06003238  1
  Cl  Cl189  1  0.47954358  0.19470538  0.06002429  1
  Cl  Cl190  1  0.43240075  0.61363783  0.16522410  1
  Cl  Cl191  1  0.43332631  0.90484283  0.11220091  1
  Cl  Cl192  1  0.93189183  0.20937841  0.33187551  1
  Cl  Cl193  1  0.92337099  0.51115931  0.27931064  1
  Cl  Cl194  1  0.92249826  0.81242514  0.21748449  1
  Cl  Cl195  1  0.42251878  0.31238268  0.21747933  1
  Cl  Cl196  1  0.43182392  0.70942696  0.33187114  1
  Cl  Cl197  1  0.42339486  0.01115667  0.27932067  1
  Cl  Cl198  1  0.98791998  0.62726066  0.43838103  1
  Cl  Cl199  1  0.93153864  0.91813959  0.38457126  1
  Cl  Cl200  1  0.43163916  0.41820215  0.38449053  1
  Cl  Cl201  1  0.48804136  0.12726576  0.43838569  1
