# generated using pymatgen
data_Li46P8S39Cl8
_symmetry_space_group_name_H-M   'P 1'
_cell_length_a   10.60410300
_cell_length_b   21.51103300
_cell_length_c   40.15794400
_cell_angle_alpha   90.00000000
_cell_angle_beta   90.00000000
_cell_angle_gamma   90.00000000
_symmetry_Int_Tables_number   1
_chemical_formula_structural   Li46P8S39Cl8
_chemical_formula_sum   'Li92 P16 S78 Cl16'
_cell_volume   9160.23623196
_cell_formula_units_Z   2
loop_
 _symmetry_equiv_pos_site_id
 _symmetry_equiv_pos_as_xyz
  1  'x, y, z'
loop_
 _atom_site_type_symbol
 _atom_site_label
 _atom_site_symmetry_multiplicity
 _atom_site_fract_x
 _atom_site_fract_y
 _atom_site_fract_z
 _atom_site_occupancy
  Li  Li0  1  0.97689312  0.23337555  0.12790605  1
  Li  Li1  1  0.75967822  0.46669150  0.08372965  1
  Li  Li2  1  0.77540823  0.67970183  0.05356223  1
  Li  Li3  1  0.79984862  0.36154966  0.14556453  1
  Li  Li4  1  0.93351971  0.61206166  0.09175089  1
  Li  Li5  1  0.79754971  0.32242745  0.07829875  1
  Li  Li6  1  0.59160576  0.59138724  0.03160699  1
  Li  Li7  1  0.82758776  0.02185941  0.14792629  1
  Li  Li8  1  0.71747227  0.55491046  0.13652856  1
  Li  Li9  1  0.03611628  0.78498471  0.08102717  1
  Li  Li10  1  0.27537895  0.17972008  0.05356513  1
  Li  Li11  1  0.47703365  0.73333358  0.12790172  1
  Li  Li12  1  0.25976544  0.96667273  0.08372256  1
  Li  Li13  1  0.43336866  0.11215817  0.09179449  1
  Li  Li14  1  0.29964753  0.86149016  0.14563680  1
  Li  Li15  1  0.09163525  0.09137421  0.03160997  1
  Li  Li16  1  0.32895134  0.52156696  0.14830638  1
  Li  Li17  1  0.29785789  0.82225238  0.07836245  1
  Li  Li18  1  0.53592297  0.28494198  0.08121037  1
  Li  Li19  1  0.21673767  0.05463488  0.13653315  1
  Li  Li20  1  0.01419666  0.08189571  0.09550277  1
  Li  Li21  1  0.06010980  0.34660968  0.06251841  1
  Li  Li22  1  0.04868571  0.76999683  0.15383418  1
  Li  Li23  1  0.06192047  0.46910106  0.14454771  1
  Li  Li24  1  0.20784591  0.67260655  0.08834261  1
  Li  Li25  1  0.54853724  0.27044195  0.15430837  1
  Li  Li26  1  0.51408373  0.58225054  0.09554614  1
  Li  Li27  1  0.56013466  0.84665510  0.06251998  1
  Li  Li28  1  0.70781466  0.17274107  0.08826271  1
  Li  Li29  1  0.55923182  0.96962986  0.14479559  1
  Li  Li30  1  0.74418651  0.26636612  0.26617208  1
  Li  Li31  1  0.79084510  0.55798026  0.22786656  1
  Li  Li32  1  0.78571065  0.86356998  0.16924814  1
  Li  Li33  1  0.78869576  0.45321364  0.31700637  1
  Li  Li34  1  0.79120744  0.75778097  0.25863253  1
  Li  Li35  1  0.74577654  0.05124069  0.22060757  1
  Li  Li36  1  0.77703772  0.41675150  0.25163344  1
  Li  Li37  1  0.78371410  0.71347687  0.19477439  1
  Li  Li38  1  0.78696428  0.12860593  0.31554076  1
  Li  Li39  1  0.78986288  0.18982939  0.17201089  1
  Li  Li40  1  0.78725967  0.60190993  0.29116650  1
  Li  Li41  1  0.77791655  0.90003084  0.23504628  1
  Li  Li42  1  0.28592285  0.36327518  0.17014361  1
  Li  Li43  1  0.24464889  0.76652745  0.26622112  1
  Li  Li44  1  0.29112912  0.05938721  0.22829277  1
  Li  Li45  1  0.29062181  0.25851519  0.25869189  1
  Li  Li46  1  0.24536782  0.55125044  0.22123229  1
  Li  Li47  1  0.28356979  0.95387666  0.31729903  1
  Li  Li48  1  0.28310438  0.21355172  0.19489603  1
  Li  Li49  1  0.29151229  0.62744101  0.31417591  1
  Li  Li50  1  0.27703022  0.91672820  0.25169373  1
  Li  Li51  1  0.27716394  0.40086074  0.23573851  1
  Li  Li52  1  0.29018133  0.68952201  0.17231704  1
  Li  Li53  1  0.28301754  0.10323435  0.29190652  1
  Li  Li54  1  0.03339493  0.19004423  0.27233845  1
  Li  Li55  1  0.01638487  0.46373778  0.21594145  1
  Li  Li56  1  0.05781974  0.84816961  0.34244053  1
  Li  Li57  1  0.03371960  0.12605318  0.21495113  1
  Li  Li58  1  0.05023621  0.55078754  0.34199519  1
  Li  Li59  1  0.01588642  0.85293759  0.27085968  1
  Li  Li60  1  0.55794790  0.34823683  0.34227953  1
  Li  Li61  1  0.53532664  0.69017391  0.27215563  1
  Li  Li62  1  0.51717474  0.96385149  0.21601759  1
  Li  Li63  1  0.51639515  0.35310790  0.27076650  1
  Li  Li64  1  0.53460920  0.62637757  0.21467041  1
  Li  Li65  1  0.54523483  0.04773487  0.33208988  1
  Li  Li66  1  0.92755270  0.70409492  0.39495534  1
  Li  Li67  1  0.79604610  0.95648840  0.34155364  1
  Li  Li68  1  0.76768007  0.64269282  0.43526068  1
  Li  Li69  1  0.75750185  0.85169252  0.40264946  1
  Li  Li70  1  0.97326307  0.08329022  0.35884162  1
  Li  Li71  1  0.97303870  0.52152664  0.41965167  1
  Li  Li72  1  0.71497286  0.76245238  0.35023052  1
  Li  Li73  1  0.82332137  0.29473366  0.33922800  1
  Li  Li74  1  0.58278782  0.72883841  0.45500922  1
  Li  Li75  1  0.79595447  0.99534811  0.40935901  1
  Li  Li76  1  0.30152079  0.45652805  0.34217233  1
  Li  Li77  1  0.43168170  0.20589986  0.39551025  1
  Li  Li78  1  0.25793328  0.35114248  0.40371231  1
  Li  Li79  1  0.48331044  0.58362087  0.35916204  1
  Li  Li80  1  0.27253578  0.13866937  0.43353756  1
  Li  Li81  1  0.21637081  0.26387958  0.35092473  1
  Li  Li82  1  0.53728411  0.03412958  0.40461315  1
  Li  Li83  1  0.27503562  0.50131342  0.41009118  1
  Li  Li84  1  0.32668700  0.79568248  0.33915299  1
  Li  Li85  1  0.08875806  0.22751575  0.45529308  1
  Li  Li86  1  0.20408709  0.64298815  0.39828648  1
  Li  Li87  1  0.01154192  0.23334359  0.39127900  1
  Li  Li88  1  0.06041343  0.97185423  0.42405656  1
  Li  Li89  1  0.70565386  0.14581531  0.39945210  1
  Li  Li90  1  0.54614824  0.47207823  0.42341483  1
  Li  Li91  1  0.51202512  0.73530550  0.39071061  1
  P  P92  1  0.51474279  0.10973368  0.16284523  1
  P  P93  1  0.51270898  0.41603118  0.10537720  1
  P  P94  1  0.51117716  0.71945444  0.04246717  1
  P  P95  1  0.01115334  0.21938013  0.04249322  1
  P  P96  1  0.01551089  0.60941824  0.16266876  1
  P  P97  1  0.01272466  0.91594879  0.10524872  1
  P  P98  1  0.51203501  0.20801106  0.32430131  1
  P  P99  1  0.50554908  0.51148049  0.27341167  1
  P  P100  1  0.50498275  0.80551996  0.21377467  1
  P  P101  1  0.00422977  0.30547478  0.21379656  1
  P  P102  1  0.01357576  0.70816672  0.32437462  1
  P  P103  1  0.00302058  0.01163615  0.27355345  1
  P  P104  1  0.50604881  0.59955650  0.44498713  1
  P  P105  1  0.51040514  0.90218791  0.38180329  1
  P  P106  1  0.00814271  0.40057874  0.38280715  1
  P  P107  1  0.00927284  0.09872343  0.44475943  1
  S  S108  1  0.62161222  0.07699511  0.12312814  1
  S  S109  1  0.61020538  0.38743386  0.06317388  1
  S  S110  1  0.63172324  0.68980714  0.00633390  1
  S  S111  1  0.63859031  0.44468477  0.14138012  1
  S  S112  1  0.62229979  0.74793684  0.08292120  1
  S  S113  1  0.13172581  0.18974731  0.00635107  1
  S  S114  1  0.12317413  0.57699587  0.12304589  1
  S  S115  1  0.11068266  0.88749538  0.06311372  1
  S  S116  1  0.12224669  0.24784788  0.08295433  1
  S  S117  1  0.13789191  0.94438149  0.14146658  1
  S  S118  1  0.40171562  0.17992377  0.14567767  1
  S  S119  1  0.38924605  0.48481096  0.09321217  1
  S  S120  1  0.40681612  0.79457159  0.02792330  1
  S  S121  1  0.41055963  0.33907406  0.12128383  1
  S  S122  1  0.39826595  0.64377817  0.05539792  1
  S  S123  1  0.90675073  0.29443353  0.02791127  1
  S  S124  1  0.90235286  0.67960425  0.14545987  1
  S  S125  1  0.88922941  0.98471716  0.09305809  1
  S  S126  1  0.89830385  0.14366010  0.05543572  1
  S  S127  1  0.91050880  0.83883125  0.12090016  1
  S  S128  1  0.23106398  0.07424542  0.07820938  1
  S  S129  1  0.25004185  0.75858045  0.12622408  1
  S  S130  1  0.74951814  0.25864925  0.12611223  1
  S  S131  1  0.73099783  0.57426876  0.07813049  1
  S  S132  1  0.61691032  0.17852079  0.28510834  1
  S  S133  1  0.60076508  0.48658108  0.23140549  1
  S  S134  1  0.61251242  0.78337200  0.17269716  1
  S  S135  1  0.61974257  0.13914660  0.20202944  1
  S  S136  1  0.61538377  0.53346733  0.31411763  1
  S  S137  1  0.60274177  0.83021977  0.25539771  1
  S  S138  1  0.11230687  0.28336154  0.17279360  1
  S  S139  1  0.11889021  0.67907047  0.28524976  1
  S  S140  1  0.10094570  0.98732981  0.23183734  1
  S  S141  1  0.10166889  0.33026517  0.25549887  1
  S  S142  1  0.11939427  0.63889594  0.20205431  1
  S  S143  1  0.11106266  0.03387767  0.31451800  1
  S  S144  1  0.39457607  0.28253656  0.31182571  1
  S  S145  1  0.39615975  0.58924494  0.26199974  1
  S  S146  1  0.38213273  0.87691455  0.20143485  1
  S  S147  1  0.38263784  0.44038121  0.28605155  1
  S  S148  1  0.39492723  0.72814773  0.22523478  1
  S  S149  1  0.39671904  0.03538597  0.17538021  1
  S  S150  1  0.88121069  0.37655574  0.20133142  1
  S  S151  1  0.89539109  0.78242078  0.31186892  1
  S  S152  1  0.89285594  0.08914239  0.26231767  1
  S  S153  1  0.89439693  0.22796753  0.22520534  1
  S  S154  1  0.89756071  0.53493747  0.17485861  1
  S  S155  1  0.88037770  0.94022832  0.28580452  1
  S  S156  1  0.22165774  0.15869508  0.24357917  1
  S  S157  1  0.21855124  0.46160049  0.18955663  1
  S  S158  1  0.21672252  0.85576146  0.29777002  1
  S  S159  1  0.71715804  0.35553311  0.29772457  1
  S  S160  1  0.72323276  0.65810001  0.24317788  1
  S  S161  1  0.71808495  0.96150980  0.18919973  1
  S  S162  1  0.62327425  0.57007414  0.40581940  1
  S  S163  1  0.63627613  0.87342475  0.34578907  1
  S  S164  1  0.61954233  0.24050155  0.36396022  1
  S  S165  1  0.62229173  0.63083795  0.48175524  1
  S  S166  1  0.60783363  0.93094462  0.42392581  1
  S  S167  1  0.13527906  0.37458653  0.34677649  1
  S  S168  1  0.11945267  0.07129365  0.40392586  1
  S  S169  1  0.10285641  0.42855048  0.42574233  1
  S  S170  1  0.11933544  0.74010153  0.36448370  1
  S  S171  1  0.12991312  0.12883293  0.48074296  1
  S  S172  1  0.39386556  0.67454530  0.43081105  1
  S  S173  1  0.40811033  0.97899248  0.36577521  1
  S  S174  1  0.39960406  0.52473602  0.45902510  1
  S  S175  1  0.38740438  0.83316361  0.39408476  1
  S  S176  1  0.39855654  0.13802683  0.34149905  1
  S  S177  1  0.90425909  0.47781443  0.36786232  1
  S  S178  1  0.89498929  0.17419666  0.43229510  1
  S  S179  1  0.88623305  0.33082159  0.39426238  1
  S  S180  1  0.89876537  0.63830978  0.34132613  1
  S  S181  1  0.90735227  0.02288235  0.45935712  1
  S  S182  1  0.22869643  0.24370484  0.40892589  1
  S  S183  1  0.26037397  0.56027716  0.36034054  1
  S  S184  1  0.72756988  0.74430892  0.40907588  1
  S  S185  1  0.74529944  0.05926914  0.36138609  1
  Cl  Cl186  1  0.97397937  0.11539225  0.15576405  1
  Cl  Cl187  1  0.94843016  0.40832045  0.10146394  1
  Cl  Cl188  1  0.00828364  0.69007672  0.05614462  1
  Cl  Cl189  1  0.50804956  0.19010061  0.05621340  1
  Cl  Cl190  1  0.47436792  0.61552078  0.15571096  1
  Cl  Cl191  1  0.44830342  0.90836651  0.10155265  1
  Cl  Cl192  1  0.97076589  0.20152141  0.33143100  1
  Cl  Cl193  1  0.91842820  0.50400987  0.26889230  1
  Cl  Cl194  1  0.92148186  0.81171832  0.21723550  1
  Cl  Cl195  1  0.42119404  0.31166446  0.21736877  1
  Cl  Cl196  1  0.47778986  0.70374605  0.33105358  1
  Cl  Cl197  1  0.42063471  0.00595485  0.26996177  1
  Cl  Cl198  1  0.99761782  0.62447586  0.43133894  1
  Cl  Cl199  1  0.94668234  0.90989690  0.38544511  1
  Cl  Cl200  1  0.44529629  0.40721824  0.38539591  1
  Cl  Cl201  1  0.50545636  0.12781137  0.43095532  1
