# generated using pymatgen
data_Li26P5S23Cl5
_symmetry_space_group_name_H-M   'P 1'
_cell_length_a   6.77288200
_cell_length_b   12.58005127
_cell_length_c   42.54194400
_cell_angle_alpha   90.00000000
_cell_angle_beta   90.00000000
_cell_angle_gamma   122.57361011
_symmetry_Int_Tables_number   1
_chemical_formula_structural   Li26P5S23Cl5
_chemical_formula_sum   'Li26 P5 S23 Cl5'
_cell_volume   3054.54468754
_cell_formula_units_Z   1
loop_
 _symmetry_equiv_pos_site_id
 _symmetry_equiv_pos_as_xyz
  1  'x, y, z'
loop_
 _atom_site_type_symbol
 _atom_site_label
 _atom_site_symmetry_multiplicity
 _atom_site_fract_x
 _atom_site_fract_y
 _atom_site_fract_z
 _atom_site_occupancy
  Li  Li0  1  0.57704085  0.41421228  0.14732513  1
  Li  Li1  1  0.71717457  0.77654531  0.09705236  1
  Li  Li2  1  0.20268726  0.39207133  0.10487916  1
  Li  Li3  1  0.93138381  0.25498136  0.15679446  1
  Li  Li4  1  0.17256261  0.86224611  0.07167694  1
  Li  Li5  1  0.53848363  0.25869871  0.09551369  1
  Li  Li6  1  0.78717380  0.76552482  0.01874572  1
  Li  Li7  1  0.91401580  0.05589051  0.09999654  1
  Li  Li8  1  0.25342055  0.14613069  0.17586655  1
  Li  Li9  1  0.08425536  0.51196836  0.03229270  1
  Li  Li10  1  0.57947760  0.45567773  0.29879362  1
  Li  Li11  1  0.38729081  0.70833098  0.25778611  1
  Li  Li12  1  0.14766535  0.36786511  0.26543336  1
  Li  Li13  1  0.94180520  0.75855325  0.18313890  1
  Li  Li14  1  0.01234478  0.29862791  0.32886493  1
  Li  Li15  1  0.19042335  0.89678185  0.23860525  1
  Li  Li16  1  0.56539994  0.23455376  0.28285335  1
  Li  Li17  1  0.58829140  0.91826668  0.19852897  1
  Li  Li18  1  0.99407597  0.07462833  0.26479031  1
  Li  Li19  1  0.29941200  0.67892941  0.16403958  1
  Li  Li20  1  0.20478916  0.09179028  0.33432797  1
  Li  Li21  1  0.94134930  0.51023089  0.22491989  1
  Li  Li22  1  0.04927315  0.78367216  0.34006652  1
  Li  Li23  1  0.80264848  0.77269016  0.41505712  1
  Li  Li24  1  0.64728706  0.81168368  0.35293405  1
  Li  Li25  1  0.99750647  0.51610696  0.39474505  1
  P  P26  1  0.44430405  0.95656392  0.13160166  1
  P  P27  1  0.67158218  0.53524852  0.04616570  1
  P  P28  1  0.44036376  0.97964186  0.29891893  1
  P  P29  1  0.42221593  0.46838218  0.20981209  1
  P  P30  1  0.46866193  0.55277785  0.38210557  1
  S  S31  1  0.58625743  0.56019489  0.09100273  1
  S  S32  1  0.54230506  0.05255903  0.08966306  1
  S  S33  1  0.01678035  0.68084313  0.03529300  1
  S  S34  1  0.46391251  0.55346369  0.01384434  1
  S  S35  1  0.09944830  0.80922107  0.12861236  1
  S  S36  1  0.66073445  0.37076584  0.04194927  1
  S  S37  1  0.64093948  0.87689603  0.13923344  1
  S  S38  1  0.21427926  0.22940366  0.12771198  1
  S  S39  1  0.52460851  0.07195261  0.16999582  1
  S  S40  1  0.53795717  0.56924475  0.25133407  1
  S  S41  1  0.60216270  0.06146147  0.25698964  1
  S  S42  1  0.53981583  0.58604630  0.17105604  1
  S  S43  1  0.06288019  0.35986771  0.21008673  1
  S  S44  1  0.08679672  0.91499944  0.29416321  1
  S  S45  1  0.55140432  0.35423918  0.20640255  1
  S  S46  1  0.43603298  0.81813366  0.30887782  1
  S  S47  1  0.24006465  0.24858558  0.29803791  1
  S  S48  1  0.20700627  0.73183218  0.21356657  1
  S  S49  1  0.58537073  0.11001352  0.33413419  1
  S  S50  1  0.40505376  0.68960395  0.39761718  1
  S  S51  1  0.62374177  0.61132411  0.33803004  1
  S  S52  1  0.15213486  0.38561070  0.38186982  1
  S  S53  1  0.70406580  0.55793555  0.41366119  1
  Cl  Cl54  1  0.90160088  0.40690968  0.12619952  1
  Cl  Cl55  1  0.90375302  0.92359057  0.05640277  1
  Cl  Cl56  1  0.91551668  0.43386397  0.29011092  1
  Cl  Cl57  1  0.97810013  0.97530082  0.21335396  1
  Cl  Cl58  1  0.02153809  0.92549198  0.37763467  1
