# generated using pymatgen
data_Li128P21S105Cl23
_symmetry_space_group_name_H-M   'P 1'
_cell_length_a   10.60410300
_cell_length_b   25.21121900
_cell_length_c   39.97474400
_cell_angle_alpha   90.00000000
_cell_angle_beta   90.00000000
_cell_angle_gamma   90.00000000
_symmetry_Int_Tables_number   1
_chemical_formula_structural   Li128P21S105Cl23
_chemical_formula_sum   'Li128 P21 S105 Cl23'
_cell_volume   10686.94252254
_cell_formula_units_Z   1
loop_
 _symmetry_equiv_pos_site_id
 _symmetry_equiv_pos_as_xyz
  1  'x, y, z'
loop_
 _atom_site_type_symbol
 _atom_site_label
 _atom_site_symmetry_multiplicity
 _atom_site_fract_x
 _atom_site_fract_y
 _atom_site_fract_z
 _atom_site_occupancy
  Li  Li0  1  0.60978276  0.25472678  0.01343927  1
  Li  Li1  1  0.78042278  0.88824575  0.10206309  1
  Li  Li2  1  0.81319937  0.47677070  0.13138060  1
  Li  Li3  1  0.77960125  0.64931469  0.08799983  1
  Li  Li4  1  0.82748824  0.25431299  0.13398828  1
  Li  Li5  1  0.74222471  0.15001338  0.09910625  1
  Li  Li6  1  0.74984608  0.53503459  0.04837093  1
  Li  Li7  1  0.89350700  0.99889110  0.05691230  1
  Li  Li8  1  0.75434410  0.65038206  0.01471675  1
  Li  Li9  1  0.89616348  0.38422080  0.00513177  1
  Li  Li10  1  0.27152297  0.65916081  0.06780465  1
  Li  Li11  1  0.57434857  0.36128413  0.03966540  1
  Li  Li12  1  0.30933454  0.83350196  0.06220434  1
  Li  Li13  1  0.27884301  0.45568562  0.11977545  1
  Li  Li14  1  0.30642570  0.98408689  0.12040210  1
  Li  Li15  1  0.41582275  0.74295435  0.03572022  1
  Li  Li16  1  0.31586337  0.36582576  0.07421574  1
  Li  Li17  1  0.40058675  0.13259693  0.08745695  1
  Li  Li18  1  0.32881409  0.74085833  0.13350307  1
  Li  Li19  1  0.31691680  0.50733578  0.04702165  1
  Li  Li20  1  0.04587524  0.17281770  0.08274320  1
  Li  Li21  1  0.08390709  0.78790736  0.12221046  1
  Li  Li22  1  0.97522211  0.57131628  0.09293550  1
  Li  Li23  1  0.03431443  0.71166598  0.07053222  1
  Li  Li24  1  0.06499851  0.34386831  0.09256871  1
  Li  Li25  1  0.59787101  0.97582375  0.09778456  1
  Li  Li26  1  0.54029313  0.60325409  0.12279369  1
  Li  Li27  1  0.80617736  0.31319977  0.06416150  1
  Li  Li28  1  0.56884181  0.11168713  0.15773756  1
  Li  Li29  1  0.57794331  0.88095633  0.04782054  1
  Li  Li30  1  0.56051691  0.49597010  0.10362661  1
  Li  Li31  1  0.83208116  0.10699929  0.18168503  1
  Li  Li32  1  0.82303977  0.71961469  0.22871966  1
  Li  Li33  1  0.82262678  0.33195235  0.27630303  1
  Li  Li34  1  0.83323252  0.87164840  0.18304204  1
  Li  Li35  1  0.81272265  0.48788699  0.23025757  1
  Li  Li36  1  0.82253285  0.10832637  0.27666513  1
  Li  Li37  1  0.76276617  0.00905316  0.24502982  1
  Li  Li38  1  0.74607351  0.77572909  0.14834315  1
  Li  Li39  1  0.74530242  0.38644829  0.19592049  1
  Li  Li40  1  0.73887832  0.82392516  0.26127210  1
  Li  Li41  1  0.78620496  0.57074663  0.16613841  1
  Li  Li42  1  0.73258534  0.20825409  0.21204106  1
  Li  Li43  1  0.23740709  0.89244470  0.18423851  1
  Li  Li44  1  0.25812916  0.51231348  0.23781556  1
  Li  Li45  1  0.21864238  0.27566517  0.13731560  1
  Li  Li46  1  0.29167497  0.07136496  0.16311718  1
  Li  Li47  1  0.25824307  0.69418790  0.21875371  1
  Li  Li48  1  0.23990207  0.31334213  0.26941179  1
  Li  Li49  1  0.32859861  0.84273471  0.27021009  1
  Li  Li50  1  0.30461319  0.60577641  0.17300668  1
  Li  Li51  1  0.32315467  0.22465856  0.22229154  1
  Li  Li52  1  0.31317238  0.98223202  0.23197400  1
  Li  Li53  1  0.32892546  0.59818244  0.28371208  1
  Li  Li54  1  0.31790154  0.36284059  0.18510725  1
  Li  Li55  1  0.04220945  0.02102539  0.20040742  1
  Li  Li56  1  0.06554327  0.63487634  0.26905009  1
  Li  Li57  1  0.04113066  0.40141520  0.15506304  1
  Li  Li58  1  0.04758547  0.95844125  0.14052118  1
  Li  Li59  1  0.03173293  0.57363482  0.20860501  1
  Li  Li60  1  0.05510039  0.19169571  0.24102612  1
  Li  Li61  1  0.55056074  0.85903127  0.20363022  1
  Li  Li62  1  0.53813876  0.45853604  0.26189974  1
  Li  Li63  1  0.55073718  0.24101035  0.15471224  1
  Li  Li64  1  0.53608251  0.98261600  0.29193504  1
  Li  Li65  1  0.55726642  0.73141040  0.20185791  1
  Li  Li66  1  0.55694827  0.34424749  0.24924630  1
  Li  Li67  1  0.81205659  0.95320994  0.32369206  1
  Li  Li68  1  0.83326958  0.56941969  0.37102939  1
  Li  Li69  1  0.82444785  0.18562662  0.41974125  1
  Li  Li70  1  0.82396774  0.72186117  0.32501433  1
  Li  Li71  1  0.83324133  0.33315623  0.37128472  1
  Li  Li72  1  0.81589058  0.96520590  0.42183725  1
  Li  Li73  1  0.77509114  0.86776969  0.38841102  1
  Li  Li74  1  0.73897869  0.61726146  0.29258256  1
  Li  Li75  1  0.72652842  0.23154703  0.34123820  1
  Li  Li76  1  0.74613796  0.66512278  0.40566167  1
  Li  Li77  1  0.76765906  0.43057240  0.30839205  1
  Li  Li78  1  0.74226825  0.05552243  0.35746909  1
  Li  Li79  1  0.25713278  0.74748978  0.33482332  1
  Li  Li80  1  0.29417885  0.36976831  0.39007210  1
  Li  Li81  1  0.24118356  0.12720344  0.28382302  1
  Li  Li82  1  0.25703344  0.92901090  0.31581203  1
  Li  Li83  1  0.24147028  0.54883532  0.36958940  1
  Li  Li84  1  0.20350516  0.16460105  0.41855992  1
  Li  Li85  1  0.32892968  0.70158711  0.42110610  1
  Li  Li86  1  0.31534310  0.45880818  0.32185965  1
  Li  Li87  1  0.32900176  0.07992455  0.36945666  1
  Li  Li88  1  0.30531590  0.83595686  0.38081295  1
  Li  Li89  1  0.30564303  0.45620249  0.43351744  1
  Li  Li90  1  0.32320357  0.21658359  0.33125072  1
  Li  Li91  1  0.03089128  0.86798148  0.34590599  1
  Li  Li92  1  0.04667110  0.48263557  0.41319897  1
  Li  Li93  1  0.05275481  0.24895450  0.31178128  1
  Li  Li94  1  0.06400167  0.80664126  0.28502208  1
  Li  Li95  1  0.04459589  0.41999702  0.35273619  1
  Li  Li96  1  0.05989954  0.04151585  0.38533844  1
  Li  Li97  1  0.55742682  0.70969280  0.35208468  1
  Li  Li98  1  0.56921898  0.32864886  0.39535532  1
  Li  Li99  1  0.55854856  0.09732014  0.30314507  1
  Li  Li100  1  0.53721832  0.83809328  0.43367412  1
  Li  Li101  1  0.55303191  0.58207686  0.35042649  1
  Li  Li102  1  0.55095360  0.19924187  0.39888786  1
  Li  Li103  1  0.77858544  0.79249813  0.46640020  1
  Li  Li104  1  0.77992085  0.55226406  0.45195774  1
  Li  Li105  1  0.60646333  0.18634212  0.53926783  1
  Li  Li106  1  0.75699117  0.79206021  0.53939542  1
  Li  Li107  1  0.89222026  0.44090171  0.49690601  1
  Li  Li108  1  0.89224332  0.05719264  0.54998469  1
  Li  Li109  1  0.73844166  0.29159311  0.45375269  1
  Li  Li110  1  0.74609278  0.90879221  0.50631622  1
  Li  Li111  1  0.31344545  0.60778674  0.49146445  1
  Li  Li112  1  0.26122544  0.98278591  0.43291723  1
  Li  Li113  1  0.26980258  0.78122834  0.48999931  1
  Li  Li114  1  0.57015805  0.07886828  0.51479238  1
  Li  Li115  1  0.39517922  0.30758424  0.46471863  1
  Li  Li116  1  0.31230298  0.93565167  0.50693289  1
  Li  Li117  1  0.41818161  0.69849371  0.51909688  1
  Li  Li118  1  0.31091140  0.07466827  0.47859362  1
  Li  Li119  1  0.03261588  0.72926152  0.48396927  1
  Li  Li120  1  0.05487174  0.09097788  0.45780457  1
  Li  Li121  1  0.08335947  0.65445648  0.43144505  1
  Li  Li122  1  0.04550752  0.26711542  0.46970939  1
  Li  Li123  1  0.97233413  0.86927194  0.46095598  1
  Li  Li124  1  0.57910560  0.55917865  0.50631128  1
  Li  Li125  1  0.56030602  0.94868602  0.44987937  1
  Li  Li126  1  0.59726302  0.46459919  0.45597901  1
  Li  Li127  1  0.80736251  0.12492312  0.48994282  1
  P  P128  1  0.50193157  0.24882851  0.08093530  1
  P  P129  1  0.50862466  0.86591795  0.12923585  1
  P  P130  1  0.50070257  0.62592416  0.03387716  1
  P  P131  1  0.02461992  0.06376651  0.10714168  1
  P  P132  1  0.01228173  0.44447484  0.05910926  1
  P  P133  1  0.51472011  0.10278096  0.22927346  1
  P  P134  1  0.51407934  0.72073788  0.27692189  1
  P  P135  1  0.51843715  0.48642505  0.18097299  1
  P  P136  1  0.01914987  0.91417379  0.25300270  1
  P  P137  1  0.01322702  0.67924958  0.15423626  1
  P  P138  1  0.01156652  0.29575760  0.20441698  1
  P  P139  1  0.51615721  0.95514987  0.37309765  1
  P  P140  1  0.50976546  0.57500204  0.42476340  1
  P  P141  1  0.51511385  0.33822895  0.32374603  1
  P  P142  1  0.01223004  0.76292677  0.39941601  1
  P  P143  1  0.02036735  0.52724331  0.30097862  1
  P  P144  1  0.00887834  0.14608133  0.34923131  1
  P  P145  1  0.50066593  0.81577328  0.52139495  1
  P  P146  1  0.49946028  0.19169092  0.47191853  1
  P  P147  1  0.02467065  0.37666726  0.44615540  1
  P  P148  1  0.00449921  0.99643199  0.49676511  1
  S  S149  1  0.58486335  0.18368822  0.05805946  1
  S  S150  1  0.61430757  0.81122407  0.10379698  1
  S  S151  1  0.61605918  0.57744040  0.00635689  1
  S  S152  1  0.60711484  0.68715189  0.05462961  1
  S  S153  1  0.62549898  0.29865875  0.10513203  1
  S  S154  1  0.10636677  0.99842407  0.08540086  1
  S  S155  1  0.11517069  0.62119416  0.13088428  1
  S  S156  1  0.11528657  0.38464563  0.03765976  1
  S  S157  1  0.15763871  0.11898665  0.12124236  1
  S  S158  1  0.12788850  0.50084568  0.08167688  1
  S  S159  1  0.40748037  0.28898713  0.04406711  1
  S  S160  1  0.40234876  0.90736029  0.09444445  1
  S  S161  1  0.35676719  0.65868373  0.00815793  1
  S  S162  1  0.37957356  0.21678433  0.11604595  1
  S  S163  1  0.41689629  0.58374223  0.07315279  1
  S  S164  1  0.91104585  0.09897851  0.07106187  1
  S  S165  1  0.89806905  0.71890396  0.11960492  1
  S  S166  1  0.90661631  0.47871486  0.02270497  1
  S  S167  1  0.89962026  0.40914059  0.09579351  1
  S  S168  1  0.22888614  0.75115835  0.08006888  1
  S  S169  1  0.23111242  0.36711306  0.12990307  1
  S  S170  1  0.73876353  0.32528521  0.01068189  1
  S  S171  1  0.73220179  0.94233287  0.05830374  1
  S  S172  1  0.74707943  0.55958172  0.10726402  1
  S  S173  1  0.62486548  0.05003754  0.20336051  1
  S  S174  1  0.62057623  0.66784457  0.24995363  1
  S  S175  1  0.61852543  0.43222016  0.15304830  1
  S  S176  1  0.62192284  0.91873467  0.15410268  1
  S  S177  1  0.62330676  0.53984836  0.20697197  1
  S  S178  1  0.61720125  0.15783159  0.25561643  1
  S  S179  1  0.12174372  0.85326484  0.23213271  1
  S  S180  1  0.12763265  0.46885450  0.28058920  1
  S  S181  1  0.11408166  0.23412331  0.18445230  1
  S  S182  1  0.12606581  0.97281157  0.27325359  1
  S  S183  1  0.12742989  0.73608141  0.17472004  1
  S  S184  1  0.12020580  0.35507689  0.22379504  1
  S  S185  1  0.39935361  0.14075616  0.19521702  1
  S  S186  1  0.39984059  0.76033433  0.24291148  1
  S  S187  1  0.40579450  0.52646197  0.14632482  1
  S  S188  1  0.40069749  0.06243567  0.26330416  1
  S  S189  1  0.39034201  0.82761631  0.16290322  1
  S  S190  1  0.39885965  0.44640543  0.21315769  1
  S  S191  1  0.90107489  0.94684820  0.21716944  1
  S  S192  1  0.90450513  0.56224075  0.26444931  1
  S  S193  1  0.89557182  0.32921980  0.16825449  1
  S  S194  1  0.91226205  0.03692784  0.14580446  1
  S  S195  1  0.89528115  0.64720837  0.19010191  1
  S  S196  1  0.89601863  0.26135001  0.24041560  1
  S  S197  1  0.22904613  0.98404874  0.17631734  1
  S  S198  1  0.22828348  0.60383232  0.22950606  1
  S  S199  1  0.22821059  0.22017860  0.27677640  1
  S  S200  1  0.72652683  0.17884948  0.15578005  1
  S  S201  1  0.72664985  0.79667919  0.20514911  1
  S  S202  1  0.72768543  0.40872796  0.25239665  1
  S  S203  1  0.62122429  0.90187860  0.34696315  1
  S  S204  1  0.62273472  0.52222827  0.39970387  1
  S  S205  1  0.61694298  0.28329076  0.29716650  1
  S  S206  1  0.61949075  0.77383844  0.30397141  1
  S  S207  1  0.62574714  0.39060703  0.34977817  1
  S  S208  1  0.61738858  0.00967171  0.40045879  1
  S  S209  1  0.12758226  0.70615472  0.37917956  1
  S  S210  1  0.15867417  0.32172527  0.43196061  1
  S  S211  1  0.11959783  0.08667379  0.32984960  1
  S  S212  1  0.11301761  0.82157899  0.42221578  1
  S  S213  1  0.12218542  0.58824811  0.32197522  1
  S  S214  1  0.11225808  0.20734841  0.36897500  1
  S  S215  1  0.39660201  0.99495629  0.34074572  1
  S  S216  1  0.39226915  0.61398623  0.39124597  1
  S  S217  1  0.40071191  0.37871869  0.28993943  1
  S  S218  1  0.40461626  0.91526221  0.40809904  1
  S  S219  1  0.39962633  0.68104435  0.31078362  1
  S  S220  1  0.39984704  0.30023733  0.35788115  1
  S  S221  1  0.89347626  0.79429119  0.36341039  1
  S  S222  1  0.91299423  0.40347685  0.40737860  1
  S  S223  1  0.89301697  0.17943184  0.31305690  1
  S  S224  1  0.90334899  0.87912850  0.28946754  1
  S  S225  1  0.90189714  0.49423642  0.33659880  1
  S  S226  1  0.89673725  0.11085765  0.38547102  1
  S  S227  1  0.22753043  0.83780732  0.32438812  1
  S  S228  1  0.22999924  0.45728132  0.37745159  1
  S  S229  1  0.22800908  0.07192826  0.42232169  1
  S  S230  1  0.72693041  0.03219633  0.30095349  1
  S  S231  1  0.72751699  0.64477449  0.34870431  1
  S  S232  1  0.72653144  0.26158516  0.39734165  1
  S  S233  1  0.60702680  0.75521485  0.49969675  1
  S  S234  1  0.62534857  0.14218520  0.44818528  1
  S  S235  1  0.61584106  0.62921946  0.45048278  1
  S  S236  1  0.58060412  0.25749233  0.49446578  1
  S  S237  1  0.61684918  0.86428047  0.54852300  1
  S  S238  1  0.11942710  0.94019048  0.47342569  1
  S  S239  1  0.10540610  0.44196964  0.46819670  1
  S  S240  1  0.11056492  0.05715264  0.51581464  1
  S  S241  1  0.41151266  0.85727140  0.48272644  1
  S  S242  1  0.37658618  0.22240638  0.43644116  1
  S  S243  1  0.36090123  0.78149674  0.54803939  1
  S  S244  1  0.40292738  0.53325520  0.45929754  1
  S  S245  1  0.40520430  0.15164725  0.50882044  1
  S  S246  1  0.88284976  0.03028251  0.46182615  1
  S  S247  1  0.89764450  0.72325063  0.43425392  1
  S  S248  1  0.91070240  0.34078672  0.48190342  1
  S  S249  1  0.90625446  0.96167838  0.53444721  1
  S  S250  1  0.22861166  0.69047512  0.47445746  1
  S  S251  1  0.74411178  0.88235369  0.44702672  1
  S  S252  1  0.73166471  0.49744431  0.49547796  1
  S  S253  1  0.73515690  0.11614187  0.54334807  1
  Cl  Cl254  1  0.97609999  0.25792858  0.08842257  1
  Cl  Cl255  1  0.97008313  0.86838874  0.13462233  1
  Cl  Cl256  1  0.94345383  0.63791665  0.04446907  1
  Cl  Cl257  1  0.47433782  0.05659602  0.11478370  1
  Cl  Cl258  1  0.43873463  0.82841905  0.01684159  1
  Cl  Cl259  1  0.45933494  0.43890928  0.06284018  1
  Cl  Cl260  1  0.96730075  0.10342390  0.22995891  1
  Cl  Cl261  1  0.96795682  0.72073720  0.27682250  1
  Cl  Cl262  1  0.94816567  0.49238980  0.17956358  1
  Cl  Cl263  1  0.46661743  0.91351349  0.25137058  1
  Cl  Cl264  1  0.46398582  0.67438905  0.15823289  1
  Cl  Cl265  1  0.47215143  0.29313164  0.20288893  1
  Cl  Cl266  1  0.95174429  0.95114139  0.37333836  1
  Cl  Cl267  1  0.96907424  0.57326164  0.41951369  1
  Cl  Cl268  1  0.96786701  0.33820445  0.32289160  1
  Cl  Cl269  1  0.46533313  0.76747036  0.39627305  1
  Cl  Cl270  1  0.46780358  0.52787215  0.30238099  1
  Cl  Cl271  1  0.47779530  0.14847416  0.34971963  1
  Cl  Cl272  1  0.94508807  0.80357582  0.50950796  1
  Cl  Cl273  1  0.98244962  0.18072816  0.46331839  1
  Cl  Cl274  1  0.44121362  0.61254530  0.53712680  1
  Cl  Cl275  1  0.47441389  0.38383606  0.43826076  1
  Cl  Cl276  1  0.45721844  0.00249286  0.49168306  1
