# generated using pymatgen
data_Li26P5S23Cl5
_symmetry_space_group_name_H-M   'P 1'
_cell_length_a   6.77288200
_cell_length_b   12.58005127
_cell_length_c   42.54194400
_cell_angle_alpha   90.00000000
_cell_angle_beta   90.00000000
_cell_angle_gamma   122.57361011
_symmetry_Int_Tables_number   1
_chemical_formula_structural   Li26P5S23Cl5
_chemical_formula_sum   'Li26 P5 S23 Cl5'
_cell_volume   3054.54468754
_cell_formula_units_Z   1
loop_
 _symmetry_equiv_pos_site_id
 _symmetry_equiv_pos_as_xyz
  1  'x, y, z'
loop_
 _atom_site_type_symbol
 _atom_site_label
 _atom_site_symmetry_multiplicity
 _atom_site_fract_x
 _atom_site_fract_y
 _atom_site_fract_z
 _atom_site_occupancy
  Li  Li0  1  0.53717375  0.77278385  0.09967071  1
  Li  Li1  1  0.32048274  0.43693410  0.14331082  1
  Li  Li2  1  0.00414513  0.81105823  0.09893251  1
  Li  Li3  1  0.53854423  0.26333033  0.11457516  1
  Li  Li4  1  0.81502743  0.78116444  0.03332480  1
  Li  Li5  1  0.92831899  0.06202599  0.11969575  1
  Li  Li6  1  0.08002361  0.51527768  0.05206366  1
  Li  Li7  1  0.59455398  0.35397716  0.17953804  1
  Li  Li8  1  0.54026411  0.75446341  0.26712523  1
  Li  Li9  1  0.18833022  0.38398449  0.29209543  1
  Li  Li10  1  0.98723515  0.73657766  0.19766082  1
  Li  Li11  1  0.97610230  0.25482137  0.18135908  1
  Li  Li12  1  0.21022619  0.89201739  0.25858105  1
  Li  Li13  1  0.54788988  0.25898916  0.28763993  1
  Li  Li14  1  0.57770576  0.89176707  0.20897343  1
  Li  Li15  1  0.94879572  0.06729517  0.28409281  1
  Li  Li16  1  0.17557510  0.54585131  0.20522061  1
  Li  Li17  1  0.18070563  0.06238075  0.18512342  1
  Li  Li18  1  0.94176910  0.56306605  0.26874519  1
  Li  Li19  1  0.57087099  0.40859996  0.33741259  1
  Li  Li20  1  0.95274996  0.76905389  0.36600802  1
  Li  Li21  1  0.98491087  0.26998153  0.35274124  1
  Li  Li22  1  0.72829830  0.78250299  0.43333137  1
  Li  Li23  1  0.62443536  0.88828296  0.37449855  1
  Li  Li24  1  0.94480079  0.53120771  0.41553415  1
  Li  Li25  1  0.19627251  0.05646474  0.34855262  1
  P  P26  1  0.46811017  0.98205584  0.14982116  1
  P  P27  1  0.67831812  0.55353836  0.06544212  1
  P  P28  1  0.49507324  0.97587864  0.31818186  1
  P  P29  1  0.47941542  0.46587776  0.23439834  1
  P  P30  1  0.41228184  0.55717731  0.40033036  1
  S  S31  1  0.61052435  0.60255603  0.10871528  1
  S  S32  1  0.58364633  0.08343004  0.10930665  1
  S  S33  1  0.02899313  0.69309146  0.05462534  1
  S  S34  1  0.47446623  0.56964324  0.03213053  1
  S  S35  1  0.10691914  0.87893192  0.15197119  1
  S  S36  1  0.65788213  0.38621544  0.06438674  1
  S  S37  1  0.59928761  0.86777775  0.15119555  1
  S  S38  1  0.24297778  0.23069303  0.15031737  1
  S  S39  1  0.57195502  0.08404985  0.19127840  1
  S  S40  1  0.58418476  0.57506324  0.27456368  1
  S  S41  1  0.59728205  0.08280146  0.27788399  1
  S  S42  1  0.57339358  0.56859375  0.19307363  1
  S  S43  1  0.12185067  0.35357566  0.23503134  1
  S  S44  1  0.13512942  0.86468858  0.31646441  1
  S  S45  1  0.64234942  0.36805881  0.23574903  1
  S  S46  1  0.65092684  0.87428675  0.31757490  1
  S  S47  1  0.22796635  0.22928590  0.31976717  1
  S  S48  1  0.23285265  0.72546245  0.23456383  1
  S  S49  1  0.58392548  0.07363810  0.36002946  1
  S  S50  1  0.35245231  0.70297122  0.40914777  1
  S  S51  1  0.56768332  0.58522284  0.35714868  1
  S  S52  1  0.09070109  0.39375967  0.40359585  1
  S  S53  1  0.64473412  0.57416820  0.43468890  1
  Cl  Cl54  1  0.96858482  0.43157849  0.15663069  1
  Cl  Cl55  1  0.86403259  0.92507941  0.07080578  1
  Cl  Cl56  1  0.90867923  0.42541181  0.31510411  1
  Cl  Cl57  1  0.94373293  0.94729532  0.23532296  1
  Cl  Cl58  1  0.98310803  0.93291029  0.39739496  1
