# generated using pymatgen
data_Li128P21S105Cl23
_symmetry_space_group_name_H-M   'P 1'
_cell_length_a   10.60410300
_cell_length_b   24.76865600
_cell_length_c   40.68900700
_cell_angle_alpha   90.00000000
_cell_angle_beta   90.00000000
_cell_angle_gamma   90.00000000
_symmetry_Int_Tables_number   1
_chemical_formula_structural   Li128P21S105Cl23
_chemical_formula_sum   'Li128 P21 S105 Cl23'
_cell_volume   10686.94243677
_cell_formula_units_Z   1
loop_
 _symmetry_equiv_pos_site_id
 _symmetry_equiv_pos_as_xyz
  1  'x, y, z'
loop_
 _atom_site_type_symbol
 _atom_site_label
 _atom_site_symmetry_multiplicity
 _atom_site_fract_x
 _atom_site_fract_y
 _atom_site_fract_z
 _atom_site_occupancy
  Li  Li0  1  0.79827926  0.18903738  0.11082015  1
  Li  Li1  1  0.79955471  0.57888344  0.13737824  1
  Li  Li2  1  0.60190306  0.82233489  0.02408835  1
  Li  Li3  1  0.82217792  0.36331051  0.09356585  1
  Li  Li4  1  0.82043226  0.75353916  0.12707340  1
  Li  Li5  1  0.76902302  0.32501795  0.03723478  1
  Li  Li6  1  0.72089592  0.65890195  0.07633247  1
  Li  Li7  1  0.75845653  0.04863182  0.12124783  1
  Li  Li8  1  0.72517826  0.27870242  0.14656610  1
  Li  Li9  1  0.89968902  0.47501344  0.04206873  1
  Li  Li10  1  0.88454443  0.89530069  0.06039966  1
  Li  Li11  1  0.32075116  0.37581481  0.10829766  1
  Li  Li12  1  0.12077487  0.02262978  0.04727376  1
  Li  Li13  1  0.30212132  0.17859009  0.06516315  1
  Li  Li14  1  0.30078796  0.56135339  0.10898437  1
  Li  Li15  1  0.46566784  0.09964411  0.04963630  1
  Li  Li16  1  0.23146735  0.48307029  0.04791455  1
  Li  Li17  1  0.29519871  0.88365619  0.10416720  1
  Li  Li18  1  0.46034177  0.28209695  0.01156755  1
  Li  Li19  1  0.38816320  0.66405707  0.06025739  1
  Li  Li20  1  0.32421105  0.03731994  0.11024003  1
  Li  Li21  1  0.09175254  0.09297991  0.10557251  1
  Li  Li22  1  0.04803148  0.50167271  0.13093207  1
  Li  Li23  1  0.02925845  0.69910488  0.06858377  1
  Li  Li24  1  0.07944834  0.40246396  0.09213221  1
  Li  Li25  1  0.02401998  0.84950260  0.13387557  1
  Li  Li26  1  0.55306297  0.32437496  0.09771829  1
  Li  Li27  1  0.47914901  0.48750672  0.08072590  1
  Li  Li28  1  0.58333892  0.89381687  0.07787002  1
  Li  Li29  1  0.58456781  0.21598667  0.06941385  1
  Li  Li30  1  0.52341415  0.63410170  0.12295114  1
  Li  Li31  1  0.82517892  0.34961603  0.23421733  1
  Li  Li32  1  0.82518307  0.73368973  0.28136544  1
  Li  Li33  1  0.84154676  0.95713792  0.17988004  1
  Li  Li34  1  0.82500605  0.52733880  0.23004068  1
  Li  Li35  1  0.82535160  0.90658059  0.27547442  1
  Li  Li36  1  0.83572763  0.12566976  0.17916292  1
  Li  Li37  1  0.78989116  0.46158211  0.17793032  1
  Li  Li38  1  0.75632207  0.83132151  0.22207624  1
  Li  Li39  1  0.75480209  0.21580611  0.26741371  1
  Li  Li40  1  0.75229628  0.42335527  0.28983702  1
  Li  Li41  1  0.73746411  0.65599560  0.19203682  1
  Li  Li42  1  0.77933134  0.02094077  0.23532206  1
  Li  Li43  1  0.25233670  0.53575786  0.23953342  1
  Li  Li44  1  0.19926179  0.76547182  0.13391752  1
  Li  Li45  1  0.25877964  0.14827412  0.19171219  1
  Li  Li46  1  0.26634526  0.32886785  0.22103588  1
  Li  Li47  1  0.26182162  0.71854074  0.26648077  1
  Li  Li48  1  0.28745233  0.94447776  0.16252310  1
  Li  Li49  1  0.31835707  0.27536069  0.15685652  1
  Li  Li50  1  0.32511452  0.66381632  0.20467597  1
  Li  Li51  1  0.33179236  0.04676737  0.25472704  1
  Li  Li52  1  0.30349519  0.43991227  0.16199833  1
  Li  Li53  1  0.33095744  0.81435975  0.20291248  1
  Li  Li54  1  0.33740171  0.20178124  0.25418586  1
  Li  Li55  1  0.07008869  0.24519831  0.24921472  1
  Li  Li56  1  0.06491135  0.63334432  0.29360944  1
  Li  Li57  1  0.07502264  0.86200369  0.20219446  1
  Li  Li58  1  0.03787277  0.22565674  0.17929658  1
  Li  Li59  1  0.05551725  0.62246223  0.21444759  1
  Li  Li60  1  0.06548947  0.00506307  0.26430517  1
  Li  Li61  1  0.56785066  0.49848716  0.25096470  1
  Li  Li62  1  0.55929523  0.73480288  0.15221895  1
  Li  Li63  1  0.54805999  0.08028004  0.20080806  1
  Li  Li64  1  0.55033174  0.39979941  0.21229598  1
  Li  Li65  1  0.55828213  0.76424498  0.26230271  1
  Li  Li66  1  0.57058563  0.97988332  0.16382075  1
  Li  Li67  1  0.83623773  0.51260540  0.37760626  1
  Li  Li68  1  0.82152577  0.88517811  0.43092444  1
  Li  Li69  1  0.82878113  0.11185356  0.32697516  1
  Li  Li70  1  0.83790996  0.68220630  0.37701754  1
  Li  Li71  1  0.80326392  0.05952445  0.42000305  1
  Li  Li72  1  0.82697248  0.28925216  0.32285191  1
  Li  Li73  1  0.78021288  0.61856481  0.32174960  1
  Li  Li74  1  0.74009948  0.98290460  0.36540275  1
  Li  Li75  1  0.72031151  0.35869640  0.40974418  1
  Li  Li76  1  0.75835151  0.59063332  0.43537402  1
  Li  Li77  1  0.75501744  0.80787081  0.33527796  1
  Li  Li78  1  0.79218525  0.17696279  0.37918508  1
  Li  Li79  1  0.28732159  0.69472495  0.39425337  1
  Li  Li80  1  0.26211290  0.91997080  0.29030861  1
  Li  Li81  1  0.26266056  0.30913976  0.33488718  1
  Li  Li82  1  0.25873424  0.49062255  0.36460757  1
  Li  Li83  1  0.20111085  0.87346708  0.42313737  1
  Li  Li84  1  0.25536478  0.10252584  0.31763361  1
  Li  Li85  1  0.33379610  0.43674959  0.30226390  1
  Li  Li86  1  0.33121491  0.82456173  0.35417781  1
  Li  Li87  1  0.30472558  0.19807312  0.39524106  1
  Li  Li88  1  0.32891771  0.59151655  0.30215119  1
  Li  Li89  1  0.32954660  0.97549659  0.35210936  1
  Li  Li90  1  0.32040326  0.36313438  0.39929869  1
  Li  Li91  1  0.03789285  0.41276407  0.37767084  1
  Li  Li92  1  0.02229114  0.79051962  0.42284735  1
  Li  Li93  1  0.05900362  0.01608205  0.34348739  1
  Li  Li94  1  0.06785600  0.39336116  0.30773351  1
  Li  Li95  1  0.07466193  0.77717346  0.35449261  1
  Li  Li96  1  0.05097035  0.13778718  0.42680831  1
  Li  Li97  1  0.56983663  0.65888797  0.39328264  1
  Li  Li98  1  0.55939750  0.87601183  0.29470604  1
  Li  Li99  1  0.55027396  0.23926133  0.34509588  1
  Li  Li100  1  0.54728148  0.55894295  0.35576912  1
  Li  Li101  1  0.56104881  0.90379591  0.40514622  1
  Li  Li102  1  0.57052983  0.14001881  0.30618179  1
  Li  Li103  1  0.82319403  0.27571517  0.46366026  1
  Li  Li104  1  0.60231904  0.81632547  0.53327053  1
  Li  Li105  1  0.79714943  0.44922329  0.44517870  1
  Li  Li106  1  0.88130352  0.74200052  0.49687978  1
  Li  Li107  1  0.89826121  0.16420940  0.51475793  1
  Li  Li108  1  0.72376060  0.97999730  0.48124795  1
  Li  Li109  1  0.76891974  0.31418704  0.51944716  1
  Li  Li110  1  0.30408528  0.07696115  0.44832941  1
  Li  Li111  1  0.30050933  0.46040036  0.49126926  1
  Li  Li112  1  0.12103088  0.61689948  0.50927733  1
  Li  Li113  1  0.32114708  0.26280917  0.44859833  1
  Li  Li114  1  0.32370754  0.60140003  0.44657482  1
  Li  Li115  1  0.38986892  0.97468466  0.49701534  1
  Li  Li116  1  0.45889150  0.35697698  0.54503852  1
  Li  Li117  1  0.29553412  0.75534292  0.45272228  1
  Li  Li118  1  0.23312530  0.15713919  0.50987373  1
  Li  Li119  1  0.46436332  0.53930196  0.50739649  1
  Li  Li120  1  0.08081078  0.23720156  0.46504323  1
  Li  Li121  1  0.08974321  0.54643633  0.45100943  1
  Li  Li122  1  0.03270091  0.94014439  0.48920488  1
  Li  Li123  1  0.52585293  0.00462868  0.43449167  1
  Li  Li124  1  0.58271791  0.42257087  0.48663571  1
  Li  Li125  1  0.58076457  0.74489266  0.47981375  1
  Li  Li126  1  0.47974374  0.15147871  0.47727156  1
  Li  Li127  1  0.55418948  0.31247990  0.45975708  1
  P  P128  1  0.52045204  0.15895569  0.13282526  1
  P  P129  1  0.50898012  0.39175032  0.03682482  1
  P  P130  1  0.49688382  0.77129400  0.08494046  1
  P  P131  1  0.00505381  0.58356849  0.05732143  1
  P  P132  1  0.01601796  0.97460702  0.10638061  1
  P  P133  1  0.52593628  0.31935669  0.27862579  1
  P  P134  1  0.51372528  0.54497163  0.18285341  1
  P  P135  1  0.51869079  0.93169096  0.22972859  1
  P  P136  1  0.02774243  0.35798826  0.16055233  1
  P  P137  1  0.01500982  0.74184396  0.20580913  1
  P  P138  1  0.02333857  0.12463113  0.25304387  1
  P  P139  1  0.51953190  0.47998543  0.42377441  1
  P  P140  1  0.51836406  0.70710524  0.32706349  1
  P  P141  1  0.51661425  0.09390001  0.37437311  1
  P  P142  1  0.02120383  0.51400804  0.30381689  1
  P  P143  1  0.01593591  0.89723171  0.35121552  1
  P  P144  1  0.02815221  0.28061498  0.39661036  1
  P  P145  1  0.49793120  0.86735289  0.47223555  1
  P  P146  1  0.51075075  0.24674282  0.52087901  1
  P  P147  1  0.01486503  0.66504246  0.45025665  1
  P  P148  1  0.00738081  0.05557326  0.50026257  1
  S  S149  1  0.62390540  0.12264723  0.09484567  1
  S  S150  1  0.60486012  0.35190603  0.00013755  1
  S  S151  1  0.57874204  0.72510765  0.04841684  1
  S  S152  1  0.62756083  0.41416169  0.07522078  1
  S  S153  1  0.61998645  0.80867143  0.11661078  1
  S  S154  1  0.12956024  0.31835406  0.12475183  1
  S  S155  1  0.06592382  0.53277577  0.02100723  1
  S  S156  1  0.11629323  0.93135938  0.07203218  1
  S  S157  1  0.15142881  0.62193266  0.08212624  1
  S  S158  1  0.41379188  0.21985980  0.11197283  1
  S  S159  1  0.42458997  0.45910115  0.02012457  1
  S  S160  1  0.39099436  0.82791233  0.06166338  1
  S  S161  1  0.38208327  0.33494983  0.05667391  1
  S  S162  1  0.38474094  0.71721285  0.11207772  1
  S  S163  1  0.91903261  0.41582647  0.13617128  1
  S  S164  1  0.89337541  0.64302522  0.03808940  1
  S  S165  1  0.92541418  0.03584947  0.08117501  1
  S  S166  1  0.89911668  0.53542661  0.08933065  1
  S  S167  1  0.88075812  0.92346676  0.12536235  1
  S  S168  1  0.25773831  0.08882824  0.06497937  1
  S  S169  1  0.24894274  0.46715088  0.10649936  1
  S  S170  1  0.74349079  0.27474527  0.08817007  1
  S  S171  1  0.72228472  0.66823922  0.13566975  1
  S  S172  1  0.70556171  0.89875837  0.03288373  1
  S  S173  1  0.63026881  0.28698046  0.24115631  1
  S  S174  1  0.62045100  0.51022854  0.14693682  1
  S  S175  1  0.62216631  0.89548584  0.19333732  1
  S  S176  1  0.64662999  0.19069215  0.16565988  1
  S  S177  1  0.61621617  0.58320170  0.21893055  1
  S  S178  1  0.62355763  0.96601088  0.26659539  1
  S  S179  1  0.12443683  0.47045509  0.27046596  1
  S  S180  1  0.11751979  0.69612566  0.17372098  1
  S  S181  1  0.12978478  0.07997899  0.22110577  1
  S  S182  1  0.13422739  0.39661076  0.19464308  1
  S  S183  1  0.12470724  0.78445111  0.23851235  1
  S  S184  1  0.12580691  0.00989334  0.14215856  1
  S  S185  1  0.40837825  0.37731103  0.25786542  1
  S  S186  1  0.38208384  0.59689194  0.16288557  1
  S  S187  1  0.40839112  0.99104908  0.20776077  1
  S  S188  1  0.40946374  0.48529839  0.20711891  1
  S  S189  1  0.39995474  0.87486691  0.25067533  1
  S  S190  1  0.40646895  0.10274061  0.15497708  1
  S  S191  1  0.90194093  0.56781470  0.28028940  1
  S  S192  1  0.90305454  0.79826098  0.18130048  1
  S  S193  1  0.91089162  0.17980310  0.22761122  1
  S  S194  1  0.90258000  0.30502897  0.18277928  1
  S  S195  1  0.89657925  0.68955316  0.23107223  1
  S  S196  1  0.90359915  0.07104701  0.27666568  1
  S  S197  1  0.23556812  0.23890551  0.20671076  1
  S  S198  1  0.23151318  0.62717507  0.25381809  1
  S  S199  1  0.22483931  0.85440266  0.15784979  1
  S  S200  1  0.73965570  0.43912598  0.23316258  1
  S  S201  1  0.73358325  0.81994613  0.27866074  1
  S  S202  1  0.73715349  0.04111201  0.17939677  1
  S  S203  1  0.64593857  0.44807376  0.39101697  1
  S  S204  1  0.62360189  0.67316038  0.29021203  1
  S  S205  1  0.61898263  0.05549898  0.33833913  1
  S  S206  1  0.62998892  0.35170954  0.31613096  1
  S  S207  1  0.62195531  0.74311764  0.36358549  1
  S  S208  1  0.62333073  0.12853312  0.41026338  1
  S  S209  1  0.12479467  0.62968812  0.41451000  1
  S  S210  1  0.12524970  0.85464860  0.31843544  1
  S  S211  1  0.13465580  0.24167927  0.36260539  1
  S  S212  1  0.12783629  0.55853670  0.33582095  1
  S  S213  1  0.11939019  0.94249106  0.38334435  1
  S  S214  1  0.12736474  0.16808136  0.28631367  1
  S  S215  1  0.40599934  0.53632665  0.40156536  1
  S  S216  1  0.39905328  0.76389264  0.30634375  1
  S  S217  1  0.41152597  0.15332407  0.35007123  1
  S  S218  1  0.40801654  0.64775181  0.34904336  1
  S  S219  1  0.38513511  0.04183910  0.39437255  1
  S  S220  1  0.40859635  0.26120892  0.29918801  1
  S  S221  1  0.87936542  0.71621820  0.43141144  1
  S  S222  1  0.89850126  0.95002218  0.32602691  1
  S  S223  1  0.90256818  0.33342238  0.37444587  1
  S  S224  1  0.90949962  0.45869265  0.32931010  1
  S  S225  1  0.90308788  0.84101701  0.37564722  1
  S  S226  1  0.92016381  0.22285710  0.42123124  1
  S  S227  1  0.23455643  0.39942223  0.34982112  1
  S  S228  1  0.22416841  0.78474374  0.39917294  1
  S  S229  1  0.23400085  0.01142057  0.30332958  1
  S  S230  1  0.73673017  0.59751562  0.37739094  1
  S  S231  1  0.72469378  0.97045878  0.42176859  1
  S  S232  1  0.74059402  0.19980732  0.32412527  1
  S  S233  1  0.62112027  0.82977124  0.44071116  1
  S  S234  1  0.63065917  0.22391299  0.48280341  1
  S  S235  1  0.62304805  0.51606572  0.46177148  1
  S  S236  1  0.58012143  0.91340766  0.50875177  1
  S  S237  1  0.60532392  0.28780077  0.55720000  1
  S  S238  1  0.15454932  0.01713974  0.47575393  1
  S  S239  1  0.11502358  0.70814139  0.48469269  1
  S  S240  1  0.06638143  0.10717803  0.53634193  1
  S  S241  1  0.13089182  0.32059676  0.43209388  1
  S  S242  1  0.38644009  0.92164106  0.44509241  1
  S  S243  1  0.38287448  0.30267309  0.50046531  1
  S  S244  1  0.39111476  0.81099786  0.49549318  1
  S  S245  1  0.42704613  0.17934200  0.53778853  1
  S  S246  1  0.41216731  0.41916760  0.44444142  1
  S  S247  1  0.90149424  0.10302648  0.46783457  1
  S  S248  1  0.92434732  0.60373148  0.47542688  1
  S  S249  1  0.89608999  0.99600696  0.51954385  1
  S  S250  1  0.25636930  0.55009611  0.49167679  1
  S  S251  1  0.25112504  0.17160487  0.45098553  1
  S  S252  1  0.70309486  0.73913968  0.52471300  1
  S  S253  1  0.74213481  0.36369420  0.46822936  1
  Cl  Cl254  1  0.98321294  0.16088563  0.13750811  1
  Cl  Cl255  1  0.95167431  0.38306240  0.04612015  1
  Cl  Cl256  1  0.00912639  0.77778519  0.09637198  1
  Cl  Cl257  1  0.46497979  0.19056129  0.02311068  1
  Cl  Cl258  1  0.48721235  0.58322638  0.07477239  1
  Cl  Cl259  1  0.45209218  0.95858524  0.11610098  1
  Cl  Cl260  1  0.97211527  0.31910709  0.27854511  1
  Cl  Cl261  1  0.95186182  0.54797532  0.18199501  1
  Cl  Cl262  1  0.95935598  0.93610744  0.22996621  1
  Cl  Cl263  1  0.46233778  0.35398320  0.15356035  1
  Cl  Cl264  1  0.47584396  0.73888663  0.20828393  1
  Cl  Cl265  1  0.47498721  0.12345380  0.25259375  1
  Cl  Cl266  1  0.98305198  0.47793354  0.41927284  1
  Cl  Cl267  1  0.95805400  0.70253131  0.32703810  1
  Cl  Cl268  1  0.95439104  0.09104766  0.37524714  1
  Cl  Cl269  1  0.47203202  0.51476724  0.30428573  1
  Cl  Cl270  1  0.47763866  0.89962237  0.34902868  1
  Cl  Cl271  1  0.46547275  0.28471419  0.40380921  1
  Cl  Cl272  1  0.01115876  0.86196041  0.46076027  1
  Cl  Cl273  1  0.95279648  0.25633066  0.51103600  1
  Cl  Cl274  1  0.45134379  0.68040100  0.44092954  1
  Cl  Cl275  1  0.49036680  0.05553841  0.48264596  1
  Cl  Cl276  1  0.46344794  0.44814173  0.53325614  1
