# generated using pymatgen
data_Li28P5S24Cl5
_symmetry_space_group_name_H-M   'P 1'
_cell_length_a   9.80533700
_cell_length_b   7.22029003
_cell_length_c   44.07776800
_cell_angle_alpha   90.00000000
_cell_angle_beta   90.00000000
_cell_angle_gamma   47.23346674
_symmetry_Int_Tables_number   1
_chemical_formula_structural   Li28P5S24Cl5
_chemical_formula_sum   'Li28 P5 S24 Cl5'
_cell_volume   2290.90840188
_cell_formula_units_Z   1
loop_
 _symmetry_equiv_pos_site_id
 _symmetry_equiv_pos_as_xyz
  1  'x, y, z'
loop_
 _atom_site_type_symbol
 _atom_site_label
 _atom_site_symmetry_multiplicity
 _atom_site_fract_x
 _atom_site_fract_y
 _atom_site_fract_z
 _atom_site_occupancy
  Li  Li0  1  0.53347759  0.80202507  0.03246329  1
  Li  Li1  1  0.21605268  0.43639943  0.04277482  1
  Li  Li2  1  0.86497623  0.63724630  0.08396893  1
  Li  Li3  1  0.27322412  0.65235584  0.11300576  1
  Li  Li4  1  0.48677214  0.15523421  0.09376445  1
  Li  Li5  1  0.83334655  0.06220760  0.04024634  1
  Li  Li6  1  0.14226847  0.41951083  0.15009886  1
  Li  Li7  1  0.54932568  0.61915803  0.15778993  1
  Li  Li8  1  0.38416438  0.55308488  0.20548955  1
  Li  Li9  1  0.65427149  0.80310764  0.21193532  1
  Li  Li10  1  0.98866549  0.18182396  0.19747222  1
  Li  Li11  1  0.18300191  0.11858130  0.10002409  1
  Li  Li12  1  0.64245624  0.56200112  0.26042116  1
  Li  Li13  1  0.04904282  0.60244138  0.26805392  1
  Li  Li14  1  0.85333940  0.59944610  0.31307663  1
  Li  Li15  1  0.31788555  0.58451416  0.32547568  1
  Li  Li16  1  0.42749849  0.09322718  0.29804051  1
  Li  Li17  1  0.78266570  0.07363276  0.22411714  1
  Li  Li18  1  0.10025729  0.61728758  0.36966376  1
  Li  Li19  1  0.54844091  0.59007197  0.38135401  1
  Li  Li20  1  0.34273815  0.57843852  0.42357603  1
  Li  Li21  1  0.76373610  0.65234416  0.44419491  1
  Li  Li22  1  0.97156652  0.16542894  0.42168051  1
  Li  Li23  1  0.23129310  0.09706758  0.34013758  1
  Li  Li24  1  0.58814845  0.42615784  0.48738300  1
  Li  Li25  1  0.91410418  0.81569732  0.49906167  1
  Li  Li26  1  0.40320770  0.94875311  0.46670923  1
  Li  Li27  1  0.74388580  0.08272327  0.43910354  1
  P  P28  1  0.16021501  0.98830990  0.03758018  1
  P  P29  1  0.64350697  0.02173626  0.15389862  1
  P  P30  1  0.12005557  0.04483607  0.26508735  1
  P  P31  1  0.59420776  0.04253302  0.37462623  1
  P  P32  1  0.08498601  0.02708133  0.48914803  1
  S  S33  1  0.92235657  0.26135358  0.06334552  1
  S  S34  1  0.23359012  0.13694859  0.01045943  1
  S  S35  1  0.11193691  0.79976989  0.01253092  1
  S  S36  1  0.37894450  0.74324875  0.06808905  1
  S  S37  1  0.16269598  0.46371477  0.09714667  1
  S  S38  1  0.42107451  0.20837162  0.18358655  1
  S  S39  1  0.62810310  0.26462455  0.12657076  1
  S  S40  1  0.64273128  0.79231155  0.12606936  1
  S  S41  1  0.87710107  0.79063466  0.18093867  1
  S  S42  1  0.65596981  0.47624869  0.20845871  1
  S  S43  1  0.89786711  0.23768671  0.29366173  1
  S  S44  1  0.13951874  0.24821215  0.23686248  1
  S  S45  1  0.11111019  0.82024201  0.23678810  1
  S  S46  1  0.35815428  0.81032142  0.29188918  1
  S  S47  1  0.14407358  0.47349686  0.31897887  1
  S  S48  1  0.36651302  0.24448338  0.40239858  1
  S  S49  1  0.62362201  0.24712149  0.34881420  1
  S  S50  1  0.58182853  0.82344723  0.34605769  1
  S  S51  1  0.83290670  0.78653502  0.40046518  1
  S  S52  1  0.61495903  0.50377203  0.43448961  1
  S  S53  1  0.87204069  0.17210338  0.51823618  1
  S  S54  1  0.06684633  0.28865061  0.46397547  1
  S  S55  1  0.07744925  0.81612109  0.45711534  1
  S  S56  1  0.33015029  0.81574377  0.51146813  1
  Cl  Cl57  1  0.65053896  0.97795513  0.04784743  1
  Cl  Cl58  1  0.19338093  0.96643689  0.15117844  1
  Cl  Cl59  1  0.69092203  0.89334453  0.26340678  1
  Cl  Cl60  1  0.18288333  0.88691542  0.37743165  1
  Cl  Cl61  1  0.62158471  0.00259358  0.47889309  1
