# generated using pymatgen
data_Li28P3S19Cl5
_symmetry_space_group_name_H-M   'P 1'
_cell_length_a   7.09032400
_cell_length_b   12.75376234
_cell_length_c   40.63729300
_cell_angle_alpha   90.00000000
_cell_angle_beta   90.00000000
_cell_angle_gamma   123.77546983
_symmetry_Int_Tables_number   1
_chemical_formula_structural   Li28P3S19Cl5
_chemical_formula_sum   'Li28 P3 S19 Cl5'
_cell_volume   3054.54476270
_cell_formula_units_Z   1
loop_
 _symmetry_equiv_pos_site_id
 _symmetry_equiv_pos_as_xyz
  1  'x, y, z'
loop_
 _atom_site_type_symbol
 _atom_site_label
 _atom_site_symmetry_multiplicity
 _atom_site_fract_x
 _atom_site_fract_y
 _atom_site_fract_z
 _atom_site_occupancy
  Li  Li0  1  0.52366017  0.72606817  0.09770070  1
  Li  Li1  1  0.56704817  0.25214848  0.12376890  1
  Li  Li2  1  0.44063851  0.42422717  0.10155991  1
  Li  Li3  1  0.34149502  0.39513161  0.03766766  1
  Li  Li4  1  0.88725497  0.48656095  0.05358296  1
  Li  Li5  1  0.86450299  0.29298470  0.07501668  1
  Li  Li6  1  0.13350102  0.93799287  0.16281805  1
  Li  Li7  1  0.63406466  0.25509672  0.02034289  1
  Li  Li8  1  0.72294668  0.96198964  0.16427517  1
  Li  Li9  1  0.47028971  0.13091170  0.20362585  1
  Li  Li10  1  0.55506439  0.73600104  0.35154254  1
  Li  Li11  1  0.87334377  0.21354006  0.26877906  1
  Li  Li12  1  0.84411052  0.67790951  0.11482189  1
  Li  Li13  1  0.54205215  0.29640229  0.26896820  1
  Li  Li14  1  0.58781605  0.70450481  0.18717370  1
  Li  Li15  1  0.94088288  0.25980363  0.18269786  1
  Li  Li16  1  0.79270487  0.69052853  0.27075605  1
  Li  Li17  1  0.16019775  0.49009058  0.24160934  1
  Li  Li18  1  0.19555249  0.97042519  0.28966064  1
  Li  Li19  1  0.78280578  0.48475793  0.20717881  1
  Li  Li20  1  0.72834645  0.94090920  0.28932852  1
  Li  Li21  1  0.84370761  0.23946691  0.34053090  1
  Li  Li22  1  0.94537330  0.72381062  0.35185067  1
  Li  Li23  1  0.24946165  0.51667740  0.40989570  1
  Li  Li24  1  0.35654086  0.40254830  0.35182425  1
  Li  Li25  1  0.79054272  0.58045510  0.43672437  1
  Li  Li26  1  0.93150736  0.29714656  0.43951912  1
  Li  Li27  1  0.86336043  0.41171126  0.38814056  1
  P  P28  1  0.02051034  0.52574757  0.14008602  1
  P  P29  1  0.01531989  0.51419822  0.31392502  1
  P  P30  1  0.01108615  0.02782304  0.22651513  1
  S  S31  1  0.68142114  0.45718420  0.14868711  1
  S  S32  1  0.05043061  0.37465267  0.13018144  1
  S  S33  1  0.01097154  0.37227116  0.02451699  1
  S  S34  1  0.12719755  0.64040265  0.09933137  1
  S  S35  1  0.50381522  0.29114591  0.06867128  1
  S  S36  1  0.78177809  0.81795292  0.13957942  1
  S  S37  1  0.67707432  0.37847808  0.32658610  1
  S  S38  1  0.66690155  0.91678649  0.22708930  1
  S  S39  1  0.16367559  0.41728671  0.30291649  1
  S  S40  1  0.15728269  0.92699297  0.22632707  1
  S  S41  1  0.12436112  0.13774793  0.26910923  1
  S  S42  1  0.17795446  0.62147492  0.18206479  1
  S  S43  1  0.12633395  0.13996506  0.18496520  1
  S  S44  1  0.06333663  0.62300781  0.27448110  1
  S  S45  1  0.78347464  0.30547852  0.22750126  1
  S  S46  1  0.84517909  0.82102029  0.31515026  1
  S  S47  1  0.14881153  0.62148788  0.35666795  1
  S  S48  1  0.95171940  0.47890161  0.44413787  1
  S  S49  1  0.05983989  0.30156843  0.38806694  1
  Cl  Cl50  1  0.53687520  0.07111997  0.15080127  1
  Cl  Cl51  1  0.60744628  0.60256826  0.06647157  1
  Cl  Cl52  1  0.58424287  0.06234137  0.30731885  1
  Cl  Cl53  1  0.55203017  0.55741900  0.22854583  1
  Cl  Cl54  1  0.65105515  0.64405943  0.39563318  1
