# generated using pymatgen
data_Li44P6S33Cl8
_symmetry_space_group_name_H-M   'P 1'
_cell_length_a   10.60410300
_cell_length_b   21.51103300
_cell_length_c   40.15794400
_cell_angle_alpha   90.00000000
_cell_angle_beta   90.00000000
_cell_angle_gamma   90.00000000
_symmetry_Int_Tables_number   1
_chemical_formula_structural   Li44P6S33Cl8
_chemical_formula_sum   'Li88 P12 S66 Cl16'
_cell_volume   9160.23623196
_cell_formula_units_Z   2
loop_
 _symmetry_equiv_pos_site_id
 _symmetry_equiv_pos_as_xyz
  1  'x, y, z'
loop_
 _atom_site_type_symbol
 _atom_site_label
 _atom_site_symmetry_multiplicity
 _atom_site_fract_x
 _atom_site_fract_y
 _atom_site_fract_z
 _atom_site_occupancy
  Li  Li0  1  0.76691492  0.14224358  0.13042778  1
  Li  Li1  1  0.61857170  0.48602043  0.04169589  1
  Li  Li2  1  0.80873073  0.85059163  0.16123006  1
  Li  Li3  1  0.79562857  0.35326617  0.13282642  1
  Li  Li4  1  0.92834403  0.61550440  0.07716170  1
  Li  Li5  1  0.98645304  0.25559762  0.11006221  1
  Li  Li6  1  0.64712824  0.65185822  0.05741535  1
  Li  Li7  1  0.79495423  0.00004085  0.12785389  1
  Li  Li8  1  0.82440913  0.48470948  0.10356827  1
  Li  Li9  1  0.83445831  0.76361680  0.05649194  1
  Li  Li10  1  0.30844101  0.35023026  0.16148523  1
  Li  Li11  1  0.26730079  0.64169206  0.12949867  1
  Li  Li12  1  0.11948611  0.98609539  0.04166519  1
  Li  Li13  1  0.42718235  0.11654607  0.07757056  1
  Li  Li14  1  0.29556724  0.85239799  0.13229108  1
  Li  Li15  1  0.14685150  0.15175360  0.05736975  1
  Li  Li16  1  0.29654267  0.49923506  0.12816608  1
  Li  Li17  1  0.48702822  0.75663214  0.10937550  1
  Li  Li18  1  0.33446612  0.26368877  0.05661807  1
  Li  Li19  1  0.32487287  0.98457457  0.10348379  1
  Li  Li20  1  0.08003957  0.03711420  0.10837257  1
  Li  Li21  1  0.15835132  0.35135354  0.08106139  1
  Li  Li22  1  0.03457706  0.73996702  0.11014149  1
  Li  Li23  1  0.04014112  0.43342679  0.14914951  1
  Li  Li24  1  0.19967345  0.77137531  0.06313858  1
  Li  Li25  1  0.53344825  0.24104171  0.11071852  1
  Li  Li26  1  0.57962407  0.53748726  0.10820468  1
  Li  Li27  1  0.65907845  0.85131234  0.08097232  1
  Li  Li28  1  0.70047311  0.27194739  0.06406312  1
  Li  Li29  1  0.53996914  0.93332764  0.14910402  1
  Li  Li30  1  0.80384668  0.25687296  0.27320729  1
  Li  Li31  1  0.77526857  0.55125804  0.21482712  1
  Li  Li32  1  0.79215382  0.95071912  0.33532913  1
  Li  Li33  1  0.80572366  0.45395439  0.30582960  1
  Li  Li34  1  0.77693029  0.75167920  0.25307171  1
  Li  Li35  1  0.81730603  0.04574220  0.19456185  1
  Li  Li36  1  0.78972378  0.41149788  0.24116703  1
  Li  Li37  1  0.82250317  0.70828511  0.18901146  1
  Li  Li38  1  0.71315504  0.06927838  0.29081274  1
  Li  Li39  1  0.71831312  0.23279095  0.17777590  1
  Li  Li40  1  0.79724811  0.59700497  0.27977231  1
  Li  Li41  1  0.79515685  0.89355083  0.22554295  1
  Li  Li42  1  0.29252616  0.45076392  0.33542902  1
  Li  Li43  1  0.30188524  0.75689742  0.27238917  1
  Li  Li44  1  0.27480469  0.05187216  0.21454975  1
  Li  Li45  1  0.27604486  0.25167274  0.25355458  1
  Li  Li46  1  0.31691188  0.54613022  0.19459949  1
  Li  Li47  1  0.30556227  0.95394623  0.30581270  1
  Li  Li48  1  0.32272618  0.20835721  0.18920468  1
  Li  Li49  1  0.21340579  0.56930576  0.29077094  1
  Li  Li50  1  0.29054736  0.91188657  0.24109820  1
  Li  Li51  1  0.29503204  0.39386808  0.22592874  1
  Li  Li52  1  0.22085369  0.73213945  0.17670993  1
  Li  Li53  1  0.29934762  0.09686256  0.27966995  1
  Li  Li54  1  0.02793335  0.16200460  0.26348385  1
  Li  Li55  1  0.04027300  0.46801805  0.21047504  1
  Li  Li56  1  0.03926410  0.87089236  0.31789768  1
  Li  Li57  1  0.05679357  0.16107753  0.19104484  1
  Li  Li58  1  0.03178128  0.56273492  0.35678120  1
  Li  Li59  1  0.03798932  0.83986292  0.25680311  1
  Li  Li60  1  0.54060152  0.37241358  0.31800181  1
  Li  Li61  1  0.52768188  0.66311293  0.26332736  1
  Li  Li62  1  0.54119547  0.96774940  0.21040062  1
  Li  Li63  1  0.53782442  0.33943559  0.25725224  1
  Li  Li64  1  0.55725863  0.66047084  0.19085104  1
  Li  Li65  1  0.53143660  0.06310338  0.35734888  1
  Li  Li66  1  0.92630041  0.68886118  0.38919702  1
  Li  Li67  1  0.61540804  0.81693832  0.42503595  1
  Li  Li68  1  0.76734895  0.16129965  0.33645563  1
  Li  Li69  1  0.83319173  0.53998408  0.41039347  1
  Li  Li70  1  0.82046098  0.81920037  0.36225986  1
  Li  Li71  1  0.79776142  0.30381629  0.33855395  1
  Li  Li72  1  0.64601117  0.65187960  0.40839830  1
  Li  Li73  1  0.98509578  0.04682194  0.35768261  1
  Li  Li74  1  0.42779918  0.18861906  0.38960431  1
  Li  Li75  1  0.11706828  0.31734989  0.42536525  1
  Li  Li76  1  0.26701176  0.66138454  0.33641726  1
  Li  Li77  1  0.32262932  0.31877791  0.36271185  1
  Li  Li78  1  0.33297308  0.03978867  0.41090819  1
  Li  Li79  1  0.48552922  0.54783704  0.35769074  1
  Li  Li80  1  0.29843074  0.80332103  0.33794137  1
  Li  Li81  1  0.14610664  0.15174928  0.40815826  1
  Li  Li82  1  0.19761028  0.53217184  0.40397223  1
  Li  Li83  1  0.07755650  0.26662986  0.35836389  1
  Li  Li84  1  0.15471292  0.95187855  0.38623307  1
  Li  Li85  1  0.69756505  0.03191975  0.40414744  1
  Li  Li86  1  0.65457717  0.45210303  0.38657467  1
  Li  Li87  1  0.57595153  0.76722703  0.35771962  1
  P  P88  1  0.51567010  0.09641874  0.15001474  1
  P  P89  1  0.51369266  0.40315825  0.08995086  1
  P  P90  1  0.01548119  0.59623923  0.14983522  1
  P  P91  1  0.01441305  0.90284598  0.08978571  1
  P  P92  1  0.51383016  0.20678872  0.31700456  1
  P  P93  1  0.50792368  0.50228035  0.26355939  1
  P  P94  1  0.51140630  0.80206437  0.20454246  1
  P  P95  1  0.01128925  0.30219482  0.20501377  1
  P  P96  1  0.01325737  0.70655757  0.31671781  1
  P  P97  1  0.00799552  0.00212346  0.26345187  1
  P  P98  1  0.51014888  0.90073013  0.37724032  1
  P  P99  1  0.01123869  0.40046235  0.37748018  1
  S  S100  1  0.61349126  0.06799724  0.10821684  1
  S  S101  1  0.61524784  0.37456818  0.04955446  1
  S  S102  1  0.61887077  0.77068304  0.16460711  1
  S  S103  1  0.62344610  0.42918739  0.12993033  1
  S  S104  1  0.11846809  0.27067902  0.16503170  1
  S  S105  1  0.11328186  0.56713854  0.10814732  1
  S  S106  1  0.11561874  0.87454404  0.04925082  1
  S  S107  1  0.12446016  0.92871308  0.12974881  1
  S  S108  1  0.39533346  0.16676297  0.13626725  1
  S  S109  1  0.41088034  0.47977199  0.07527730  1
  S  S110  1  0.38626370  0.33378531  0.10424410  1
  S  S111  1  0.40379987  0.02262365  0.16514751  1
  S  S112  1  0.89551713  0.66657146  0.13590935  1
  S  S113  1  0.91139583  0.97950575  0.07525452  1
  S  S114  1  0.90331665  0.52263549  0.16509778  1
  S  S115  1  0.88753431  0.83328161  0.10409580  1
  S  S116  1  0.24009991  0.05935480  0.06765837  1
  S  S117  1  0.11983172  0.25330502  0.06339630  1
  S  S118  1  0.25895510  0.74853292  0.11899981  1
  S  S119  1  0.75808115  0.24913535  0.11995165  1
  S  S120  1  0.73992228  0.55920253  0.06750456  1
  S  S121  1  0.61980052  0.75357992  0.06282542  1
  S  S122  1  0.63333728  0.17709023  0.28011364  1
  S  S123  1  0.60337247  0.47363104  0.22224203  1
  S  S124  1  0.61943809  0.87561929  0.33693731  1
  S  S125  1  0.63734548  0.12500696  0.18661141  1
  S  S126  1  0.61705312  0.53014015  0.30352728  1
  S  S127  1  0.60916013  0.83127994  0.24506170  1
  S  S128  1  0.12085767  0.37506849  0.33731301  1
  S  S129  1  0.13263078  0.67680167  0.27981526  1
  S  S130  1  0.10353218  0.97376704  0.22207075  1
  S  S131  1  0.10926589  0.33145734  0.24547537  1
  S  S132  1  0.13722129  0.62514618  0.18633073  1
  S  S133  1  0.11708101  0.03018962  0.30335702  1
  S  S134  1  0.40356047  0.28136303  0.30196657  1
  S  S135  1  0.38770583  0.57463576  0.25071025  1
  S  S136  1  0.39545020  0.87417005  0.18909134  1
  S  S137  1  0.39292990  0.42884814  0.27842732  1
  S  S138  1  0.39460805  0.72792619  0.21800507  1
  S  S139  1  0.39326393  0.13699071  0.33110142  1
  S  S140  1  0.89589058  0.37444698  0.18946312  1
  S  S141  1  0.90257857  0.78097803  0.30166093  1
  S  S142  1  0.88727358  0.07435990  0.25065553  1
  S  S143  1  0.89443249  0.22814980  0.21851922  1
  S  S144  1  0.89308805  0.63665367  0.33091896  1
  S  S145  1  0.89315095  0.92856148  0.27820521  1
  S  S146  1  0.22179405  0.15282083  0.23269851  1
  S  S147  1  0.23199705  0.44904093  0.17790980  1
  S  S148  1  0.23019234  0.85516943  0.28870167  1
  S  S149  1  0.73068358  0.35511629  0.28896429  1
  S  S150  1  0.72161229  0.65267345  0.23251537  1
  S  S151  1  0.73214162  0.94904831  0.17757990  1
  S  S152  1  0.61363272  0.23539990  0.35842474  1
  S  S153  1  0.61197446  0.92866918  0.41773419  1
  S  S154  1  0.11270978  0.42900169  0.41790441  1
  S  S155  1  0.11302125  0.73561616  0.35804833  1
  S  S156  1  0.38307147  0.97022701  0.36316225  1
  S  S157  1  0.40776914  0.82374172  0.39155746  1
  S  S158  1  0.88376373  0.46967124  0.36316280  1
  S  S159  1  0.90914878  0.32351999  0.39198430  1
  S  S160  1  0.23825184  0.24470778  0.39893117  1
  S  S161  1  0.25634349  0.55495731  0.34829093  1
  S  S162  1  0.11806898  0.04994625  0.40422331  1
  S  S163  1  0.61811183  0.55020965  0.40425007  1
  S  S164  1  0.73665587  0.74480916  0.39825227  1
  S  S165  1  0.75597432  0.05477747  0.34837538  1
  Cl  Cl166  1  0.95363520  0.09186267  0.14927270  1
  Cl  Cl167  1  0.96778920  0.39760325  0.09872803  1
  Cl  Cl168  1  0.01933794  0.70600132  0.05106152  1
  Cl  Cl169  1  0.51975115  0.20659933  0.05154071  1
  Cl  Cl170  1  0.45339617  0.59172790  0.14917372  1
  Cl  Cl171  1  0.46851079  0.89746918  0.09861937  1
  Cl  Cl172  1  0.94911354  0.21436308  0.31642481  1
  Cl  Cl173  1  0.92366579  0.50312763  0.25871353  1
  Cl  Cl174  1  0.93019569  0.80208925  0.20766237  1
  Cl  Cl175  1  0.43068473  0.30214586  0.20786596  1
  Cl  Cl176  1  0.44799394  0.71478846  0.31598040  1
  Cl  Cl177  1  0.42424289  0.00306462  0.25864211  1
  Cl  Cl178  1  0.01691726  0.59793139  0.41572806  1
  Cl  Cl179  1  0.96483076  0.90523636  0.36860743  1
  Cl  Cl180  1  0.46557990  0.40526678  0.36888141  1
  Cl  Cl181  1  0.51716730  0.09767161  0.41609973  1
