# generated using pymatgen
data_Li26P3S18Cl5
_symmetry_space_group_name_H-M   'P 1'
_cell_length_a   9.80533700
_cell_length_b   7.22029003
_cell_length_c   44.07776800
_cell_angle_alpha   90.00000000
_cell_angle_beta   90.00000000
_cell_angle_gamma   47.23346674
_symmetry_Int_Tables_number   1
_chemical_formula_structural   Li26P3S18Cl5
_chemical_formula_sum   'Li26 P3 S18 Cl5'
_cell_volume   2290.90840188
_cell_formula_units_Z   1
loop_
 _symmetry_equiv_pos_site_id
 _symmetry_equiv_pos_as_xyz
  1  'x, y, z'
loop_
 _atom_site_type_symbol
 _atom_site_label
 _atom_site_symmetry_multiplicity
 _atom_site_fract_x
 _atom_site_fract_y
 _atom_site_fract_z
 _atom_site_occupancy
  Li  Li0  1  0.45015519  0.64989079  0.01641198  1
  Li  Li1  1  0.95112178  0.33046731  0.03430914  1
  Li  Li2  1  0.72431190  0.79025824  0.06856207  1
  Li  Li3  1  0.19969011  0.59786866  0.06798912  1
  Li  Li4  1  0.32690460  0.05063595  0.05315647  1
  Li  Li5  1  0.12817362  0.07400204  0.09181543  1
  Li  Li6  1  0.02705934  0.58289510  0.12251215  1
  Li  Li7  1  0.44744658  0.55532199  0.12998383  1
  Li  Li8  1  0.20091290  0.79818898  0.18001678  1
  Li  Li9  1  0.73308543  0.53013430  0.18375214  1
  Li  Li10  1  0.80703470  0.06404112  0.16653193  1
  Li  Li11  1  0.49978366  0.16836568  0.19394012  1
  Li  Li12  1  0.48519688  0.61488495  0.23333370  1
  Li  Li13  1  0.11139376  0.40155703  0.24054334  1
  Li  Li14  1  0.72562067  0.66647913  0.27597085  1
  Li  Li15  1  0.09469255  0.70428227  0.31395146  1
  Li  Li16  1  0.35072223  0.16823424  0.29411230  1
  Li  Li17  1  0.03400799  0.15029772  0.29568007  1
  Li  Li18  1  0.88967590  0.49753841  0.33886310  1
  Li  Li19  1  0.60355973  0.43601402  0.35707660  1
  Li  Li20  1  0.40887952  0.37673463  0.42453839  1
  Li  Li21  1  0.61638793  0.76968584  0.41783763  1
  Li  Li22  1  0.89643607  0.03804591  0.39177109  1
  Li  Li23  1  0.79978482  0.13527924  0.44938975  1
  Li  Li24  1  0.30216751  0.82771296  0.40786494  1
  Li  Li25  1  0.95085917  0.67172887  0.43089906  1
  P  P26  1  0.49771908  0.02653202  0.12595534  1
  P  P27  1  0.99106807  0.01766328  0.23793547  1
  P  P28  1  0.51962878  0.02285235  0.35769770  1
  S  S29  1  0.52459806  0.21979689  0.09562901  1
  S  S30  1  0.49703657  0.79206114  0.09918974  1
  S  S31  1  0.17916881  0.89222714  0.04068267  1
  S  S32  1  0.04453665  0.45711278  0.07218400  1
  S  S33  1  0.27983922  0.23907764  0.15483432  1
  S  S34  1  0.03375203  0.19722059  0.20820046  1
  S  S35  1  0.98352856  0.79177565  0.21081010  1
  S  S36  1  0.73507303  0.80674388  0.15339621  1
  S  S37  1  0.52807753  0.47076050  0.18209148  1
  S  S38  1  0.76273889  0.27044080  0.26480412  1
  S  S39  1  0.44964573  0.31460575  0.33221726  1
  S  S40  1  0.53082636  0.78987161  0.32746648  1
  S  S41  1  0.21875441  0.77942078  0.26623736  1
  S  S42  1  0.02289121  0.47944379  0.29243331  1
  S  S43  1  0.33150695  0.14865040  0.39182766  1
  S  S44  1  0.10577306  0.80040082  0.43168973  1
  S  S45  1  0.78461206  0.80627829  0.37604649  1
  S  S46  1  0.61584195  0.44390094  0.41068098  1
  Cl  Cl47  1  0.64126267  0.72076796  0.01943887  1
  Cl  Cl48  1  0.07322432  0.88750161  0.12926975  1
  Cl  Cl49  1  0.48073895  0.99193857  0.24162409  1
  Cl  Cl50  1  0.96749461  0.09395008  0.34361055  1
  Cl  Cl51  1  0.67088990  0.94106339  0.45687444  1
