# generated using pymatgen
data_Li22P3S16Cl5
_symmetry_space_group_name_H-M   'P 1'
_cell_length_a   9.80533700
_cell_length_b   7.22029003
_cell_length_c   44.07776800
_cell_angle_alpha   90.00000000
_cell_angle_beta   90.00000000
_cell_angle_gamma   47.23346674
_symmetry_Int_Tables_number   1
_chemical_formula_structural   Li22P3S16Cl5
_chemical_formula_sum   'Li22 P3 S16 Cl5'
_cell_volume   2290.90840188
_cell_formula_units_Z   1
loop_
 _symmetry_equiv_pos_site_id
 _symmetry_equiv_pos_as_xyz
  1  'x, y, z'
loop_
 _atom_site_type_symbol
 _atom_site_label
 _atom_site_symmetry_multiplicity
 _atom_site_fract_x
 _atom_site_fract_y
 _atom_site_fract_z
 _atom_site_occupancy
  Li  Li0  1  0.90273180  0.75406633  0.09434943  1
  Li  Li1  1  0.66745145  0.76981870  0.04619391  1
  Li  Li2  1  0.29709669  0.28137950  0.05339312  1
  Li  Li3  1  0.13867877  0.20946559  0.01513209  1
  Li  Li4  1  0.10994796  0.16848837  0.09669388  1
  Li  Li5  1  0.45898520  0.57361733  0.21912897  1
  Li  Li6  1  0.42169421  0.56589148  0.11617424  1
  Li  Li7  1  0.20669115  0.59274859  0.16055528  1
  Li  Li8  1  0.66402977  0.57718700  0.17598231  1
  Li  Li9  1  0.80559482  0.07563895  0.15193783  1
  Li  Li10  1  0.59225000  0.06828770  0.18779445  1
  Li  Li11  1  0.93894117  0.57338737  0.33305765  1
  Li  Li12  1  0.89293657  0.57709183  0.23026635  1
  Li  Li13  1  0.68778942  0.57475900  0.27361991  1
  Li  Li14  1  0.12646268  0.59870494  0.28831452  1
  Li  Li15  1  0.26870592  0.07144288  0.26048770  1
  Li  Li16  1  0.05962200  0.07245509  0.29849669  1
  Li  Li17  1  0.27135967  0.75328296  0.35550314  1
  Li  Li18  1  0.35502328  0.27692657  0.39579170  1
  Li  Li19  1  0.49151457  0.77441373  0.40304589  1
  Li  Li20  1  0.65029507  0.17431973  0.35301298  1
  Li  Li21  1  0.57246746  0.22198064  0.43552308  1
  P  P22  1  0.48860948  0.00955190  0.11402182  1
  P  P23  1  0.94813057  0.03255544  0.22467755  1
  P  P24  1  0.42821182  0.01716836  0.33538142  1
  S  S25  1  0.53950586  0.18654010  0.08541048  1
  S  S26  1  0.46529735  0.80553510  0.08549208  1
  S  S27  1  0.98769257  0.46466723  0.05577205  1
  S  S28  1  0.25191924  0.23750274  0.13886148  1
  S  S29  1  0.97747221  0.22947772  0.19696477  1
  S  S30  1  0.94815453  0.79566938  0.19740573  1
  S  S31  1  0.72473333  0.77810550  0.14085215  1
  S  S32  1  0.50357272  0.44725653  0.16803365  1
  S  S33  1  0.72136121  0.22864287  0.25221413  1
  S  S34  1  0.43639698  0.24696630  0.31086718  1
  S  S35  1  0.42423241  0.78495879  0.30849927  1
  S  S36  1  0.18479565  0.79873228  0.25203545  1
  S  S37  1  0.97801382  0.44897989  0.28120367  1
  S  S38  1  0.20044440  0.19233946  0.36388979  1
  S  S39  1  0.65550850  0.81321137  0.36393241  1
  S  S40  1  0.47595112  0.46839958  0.39413626  1
  Cl  Cl41  1  0.43223968  0.03553687  0.00830964  1
  Cl  Cl42  1  0.05199320  0.89301951  0.11565140  1
  Cl  Cl43  1  0.53561886  0.85875400  0.22462232  1
  Cl  Cl44  1  0.98303847  0.89716098  0.33373273  1
  Cl  Cl45  1  0.46065435  0.03719380  0.44130446  1
