# generated using pymatgen
data_Li22P4S19Cl4
_symmetry_space_group_name_H-M   'P 1'
_cell_length_a   10.60410300
_cell_length_b   21.51103300
_cell_length_c   40.15794400
_cell_angle_alpha   90.00000000
_cell_angle_beta   90.00000000
_cell_angle_gamma   90.00000000
_symmetry_Int_Tables_number   1
_chemical_formula_structural   Li22P4S19Cl4
_chemical_formula_sum   'Li88 P16 S76 Cl16'
_cell_volume   9160.23623196
_cell_formula_units_Z   4
loop_
 _symmetry_equiv_pos_site_id
 _symmetry_equiv_pos_as_xyz
  1  'x, y, z'
loop_
 _atom_site_type_symbol
 _atom_site_label
 _atom_site_symmetry_multiplicity
 _atom_site_fract_x
 _atom_site_fract_y
 _atom_site_fract_z
 _atom_site_occupancy
  Li  Li0  1  0.95762683  0.21856091  0.12608133  1
  Li  Li1  1  0.77838797  0.45230615  0.07669387  1
  Li  Li2  1  0.82346213  0.86597671  0.16217662  1
  Li  Li3  1  0.80456717  0.35111827  0.13984396  1
  Li  Li4  1  0.78743971  0.65608135  0.09231496  1
  Li  Li5  1  0.75560778  0.28327516  0.07447385  1
  Li  Li6  1  0.79161560  0.63270664  0.02745224  1
  Li  Li7  1  0.74967253  0.00219367  0.12780185  1
  Li  Li8  1  0.71449780  0.53787338  0.12568041  1
  Li  Li9  1  0.78748246  0.77661681  0.05584337  1
  Li  Li10  1  0.24413745  0.36117197  0.15175306  1
  Li  Li11  1  0.39972980  0.66790719  0.10658192  1
  Li  Li12  1  0.33769355  0.89242129  0.05458849  1
  Li  Li13  1  0.30510374  0.20527380  0.08929138  1
  Li  Li14  1  0.26665926  0.86158675  0.14119718  1
  Li  Li15  1  0.32053842  0.19868678  0.01211267  1
  Li  Li16  1  0.32036279  0.51520763  0.13585634  1
  Li  Li17  1  0.17221033  0.78066426  0.06262248  1
  Li  Li18  1  0.44404064  0.30007725  0.05656143  1
  Li  Li19  1  0.35372074  0.99876375  0.11742401  1
  Li  Li20  1  0.02899600  0.05963247  0.10616228  1
  Li  Li21  1  0.03191238  0.34041479  0.05324522  1
  Li  Li22  1  0.03408637  0.77651859  0.14694135  1
  Li  Li23  1  0.04524928  0.46903089  0.14004376  1
  Li  Li24  1  0.07908213  0.67901398  0.09926995  1
  Li  Li25  1  0.54407064  0.27515048  0.15729713  1
  Li  Li26  1  0.54085740  0.55127605  0.05779659  1
  Li  Li27  1  0.42936138  0.79649155  0.09728570  1
  Li  Li28  1  0.58774140  0.17986599  0.10367469  1
  Li  Li29  1  0.56174705  0.90182238  0.15858251  1
  Li  Li30  1  0.78119040  0.25950137  0.27461177  1
  Li  Li31  1  0.77098638  0.54748515  0.22441501  1
  Li  Li32  1  0.76407924  0.94879226  0.33586036  1
  Li  Li33  1  0.75813375  0.45218642  0.32147526  1
  Li  Li34  1  0.72920713  0.74863379  0.26245807  1
  Li  Li35  1  0.90290021  0.02674842  0.19719073  1
  Li  Li36  1  0.79810116  0.41312820  0.25207935  1
  Li  Li37  1  0.79300195  0.72281243  0.19205540  1
  Li  Li38  1  0.77827761  0.11665955  0.30528603  1
  Li  Li39  1  0.78559264  0.17989972  0.17508083  1
  Li  Li40  1  0.95446776  0.62726951  0.24910178  1
  Li  Li41  1  0.77943211  0.89395923  0.22862285  1
  Li  Li42  1  0.30414807  0.45963211  0.33655366  1
  Li  Li43  1  0.40073269  0.78400907  0.27908256  1
  Li  Li44  1  0.25498839  0.05569548  0.22374358  1
  Li  Li45  1  0.27096879  0.26304464  0.25341091  1
  Li  Li46  1  0.27947780  0.55187795  0.20193472  1
  Li  Li47  1  0.30384820  0.94814174  0.31340631  1
  Li  Li48  1  0.45437132  0.18228090  0.22914515  1
  Li  Li49  1  0.28965618  0.62962052  0.30159273  1
  Li  Li50  1  0.27849801  0.91548450  0.24677275  1
  Li  Li51  1  0.30666844  0.39432426  0.22247429  1
  Li  Li52  1  0.27862831  0.69383977  0.17128063  1
  Li  Li53  1  0.27801910  0.09170980  0.28859773  1
  Li  Li54  1  0.02856068  0.16742742  0.26494784  1
  Li  Li55  1  0.04329437  0.45009441  0.21540946  1
  Li  Li56  1  0.04365010  0.89625464  0.31494529  1
  Li  Li57  1  0.11236860  0.17383687  0.19379812  1
  Li  Li58  1  0.04530433  0.53735578  0.32048661  1
  Li  Li59  1  0.06861947  0.79834483  0.26180106  1
  Li  Li60  1  0.55014415  0.34333551  0.33893701  1
  Li  Li61  1  0.60006450  0.63084383  0.28162562  1
  Li  Li62  1  0.55823290  0.00694539  0.21041775  1
  Li  Li63  1  0.53339844  0.35356066  0.26537698  1
  Li  Li64  1  0.53235225  0.64488853  0.21090472  1
  Li  Li65  1  0.53385924  0.03621498  0.33190398  1
  Li  Li66  1  0.80669627  0.60344565  0.38818420  1
  Li  Li67  1  0.83749236  0.91884085  0.42126616  1
  Li  Li68  1  0.90005022  0.14350389  0.37011476  1
  Li  Li69  1  0.94414156  0.51086701  0.42112257  1
  Li  Li70  1  0.84936236  0.81084678  0.35911692  1
  Li  Li71  1  0.82485039  0.29692766  0.34073365  1
  Li  Li72  1  0.82037633  0.61478754  0.46519120  1
  Li  Li73  1  0.67898601  0.03028358  0.41390878  1
  Li  Li74  1  0.28870449  0.15633493  0.38520452  1
  Li  Li75  1  0.27572150  0.35954407  0.40118670  1
  Li  Li76  1  0.46157425  0.58946566  0.35093246  1
  Li  Li77  1  0.21824288  0.27445816  0.35186940  1
  Li  Li78  1  0.28892432  0.03437525  0.42053262  1
  Li  Li79  1  0.25826418  0.52629420  0.40236224  1
  Li  Li80  1  0.25327373  0.81183654  0.34850535  1
  Li  Li81  1  0.29200014  0.17784638  0.44986115  1
  Li  Li82  1  0.09121386  0.63159809  0.37375613  1
  Li  Li83  1  0.03778652  0.25985114  0.41890894  1
  Li  Li84  1  0.93572507  0.01391799  0.37736157  1
  Li  Li85  1  0.58176727  0.13313397  0.37856971  1
  Li  Li86  1  0.53248274  0.47097744  0.42442583  1
  Li  Li87  1  0.52601764  0.74887923  0.37089569  1
  P  P88  1  0.48399595  0.10316584  0.15735684  1
  P  P89  1  0.51820682  0.40536775  0.09789765  1
  P  P90  1  0.51526774  0.71631433  0.04341179  1
  P  P91  1  0.07952015  0.20962376  0.03970876  1
  P  P92  1  0.00408790  0.60350682  0.15806249  1
  P  P93  1  0.01146608  0.91800911  0.09107978  1
  P  P94  1  0.50716133  0.20833957  0.31942236  1
  P  P95  1  0.49583481  0.50233426  0.26766653  1
  P  P96  1  0.49644108  0.80732081  0.20840539  1
  P  P97  1  0.99681672  0.30671277  0.20851991  1
  P  P98  1  0.99243736  0.70865531  0.31967669  1
  P  P99  1  0.99092716  0.00351832  0.26855066  1
  P  P100  1  0.57949106  0.60185158  0.43744909  1
  P  P101  1  0.51148762  0.89258384  0.38463245  1
  P  P102  1  0.01720047  0.40657449  0.37930469  1
  P  P103  1  0.01674359  0.09427289  0.43320352  1
  S  S104  1  0.56546483  0.06930857  0.11449549  1
  S  S105  1  0.61814528  0.37365096  0.05652751  1
  S  S106  1  0.65479012  0.71860894  0.00889908  1
  S  S107  1  0.64071414  0.43290963  0.13441158  1
  S  S108  1  0.60288255  0.72996616  0.08994436  1
  S  S109  1  0.12598668  0.15006492  0.00363325  1
  S  S110  1  0.11310335  0.57520548  0.11871053  1
  S  S111  1  0.11152969  0.88908147  0.04988367  1
  S  S112  1  0.21458575  0.28257159  0.04214885  1
  S  S113  1  0.12923050  0.95299224  0.12808674  1
  S  S114  1  0.39418890  0.18493796  0.14609119  1
  S  S115  1  0.39905982  0.47421002  0.08297493  1
  S  S116  1  0.38836424  0.78898282  0.03556669  1
  S  S117  1  0.41360025  0.33000559  0.11514916  1
  S  S118  1  0.40526131  0.63844113  0.04683384  1
  S  S119  1  0.91118586  0.25473790  0.03259312  1
  S  S120  1  0.90131438  0.68085329  0.14239655  1
  S  S121  1  0.88875052  0.98778142  0.07877269  1
  S  S122  1  0.09294608  0.16731437  0.08663836  1
  S  S123  1  0.90785165  0.84146584  0.10796693  1
  S  S124  1  0.23684838  0.75370431  0.12132920  1
  S  S125  1  0.74065836  0.24663613  0.12920944  1
  S  S126  1  0.75239230  0.55928660  0.06934820  1
  S  S127  1  0.60825179  0.18118543  0.27848685  1
  S  S128  1  0.60468328  0.46946464  0.22965846  1
  S  S129  1  0.61187959  0.78804878  0.16875002  1
  S  S130  1  0.60515903  0.11955610  0.19644530  1
  S  S131  1  0.59666216  0.53030032  0.30930140  1
  S  S132  1  0.59167679  0.83467829  0.25077943  1
  S  S133  1  0.09819805  0.27732231  0.16738658  1
  S  S134  1  0.11119968  0.68884101  0.28046162  1
  S  S135  1  0.08971296  0.97670200  0.22673943  1
  S  S136  1  0.10638913  0.34096945  0.24627902  1
  S  S137  1  0.10655631  0.63045363  0.19893843  1
  S  S138  1  0.10140207  0.02045194  0.30955482  1
  S  S139  1  0.38542558  0.28021359  0.30815903  1
  S  S140  1  0.40090497  0.58190758  0.25221384  1
  S  S141  1  0.38199518  0.88100594  0.19460100  1
  S  S142  1  0.36918626  0.43349092  0.27933425  1
  S  S143  1  0.38588021  0.73300595  0.22178218  1
  S  S144  1  0.36367700  0.03407206  0.17314450  1
  S  S145  1  0.87394343  0.37701943  0.19637108  1
  S  S146  1  0.88031166  0.78079302  0.30273635  1
  S  S147  1  0.88452691  0.07897443  0.25472341  1
  S  S148  1  0.89873131  0.22870270  0.22434402  1
  S  S149  1  0.88156643  0.53227181  0.16951651  1
  S  S150  1  0.86921310  0.93198012  0.28116261  1
  S  S151  1  0.23611694  0.15725025  0.24294840  1
  S  S152  1  0.22179082  0.45541504  0.17864902  1
  S  S153  1  0.23127984  0.85225643  0.29380938  1
  S  S154  1  0.72204563  0.35555507  0.29827639  1
  S  S155  1  0.73683604  0.65394345  0.23575324  1
  S  S156  1  0.73326255  0.95778595  0.18146271  1
  S  S157  1  0.71466510  0.52888065  0.43668816  1
  S  S158  1  0.62854226  0.85674251  0.34778127  1
  S  S159  1  0.61643848  0.23629975  0.35874250  1
  S  S160  1  0.62449466  0.66333097  0.47271330  1
  S  S161  1  0.61173216  0.92273070  0.42554921  1
  S  S162  1  0.13840777  0.37866153  0.34262859  1
  S  S163  1  0.10557049  0.08207217  0.38674217  1
  S  S164  1  0.11733916  0.43793277  0.42071512  1
  S  S165  1  0.07447303  0.74193199  0.36241825  1
  S  S166  1  0.15538917  0.09199057  0.46792765  1
  S  S167  1  0.59513428  0.64203069  0.38995832  1
  S  S168  1  0.40583258  0.96815186  0.36722187  1
  S  S169  1  0.41076937  0.55716103  0.44455115  1
  S  S170  1  0.38959167  0.82302408  0.39771772  1
  S  S171  1  0.40328074  0.13131245  0.33530922  1
  S  S172  1  0.91331522  0.48250833  0.36232422  1
  S  S173  1  0.90491544  0.17163082  0.43001382  1
  S  S174  1  0.89717244  0.33807228  0.39412522  1
  S  S175  1  0.89632213  0.62881217  0.33113410  1
  S  S176  1  0.89229148  0.02072725  0.44071911  1
  S  S177  1  0.25099268  0.25247281  0.40827601  1
  S  S178  1  0.24315711  0.56430058  0.34791997  1
  S  S179  1  0.73774317  0.05773215  0.35565589  1
  Cl  Cl180  1  0.96435072  0.11022030  0.15954201  1
  Cl  Cl181  1  0.95934389  0.39769529  0.09830846  1
  Cl  Cl182  1  0.95846471  0.70355587  0.05188118  1
  Cl  Cl183  1  0.49152635  0.19490804  0.05035070  1
  Cl  Cl184  1  0.43262483  0.60756536  0.15781911  1
  Cl  Cl185  1  0.45411698  0.90509496  0.10379676  1
  Cl  Cl186  1  0.93351719  0.20382093  0.31912800  1
  Cl  Cl187  1  0.94514766  0.50803074  0.26160762  1
  Cl  Cl188  1  0.94035596  0.80902853  0.20497641  1
  Cl  Cl189  1  0.44886816  0.30052657  0.21669744  1
  Cl  Cl190  1  0.47051799  0.70044482  0.31624121  1
  Cl  Cl191  1  0.41589411  0.00506168  0.26797695  1
  Cl  Cl192  1  0.99092394  0.61648212  0.42669533  1
  Cl  Cl193  1  0.95180532  0.90427274  0.37209895  1
  Cl  Cl194  1  0.45586999  0.41420688  0.37953649  1
  Cl  Cl195  1  0.45845265  0.10753601  0.42515922  1
