# generated using pymatgen
data_Li28P5S24Cl5
_symmetry_space_group_name_H-M   'P 1'
_cell_length_a   9.80533700
_cell_length_b   7.22029003
_cell_length_c   44.07776800
_cell_angle_alpha   90.00000000
_cell_angle_beta   90.00000000
_cell_angle_gamma   47.23346674
_symmetry_Int_Tables_number   1
_chemical_formula_structural   Li28P5S24Cl5
_chemical_formula_sum   'Li28 P5 S24 Cl5'
_cell_volume   2290.90840188
_cell_formula_units_Z   1
loop_
 _symmetry_equiv_pos_site_id
 _symmetry_equiv_pos_as_xyz
  1  'x, y, z'
loop_
 _atom_site_type_symbol
 _atom_site_label
 _atom_site_symmetry_multiplicity
 _atom_site_fract_x
 _atom_site_fract_y
 _atom_site_fract_z
 _atom_site_occupancy
  Li  Li0  1  0.59081138  0.81867836  0.03920773  1
  Li  Li1  1  0.30504762  0.42778407  0.05151875  1
  Li  Li2  1  0.90152567  0.65508593  0.09428963  1
  Li  Li3  1  0.49328637  0.08406499  0.09910766  1
  Li  Li4  1  0.96824769  0.94875352  0.07203042  1
  Li  Li5  1  0.17552198  0.59408837  0.15704270  1
  Li  Li6  1  0.59689388  0.62438609  0.16867791  1
  Li  Li7  1  0.40818468  0.59889842  0.21236465  1
  Li  Li8  1  0.39631902  0.58173529  0.11492488  1
  Li  Li9  1  0.98237455  0.10367648  0.19762029  1
  Li  Li10  1  0.18363549  0.16591812  0.11674951  1
  Li  Li11  1  0.65454096  0.60944771  0.26935073  1
  Li  Li12  1  0.09768460  0.60257161  0.27912194  1
  Li  Li13  1  0.88971539  0.60893148  0.32263788  1
  Li  Li14  1  0.86207169  0.60462672  0.22593585  1
  Li  Li15  1  0.46161425  0.09526540  0.30849415  1
  Li  Li16  1  0.79169564  0.09951773  0.24009265  1
  Li  Li17  1  0.13958433  0.62192057  0.38032739  1
  Li  Li18  1  0.59736595  0.57616932  0.39119974  1
  Li  Li19  1  0.38381350  0.57493124  0.43361661  1
  Li  Li20  1  0.36014978  0.57976726  0.33552487  1
  Li  Li21  1  0.01329415  0.15204768  0.43226022  1
  Li  Li22  1  0.27173779  0.09865115  0.35185334  1
  Li  Li23  1  0.63107703  0.41188219  0.49748537  1
  Li  Li24  1  0.95418388  0.80506638  0.50971466  1
  Li  Li25  1  0.80857859  0.63943223  0.45482110  1
  Li  Li26  1  0.44910771  0.92798022  0.47652001  1
  Li  Li27  1  0.78189300  0.07290413  0.44935904  1
  P  P28  1  0.20761089  0.02856714  0.04951477  1
  P  P29  1  0.67934577  0.04787744  0.16390001  1
  P  P30  1  0.14461960  0.06542239  0.27437915  1
  P  P31  1  0.63420760  0.03694182  0.38489342  1
  P  P32  1  0.12774553  0.01342455  0.49932930  1
  S  S33  1  0.96445278  0.28881663  0.07480641  1
  S  S34  1  0.27425677  0.17532481  0.02045602  1
  S  S35  1  0.17378971  0.81695690  0.02723290  1
  S  S36  1  0.42712588  0.81646844  0.08130282  1
  S  S37  1  0.19987024  0.50531631  0.10402642  1
  S  S38  1  0.44486013  0.25360538  0.18962959  1
  S  S39  1  0.70674224  0.24840134  0.13618530  1
  S  S40  1  0.69715917  0.79145731  0.13803414  1
  S  S41  1  0.91074109  0.82674474  0.19250245  1
  S  S42  1  0.69603815  0.47981530  0.21886546  1
  S  S43  1  0.91733297  0.26367049  0.30171956  1
  S  S44  1  0.17765059  0.25930933  0.24688176  1
  S  S45  1  0.14207613  0.83262759  0.24664751  1
  S  S46  1  0.38047831  0.82971158  0.30201667  1
  S  S47  1  0.18294724  0.47518394  0.32998078  1
  S  S48  1  0.40687193  0.24020278  0.41267834  1
  S  S49  1  0.66612288  0.23903485  0.35899113  1
  S  S50  1  0.62076373  0.81979664  0.35613719  1
  S  S51  1  0.87318158  0.77843606  0.41059324  1
  S  S52  1  0.65823043  0.49281558  0.44473268  1
  S  S53  1  0.91445221  0.16086860  0.52847083  1
  S  S54  1  0.11201507  0.27263778  0.47407327  1
  S  S55  1  0.11901418  0.80270610  0.46752555  1
  S  S56  1  0.37333854  0.80045399  0.52157376  1
  Cl  Cl57  1  0.69532854  0.00496902  0.05962376  1
  Cl  Cl58  1  0.24527902  0.89236230  0.16094651  1
  Cl  Cl59  1  0.73307723  0.88953386  0.27443498  1
  Cl  Cl60  1  0.22410260  0.88261588  0.38818943  1
  Cl  Cl61  1  0.66307675  0.99061446  0.48925719  1
