# generated using pymatgen
data_Li6PS5Cl
_symmetry_space_group_name_H-M   'P 1'
_cell_length_a   10.60410300
_cell_length_b   9.80224400
_cell_length_c   44.06332100
_cell_angle_alpha   90.00000000
_cell_angle_beta   90.00000000
_cell_angle_gamma   90.00000000
_symmetry_Int_Tables_number   1
_chemical_formula_structural   Li6PS5Cl
_chemical_formula_sum   'Li48 P8 S40 Cl8'
_cell_volume   4580.11805865
_cell_formula_units_Z   8
loop_
 _symmetry_equiv_pos_site_id
 _symmetry_equiv_pos_as_xyz
  1  'x, y, z'
loop_
 _atom_site_type_symbol
 _atom_site_label
 _atom_site_symmetry_multiplicity
 _atom_site_fract_x
 _atom_site_fract_y
 _atom_site_fract_z
 _atom_site_occupancy
  Li  Li0  1  0.60723970  0.78475954  0.00754301  1
  Li  Li1  1  0.77578447  0.49971163  0.06823237  1
  Li  Li2  1  0.89218425  0.11230265  0.01407446  1
  Li  Li3  1  0.55778687  0.02092790  0.04417451  1
  Li  Li4  1  0.27676700  0.97676509  0.07152441  1
  Li  Li5  1  0.30416590  0.38471420  0.06621360  1
  Li  Li6  1  0.98080729  0.50815120  0.11220407  1
  Li  Li7  1  0.02697968  0.87953256  0.10772931  1
  Li  Li8  1  0.79730826  0.88411341  0.06005321  1
  Li  Li9  1  0.57470320  0.30335473  0.11177579  1
  Li  Li10  1  0.81071014  0.24011037  0.13461022  1
  Li  Li11  1  0.78387560  0.70385671  0.11660566  1
  Li  Li12  1  0.80426518  0.01542159  0.18588459  1
  Li  Li13  1  0.77810536  0.45772123  0.17634047  1
  Li  Li14  1  0.28500632  0.73869626  0.12942722  1
  Li  Li15  1  0.31853085  0.17831487  0.11782580  1
  Li  Li16  1  0.30148989  0.50969114  0.18528852  1
  Li  Li17  1  0.28656395  0.94060360  0.17495626  1
  Li  Li18  1  0.06177538  0.12312872  0.13645644  1
  Li  Li19  1  0.04093184  0.39225113  0.21577511  1
  Li  Li20  1  0.54149406  0.58417765  0.13358817  1
  Li  Li21  1  0.54210079  0.88627180  0.21459512  1
  Li  Li22  1  0.79383789  0.76221967  0.24344648  1
  Li  Li23  1  0.79446750  0.21602983  0.23044929  1
  Li  Li24  1  0.78441117  0.53054236  0.29719760  1
  Li  Li25  1  0.80208615  0.96396510  0.28627578  1
  Li  Li26  1  0.29393781  0.25764448  0.24142721  1
  Li  Li27  1  0.29483057  0.71067197  0.22873460  1
  Li  Li28  1  0.27525799  0.01462163  0.29569856  1
  Li  Li29  1  0.30423780  0.45842091  0.28621632  1
  Li  Li30  1  0.04392220  0.58806050  0.25768943  1
  Li  Li31  1  0.03874865  0.89103203  0.33826633  1
  Li  Li32  1  0.54012264  0.08404478  0.25622620  1
  Li  Li33  1  0.56152960  0.34967239  0.33571846  1
  Li  Li34  1  0.81733427  0.29554563  0.35471414  1
  Li  Li35  1  0.78440206  0.73512123  0.34214308  1
  Li  Li36  1  0.80256160  0.08889986  0.40606785  1
  Li  Li37  1  0.77487759  0.49735188  0.40069682  1
  Li  Li38  1  0.28196945  0.77193727  0.35496399  1
  Li  Li39  1  0.30870181  0.23397864  0.33719486  1
  Li  Li40  1  0.38928464  0.35936860  0.45829695  1
  Li  Li41  1  0.27781930  0.97262157  0.40364170  1
  Li  Li42  1  0.07270672  0.17091552  0.36041063  1
  Li  Li43  1  0.29455293  0.58615513  0.41191822  1
  Li  Li44  1  0.52616049  0.59508091  0.36422844  1
  Li  Li45  1  0.48018111  0.96665281  0.35926001  1
  Li  Li46  1  0.05544089  0.45254092  0.42773432  1
  Li  Li47  1  0.10504887  0.68915412  0.46427637  1
  P  P48  1  0.49964672  0.70221948  0.06602708  1
  P  P49  1  0.01006973  0.20692539  0.06871118  1
  P  P50  1  0.52450984  0.22990788  0.18057144  1
  P  P51  1  0.01527435  0.72471140  0.18138658  1
  P  P52  1  0.51436208  0.74942555  0.29047576  1
  P  P53  1  0.02320477  0.24459379  0.29148635  1
  P  P54  1  0.50860212  0.26758051  0.40337324  1
  P  P55  1  0.99881863  0.77110951  0.40581423  1
  S  S56  1  0.59966610  0.57524903  0.03838825  1
  S  S57  1  0.60309819  0.81936304  0.09606354  1
  S  S58  1  0.11061367  0.08410566  0.04087187  1
  S  S59  1  0.12302757  0.31829041  0.09931659  1
  S  S60  1  0.39849120  0.82899069  0.03807494  1
  S  S61  1  0.38019472  0.58431652  0.09318845  1
  S  S62  1  0.90787869  0.33391207  0.04230320  1
  S  S63  1  0.89533852  0.08658896  0.09712361  1
  S  S64  1  0.72762578  0.96942672  0.01481553  1
  S  S65  1  0.62674728  0.10738558  0.15196426  1
  S  S66  1  0.62061365  0.35419365  0.20937195  1
  S  S67  1  0.11758966  0.59406284  0.15400824  1
  S  S68  1  0.11862618  0.84851992  0.20864374  1
  S  S69  1  0.41312549  0.34979880  0.15223323  1
  S  S70  1  0.40726298  0.10553645  0.20673997  1
  S  S71  1  0.89649088  0.83990350  0.15462028  1
  S  S72  1  0.90327353  0.60306698  0.20957875  1
  S  S73  1  0.22539434  0.96563313  0.12427169  1
  S  S74  1  0.74577497  0.46608674  0.12318311  1
  S  S75  1  0.61750872  0.62475024  0.26336282  1
  S  S76  1  0.61732018  0.87967630  0.31777221  1
  S  S77  1  0.11932605  0.12001225  0.26273157  1
  S  S78  1  0.12552406  0.36709212  0.32006313  1
  S  S79  1  0.40250383  0.87151517  0.26235675  1
  S  S80  1  0.39513772  0.63501533  0.31726638  1
  S  S81  1  0.90686956  0.36916703  0.26512843  1
  S  S82  1  0.91084660  0.12520771  0.31972711  1
  S  S83  1  0.23116261  0.48470518  0.23604697  1
  S  S84  1  0.73037566  0.98887960  0.23589464  1
  S  S85  1  0.62189021  0.15570805  0.37290219  1
  S  S86  1  0.60901209  0.39033897  0.43124788  1
  S  S87  1  0.10170104  0.65369567  0.37574086  1
  S  S88  1  0.09968943  0.89763395  0.43334757  1
  S  S89  1  0.39413539  0.38748150  0.37483330  1
  S  S90  1  0.40625617  0.14068522  0.42978275  1
  S  S91  1  0.87889794  0.88948781  0.37881978  1
  S  S92  1  0.89762960  0.64461444  0.43387405  1
  S  S93  1  0.24412507  0.00873395  0.34872671  1
  S  S94  1  0.72430582  0.50802947  0.34788961  1
  S  S95  1  0.22502067  0.50315429  0.45734650  1
  Cl  Cl96  1  0.93980181  0.69813133  0.07756403  1
  Cl  Cl97  1  0.44632723  0.19977423  0.07298326  1
  Cl  Cl98  1  0.94173832  0.22924912  0.18027647  1
  Cl  Cl99  1  0.43222691  0.72628621  0.17881437  1
  Cl  Cl100  1  0.93202700  0.74793178  0.29335490  1
  Cl  Cl101  1  0.44110577  0.24558521  0.29177129  1
  Cl  Cl102  1  0.94542170  0.27302241  0.39925683  1
  Cl  Cl103  1  0.43734352  0.77630850  0.39417563  1
