# generated using pymatgen
data_Li6PS5Cl
_symmetry_space_group_name_H-M   'P 1'
_cell_length_a   10.60410300
_cell_length_b   9.80224400
_cell_length_c   44.06332100
_cell_angle_alpha   90.00000000
_cell_angle_beta   90.00000000
_cell_angle_gamma   90.00000000
_symmetry_Int_Tables_number   1
_chemical_formula_structural   Li6PS5Cl
_chemical_formula_sum   'Li48 P8 S40 Cl8'
_cell_volume   4580.11805865
_cell_formula_units_Z   8
loop_
 _symmetry_equiv_pos_site_id
 _symmetry_equiv_pos_as_xyz
  1  'x, y, z'
loop_
 _atom_site_type_symbol
 _atom_site_label
 _atom_site_symmetry_multiplicity
 _atom_site_fract_x
 _atom_site_fract_y
 _atom_site_fract_z
 _atom_site_occupancy
  Li  Li0  1  0.60648743  0.67652922  0.03331474  1
  Li  Li1  1  0.77804406  0.39137170  0.09403048  1
  Li  Li2  1  0.89091208  0.00503736  0.03964363  1
  Li  Li3  1  0.55590778  0.91259497  0.06985118  1
  Li  Li4  1  0.27609789  0.86785196  0.09674753  1
  Li  Li5  1  0.30381362  0.27642012  0.09164591  1
  Li  Li6  1  0.98004289  0.39803198  0.13860360  1
  Li  Li7  1  0.79694503  0.77807398  0.08566410  1
  Li  Li8  1  0.81028395  0.13147487  0.16043439  1
  Li  Li9  1  0.78328920  0.59315929  0.14221947  1
  Li  Li10  1  0.80456250  0.90593759  0.21125111  1
  Li  Li11  1  0.77518406  0.35199702  0.20211844  1
  Li  Li12  1  0.28407142  0.62984995  0.15467661  1
  Li  Li13  1  0.31987744  0.06680940  0.14302893  1
  Li  Li14  1  0.30140102  0.40041579  0.21088934  1
  Li  Li15  1  0.28555296  0.83109512  0.20017158  1
  Li  Li16  1  0.06262759  0.01580789  0.16188076  1
  Li  Li17  1  0.02614742  0.76970213  0.13322868  1
  Li  Li18  1  0.53963930  0.47570192  0.15949099  1
  Li  Li19  1  0.57338151  0.19460414  0.13725925  1
  Li  Li20  1  0.79579900  0.65456801  0.26902215  1
  Li  Li21  1  0.79203718  0.10711845  0.25622198  1
  Li  Li22  1  0.78675280  0.42383804  0.32273810  1
  Li  Li23  1  0.80049542  0.85596781  0.31212784  1
  Li  Li24  1  0.29406380  0.14823674  0.26716301  1
  Li  Li25  1  0.29427670  0.60127200  0.25400583  1
  Li  Li26  1  0.27623451  0.90503705  0.32080610  1
  Li  Li27  1  0.30374764  0.34828783  0.31164149  1
  Li  Li28  1  0.04248950  0.47873262  0.28327166  1
  Li  Li29  1  0.03932777  0.28114560  0.24151604  1
  Li  Li30  1  0.53953619  0.97244762  0.28171599  1
  Li  Li31  1  0.54319139  0.77669232  0.23967186  1
  Li  Li32  1  0.81758851  0.18689851  0.37997283  1
  Li  Li33  1  0.78390074  0.62516342  0.36813722  1
  Li  Li34  1  0.80270543  0.97946542  0.43137248  1
  Li  Li35  1  0.77522158  0.38813360  0.42603570  1
  Li  Li36  1  0.28378742  0.66101332  0.38022224  1
  Li  Li37  1  0.31023468  0.12278501  0.36277797  1
  Li  Li38  1  0.39125391  0.25013164  0.48341585  1
  Li  Li39  1  0.27876037  0.86244990  0.42888737  1
  Li  Li40  1  0.07338878  0.06119012  0.38581069  1
  Li  Li41  1  0.03977530  0.77991984  0.36362528  1
  Li  Li42  1  0.52655016  0.48490711  0.38961526  1
  Li  Li43  1  0.56183834  0.24138232  0.36056427  1
  Li  Li44  1  0.05624859  0.34141767  0.45313776  1
  Li  Li45  1  0.10584265  0.57878983  0.48938295  1
  Li  Li46  1  0.29594260  0.47793172  0.43703582  1
  Li  Li47  1  0.48023635  0.85814160  0.38466906  1
  P  P48  1  0.49993511  0.59398656  0.09182931  1
  P  P49  1  0.00937372  0.09819725  0.09423930  1
  P  P50  1  0.52388332  0.11965262  0.20609178  1
  P  P51  1  0.01486568  0.61566503  0.20702959  1
  P  P52  1  0.51488380  0.63884766  0.31595593  1
  P  P53  1  0.02358895  0.13426038  0.31699852  1
  P  P54  1  0.50896141  0.15817122  0.42862308  1
  P  P55  1  0.99949258  0.66151869  0.43094505  1
  S  S56  1  0.60109943  0.46777941  0.06427903  1
  S  S57  1  0.11041123  0.97597813  0.06637846  1
  S  S58  1  0.39844184  0.72013540  0.06375358  1
  S  S59  1  0.90680970  0.22465259  0.06780093  1
  S  S60  1  0.72621079  0.86209349  0.04044047  1
  S  S61  1  0.62661353  0.99762228  0.17749867  1
  S  S62  1  0.60247099  0.71148381  0.12193472  1
  S  S63  1  0.11765389  0.48539692  0.17969033  1
  S  S64  1  0.12267486  0.20956871  0.12475895  1
  S  S65  1  0.41200903  0.23906518  0.17776871  1
  S  S66  1  0.38025733  0.47523832  0.11880233  1
  S  S67  1  0.89508150  0.72946209  0.18022694  1
  S  S68  1  0.89501183  0.97787910  0.12272864  1
  S  S69  1  0.22449848  0.85630382  0.14957771  1
  S  S70  1  0.74465983  0.35663372  0.14894208  1
  S  S71  1  0.61900424  0.51525779  0.28883674  1
  S  S72  1  0.61919447  0.24467524  0.23494432  1
  S  S73  1  0.11888095  0.01007123  0.28800818  1
  S  S74  1  0.11820080  0.74008593  0.23414492  1
  S  S75  1  0.40267487  0.76046482  0.28779663  1
  S  S76  1  0.40683300  0.99524404  0.23226361  1
  S  S77  1  0.90637743  0.25915516  0.29095808  1
  S  S78  1  0.90325796  0.49400348  0.23532445  1
  S  S79  1  0.23023501  0.37537001  0.26158925  1
  S  S80  1  0.73036420  0.87973477  0.26140202  1
  S  S81  1  0.62215241  0.04703892  0.39803709  1
  S  S82  1  0.61689803  0.76970319  0.34336137  1
  S  S83  1  0.10198380  0.54482704  0.40066064  1
  S  S84  1  0.12681998  0.25604712  0.34553545  1
  S  S85  1  0.39427578  0.27779636  0.40012619  1
  S  S86  1  0.39603058  0.52366277  0.34270816  1
  S  S87  1  0.87915748  0.78027270  0.40418166  1
  S  S88  1  0.91190572  0.01494769  0.34536179  1
  S  S89  1  0.24519772  0.89808152  0.37399520  1
  S  S90  1  0.72480409  0.39849259  0.37321501  1
  S  S91  1  0.60929042  0.28111149  0.45648412  1
  S  S92  1  0.10067531  0.78746884  0.45853899  1
  S  S93  1  0.40730793  0.03073318  0.45505617  1
  S  S94  1  0.89860862  0.53467113  0.45898294  1
  S  S95  1  0.22638526  0.39338734  0.48238180  1
  Cl  Cl96  1  0.93917586  0.58825290  0.10332660  1
  Cl  Cl97  1  0.44621712  0.09147236  0.09844060  1
  Cl  Cl98  1  0.94174433  0.11990672  0.20575669  1
  Cl  Cl99  1  0.43233165  0.61659680  0.20417134  1
  Cl  Cl100  1  0.93187685  0.63852483  0.31878722  1
  Cl  Cl101  1  0.44107839  0.13512351  0.31699381  1
  Cl  Cl102  1  0.94533489  0.16380726  0.42460540  1
  Cl  Cl103  1  0.43889955  0.66646840  0.41953494  1
