# generated using pymatgen
data_Li6PS5Cl
_symmetry_space_group_name_H-M   'P 1'
_cell_length_a   12.27546900
_cell_length_b   7.10693005
_cell_length_c   43.09742100
_cell_angle_alpha   90.00000000
_cell_angle_beta   90.00000000
_cell_angle_gamma   124.56779534
_symmetry_Int_Tables_number   1
_chemical_formula_structural   Li6PS5Cl
_chemical_formula_sum   'Li36 P6 S30 Cl6'
_cell_volume   3096.07522644
_cell_formula_units_Z   6
loop_
 _symmetry_equiv_pos_site_id
 _symmetry_equiv_pos_as_xyz
  1  'x, y, z'
loop_
 _atom_site_type_symbol
 _atom_site_label
 _atom_site_symmetry_multiplicity
 _atom_site_fract_x
 _atom_site_fract_y
 _atom_site_fract_z
 _atom_site_occupancy
  Li  Li0  1  0.93481233  0.83999747  0.07447935  1
  Li  Li1  1  0.91942018  0.80666226  0.01007669  1
  Li  Li2  1  0.48105040  0.01459031  0.12890284  1
  Li  Li3  1  0.27944872  0.62319262  0.07816989  1
  Li  Li4  1  0.74905895  0.02520865  0.07853205  1
  Li  Li5  1  0.74660866  0.08219445  0.01664584  1
  Li  Li6  1  0.23020508  0.00524591  0.15768992  1
  Li  Li7  1  0.22235077  0.01372458  0.09020532  1
  Li  Li8  1  0.67774222  0.41040461  0.06190977  1
  Li  Li9  1  0.22730959  0.49273875  0.15622993  1
  Li  Li10  1  0.53672243  0.66581076  0.04507171  1
  Li  Li11  1  0.02025735  0.59253554  0.12253977  1
  Li  Li12  1  0.93680422  0.83717378  0.24220324  1
  Li  Li13  1  0.92249954  0.81381953  0.17258400  1
  Li  Li14  1  0.42260335  0.81255258  0.32718862  1
  Li  Li15  1  0.43692267  0.83665521  0.25780074  1
  Li  Li16  1  0.73890049  0.00809697  0.24304713  1
  Li  Li17  1  0.73548734  0.00636129  0.17510479  1
  Li  Li18  1  0.23591188  0.00353778  0.32476378  1
  Li  Li19  1  0.23973338  0.00659717  0.25655473  1
  Li  Li20  1  0.71957269  0.40410985  0.21159422  1
  Li  Li21  1  0.21938556  0.40117718  0.28862657  1
  Li  Li22  1  0.53427012  0.60870915  0.20761325  1
  Li  Li23  1  0.03426231  0.60862185  0.29234368  1
  Li  Li24  1  0.77947767  0.62350866  0.42189823  1
  Li  Li25  1  0.98014597  0.01322613  0.37146020  1
  Li  Li26  1  0.41893761  0.80674058  0.49007550  1
  Li  Li27  1  0.43434875  0.83917597  0.42555468  1
  Li  Li28  1  0.72204990  0.01351144  0.40981633  1
  Li  Li29  1  0.73016627  0.00513161  0.34231175  1
  Li  Li30  1  0.24657402  0.08225663  0.48331114  1
  Li  Li31  1  0.24883260  0.02463897  0.42149767  1
  Li  Li32  1  0.72760968  0.49314858  0.34366096  1
  Li  Li33  1  0.17767829  0.41029437  0.43810117  1
  Li  Li34  1  0.51990869  0.59222635  0.37750189  1
  Li  Li35  1  0.03637607  0.66552353  0.45495935  1
  P  P36  1  0.51123155  0.52924686  0.12322071  1
  P  P37  1  0.01474742  0.54803734  0.03727556  1
  P  P38  1  0.51478029  0.52226680  0.29230702  1
  P  P39  1  0.01471083  0.52276063  0.20764626  1
  P  P40  1  0.51454545  0.54797073  0.46283969  1
  P  P41  1  0.01108998  0.52888826  0.37677681  1
  S  S42  1  0.88630178  0.43514076  0.07662886  1
  S  S43  1  0.90100088  0.45533173  0.99802615  1
  S  S44  1  0.39444720  0.40863524  0.16273884  1
  S  S45  1  0.38816901  0.42077065  0.08479990  1
  S  S46  1  0.75662502  0.78832591  0.04133153  1
  S  S47  1  0.25232382  0.77606564  0.12306130  1
  S  S48  1  0.63183074  0.41950740  0.12084082  1
  S  S49  1  0.12362302  0.41919567  0.03780145  1
  S  S50  1  0.62456133  0.88262742  0.12549576  1
  S  S51  1  0.11652247  0.90066730  0.03972015  1
  S  S52  1  0.89358724  0.42515267  0.24660109  1
  S  S53  1  0.88594286  0.42046781  0.17005067  1
  S  S54  1  0.38586513  0.41888116  0.32988471  1
  S  S55  1  0.39373819  0.42467369  0.25334867  1
  S  S56  1  0.76460211  0.77595084  0.20889731  1
  S  S57  1  0.26441826  0.77386272  0.29093435  1
  S  S58  1  0.62624319  0.39973582  0.29232441  1
  S  S59  1  0.12600584  0.39993528  0.20761696  1
  S  S60  1  0.61877655  0.87771868  0.29262808  1
  S  S61  1  0.11873016  0.87819124  0.20732927  1
  S  S62  1  0.88790357  0.42055225  0.41518020  1
  S  S63  1  0.89438820  0.40834016  0.33724122  1
  S  S64  1  0.40079666  0.45514677  0.50209399  1
  S  S65  1  0.38605729  0.43464780  0.42348881  1
  S  S66  1  0.75183237  0.77540777  0.37697183  1
  S  S67  1  0.25624085  0.78785033  0.45872282  1
  S  S68  1  0.62361424  0.41947280  0.46229173  1
  S  S69  1  0.13145477  0.41864767  0.37919177  1
  S  S70  1  0.61603312  0.90057975  0.46036655  1
  S  S71  1  0.12449814  0.88222346  0.37444854  1
  Cl  Cl72  1  0.55435506  0.01134940  0.04251174  1
  Cl  Cl73  1  0.04154209  0.98692511  0.12535481  1
  Cl  Cl74  1  0.55914330  0.99697533  0.21051780  1
  Cl  Cl75  1  0.05921455  0.99532550  0.28945401  1
  Cl  Cl76  1  0.54094062  0.98565369  0.37461409  1
  Cl  Cl77  1  0.05404112  0.01093292  0.45739706  1
