# generated using pymatgen
data_Li6PS5Cl
_symmetry_space_group_name_H-M   'P 1'
_cell_length_a   14.22256100
_cell_length_b   17.32608538
_cell_length_c   39.50053700
_cell_angle_alpha   90.00000000
_cell_angle_beta   90.00000000
_cell_angle_gamma   35.67159034
_symmetry_Int_Tables_number   1
_chemical_formula_structural   Li6PS5Cl
_chemical_formula_sum   'Li72 P12 S60 Cl12'
_cell_volume   5676.13807824
_cell_formula_units_Z   12
loop_
 _symmetry_equiv_pos_site_id
 _symmetry_equiv_pos_as_xyz
  1  'x, y, z'
loop_
 _atom_site_type_symbol
 _atom_site_label
 _atom_site_symmetry_multiplicity
 _atom_site_fract_x
 _atom_site_fract_y
 _atom_site_fract_z
 _atom_site_occupancy
  Li  Li0  1  0.14358825  0.72823498  0.02622015  1
  Li  Li1  1  0.57515126  0.46687075  0.05068549  1
  Li  Li2  1  0.64385856  0.72808802  0.02620717  1
  Li  Li3  1  0.07508394  0.46691724  0.05069779  1
  Li  Li4  1  0.26031800  0.47573434  0.02801917  1
  Li  Li5  1  0.50014098  0.31638887  0.07322415  1
  Li  Li6  1  0.76131348  0.47496814  0.02808743  1
  Li  Li7  1  0.00008589  0.31645836  0.07330768  1
  Li  Li8  1  0.27145226  0.69249816  0.08862292  1
  Li  Li9  1  0.77146627  0.69247412  0.08863710  1
  Li  Li10  1  0.21945069  0.57423622  0.10208902  1
  Li  Li11  1  0.71928525  0.57435064  0.10208109  1
  Li  Li12  1  0.90244306  0.24040326  0.11934846  1
  Li  Li13  1  0.32669905  0.96185674  0.09990339  1
  Li  Li14  1  0.40245989  0.24039923  0.11934235  1
  Li  Li15  1  0.82667834  0.96190212  0.09989060  1
  Li  Li16  1  0.03076003  0.04137834  0.07746667  1
  Li  Li17  1  0.39564889  0.78431256  0.13704550  1
  Li  Li18  1  0.53074321  0.04139157  0.07746522  1
  Li  Li19  1  0.89561724  0.78434607  0.13704853  1
  Li  Li20  1  0.15489161  0.07195001  0.18235974  1
  Li  Li21  1  0.65465622  0.07235283  0.18230964  1
  Li  Li22  1  0.04325797  0.96970599  0.16426928  1
  Li  Li23  1  0.54325897  0.96973137  0.16427207  1
  Li  Li24  1  0.64439402  0.72742351  0.21051199  1
  Li  Li25  1  0.03089052  0.47774026  0.19378184  1
  Li  Li26  1  0.14456192  0.72731332  0.21049550  1
  Li  Li27  1  0.53238715  0.47688956  0.19398032  1
  Li  Li28  1  0.79666494  0.45462690  0.19210118  1
  Li  Li29  1  0.09402181  0.27221666  0.22859746  1
  Li  Li30  1  0.29660454  0.45464271  0.19210409  1
  Li  Li31  1  0.59402104  0.27219823  0.22859904  1
  Li  Li32  1  0.89718377  0.56812878  0.27803996  1
  Li  Li33  1  0.39708304  0.56816640  0.27803342  1
  Li  Li34  1  0.79148761  0.45421839  0.26401766  1
  Li  Li35  1  0.29150235  0.45420392  0.26401535  1
  Li  Li36  1  0.64612209  0.06854703  0.26746163  1
  Li  Li37  1  0.78293776  0.97628814  0.35160669  1
  Li  Li38  1  0.14611404  0.06859700  0.26747527  1
  Li  Li39  1  0.28291632  0.97629794  0.35161401  1
  Li  Li40  1  0.54157406  0.95344212  0.28149549  1
  Li  Li41  1  0.84514640  0.77171124  0.31695585  1
  Li  Li42  1  0.04154562  0.95346658  0.28149441  1
  Li  Li43  1  0.34510764  0.77174740  0.31696129  1
  Li  Li44  1  0.39528499  0.22658903  0.33514440  1
  Li  Li45  1  0.89526339  0.22667846  0.33523573  1
  Li  Li46  1  0.54779172  0.95463601  0.35366403  1
  Li  Li47  1  0.04786682  0.95447915  0.35361576  1
  Li  Li48  1  0.40556840  0.57180190  0.36293837  1
  Li  Li49  1  0.57800265  0.46143646  0.44537679  1
  Li  Li50  1  0.90527000  0.57204528  0.36292054  1
  Li  Li51  1  0.07815606  0.46135768  0.44542720  1
  Li  Li52  1  0.29446740  0.46997149  0.38053621  1
  Li  Li53  1  0.64683750  0.28358950  0.40876012  1
  Li  Li54  1  0.79452941  0.47004232  0.38057922  1
  Li  Li55  1  0.14717622  0.28406630  0.40862445  1
  Li  Li56  1  0.15165524  0.74118006  0.42624821  1
  Li  Li57  1  0.65159605  0.74122210  0.42625228  1
  Li  Li58  1  0.28120465  0.54051448  0.46748739  1
  Li  Li59  1  0.78119302  0.54052887  0.46748152  1
  Li  Li60  1  0.02377320  0.19031142  0.45671131  1
  Li  Li61  1  0.32677190  0.96541260  0.49468921  1
  Li  Li62  1  0.52379609  0.19030426  0.45672462  1
  Li  Li63  1  0.82679441  0.96536976  0.49470274  1
  Li  Li64  1  0.97183720  0.07208557  0.44371971  1
  Li  Li65  1  0.25107409  0.81589440  0.47308058  1
  Li  Li66  1  0.47181578  0.07208175  0.44372529  1
  Li  Li67  1  0.75118270  0.81590927  0.47306499  1
  Li  Li68  1  0.89564114  0.22749942  0.51914836  1
  Li  Li69  1  0.39561729  0.22738852  0.51914675  1
  Li  Li70  1  0.00980652  0.97552462  0.51775768  1
  Li  Li71  1  0.50982816  0.97549284  0.51775290  1
  P  P72  1  0.88109906  0.75119550  0.04372585  1
  P  P73  1  0.38133335  0.75108614  0.04373081  1
  P  P74  1  0.65141752  0.25318341  0.13752275  1
  P  P75  1  0.15144134  0.25308938  0.13752366  1
  P  P76  1  0.37726686  0.75569056  0.22514371  1
  P  P77  1  0.87713975  0.75579956  0.22513388  1
  P  P78  1  0.12798674  0.25506863  0.32041621  1
  P  P79  1  0.62795538  0.25508931  0.32039382  1
  P  P80  1  0.90199939  0.75267395  0.40816547  1
  P  P81  1  0.40201686  0.75263343  0.40816717  1
  P  P82  1  0.63168733  0.25062415  0.50164208  1
  P  P83  1  0.13167522  0.25062532  0.50158828  1
  S  S84  1  0.14968940  0.86044261  0.04466770  1
  S  S85  1  0.49151108  0.63901953  0.08891980  1
  S  S86  1  0.64946706  0.86052376  0.04471807  1
  S  S87  1  0.99149718  0.63905681  0.08889804  1
  S  S88  1  0.35888120  0.52113714  0.05325608  1
  S  S89  1  0.85896406  0.52110733  0.05328661  1
  S  S90  1  0.86699716  0.87805535  0.04127281  1
  S  S91  1  0.36725698  0.87794102  0.04131038  1
  S  S92  1  0.00575349  0.61868446  0.00502589  1
  S  S93  1  0.50637688  0.61839191  0.00506329  1
  S  S94  1  0.91727893  0.36486034  0.13594227  1
  S  S95  1  0.26557251  0.13219550  0.17944543  1
  S  S96  1  0.41732931  0.36484284  0.13593185  1
  S  S97  1  0.76559473  0.13229910  0.17944918  1
  S  S98  1  0.13703330  0.01070967  0.13143900  1
  S  S99  1  0.63703818  0.01074232  0.13143628  1
  S  S100  1  0.63604115  0.38019426  0.13860949  1
  S  S101  1  0.13613230  0.38006934  0.13858152  1
  S  S102  1  0.76994405  0.13941674  0.09417423  1
  S  S103  1  0.26994883  0.13935634  0.09418045  1
  S  S104  1  0.64496572  0.86798920  0.22292882  1
  S  S105  1  0.99694983  0.63510176  0.26716112  1
  S  S106  1  0.14512132  0.86785453  0.22291890  1
  S  S107  1  0.49696851  0.63506239  0.26718170  1
  S  S108  1  0.87300303  0.50590922  0.22891802  1
  S  S109  1  0.37326825  0.50576278  0.22891385  1
  S  S110  1  0.36512534  0.88231292  0.22515337  1
  S  S111  1  0.86509152  0.88234254  0.22510806  1
  S  S112  1  0.50139011  0.63496452  0.18301681  1
  S  S113  1  0.00130593  0.63501940  0.18301040  1
  S  S114  1  0.39585148  0.36701445  0.32247258  1
  S  S115  1  0.75203334  0.13454017  0.36253421  1
  S  S116  1  0.89589632  0.36701501  0.32249332  1
  S  S117  1  0.25206581  0.13452699  0.36256042  1
  S  S118  1  0.62368054  0.00528918  0.31658424  1
  S  S119  1  0.12355065  0.00541160  0.31660481  1
  S  S120  1  0.11588722  0.38170243  0.32031299  1
  S  S121  1  0.61590703  0.38169266  0.32026891  1
  S  S122  1  0.24730874  0.13465404  0.27834686  1
  S  S123  1  0.74730482  0.13460440  0.27833601  1
  S  S124  1  0.16802469  0.86427228  0.40978013  1
  S  S125  1  0.52033935  0.63917250  0.45153068  1
  S  S126  1  0.66800395  0.86433240  0.40978370  1
  S  S127  1  0.02033178  0.63920085  0.45152798  1
  S  S128  1  0.38750230  0.51080965  0.41382886  1
  S  S129  1  0.88751105  0.51097624  0.41385016  1
  S  S130  1  0.88603629  0.88009022  0.40704893  1
  S  S131  1  0.38600783  0.88008517  0.40705461  1
  S  S132  1  0.01621213  0.63186559  0.36621446  1
  S  S133  1  0.51627513  0.63182348  0.36621642  1
  S  S134  1  0.90001681  0.36008846  0.50034807  1
  S  S135  1  0.25494763  0.11874101  0.54040815  1
  S  S136  1  0.40006204  0.36002504  0.50037543  1
  S  S137  1  0.75498319  0.11876988  0.54046577  1
  S  S138  1  0.11011685  0.02002917  0.49258319  1
  S  S139  1  0.61012473  0.02001276  0.49258238  1
  S  S140  1  0.61864136  0.37678470  0.50399678  1
  S  S141  1  0.11866328  0.37676468  0.50399548  1
  S  S142  1  0.74288750  0.13783009  0.45658115  1
  S  S143  1  0.24266198  0.13807737  0.45649675  1
  Cl  Cl144  1  0.37437705  0.28165706  0.05506697  1
  Cl  Cl145  1  0.87466065  0.28140614  0.05509199  1
  Cl  Cl146  1  0.09219635  0.76579941  0.13222326  1
  Cl  Cl147  1  0.59216725  0.76581740  0.13226461  1
  Cl  Cl148  1  0.92805287  0.26051867  0.22575595  1
  Cl  Cl149  1  0.42820273  0.26044990  0.22574425  1
  Cl  Cl150  1  0.67891838  0.75992109  0.31986898  1
  Cl  Cl151  1  0.17889228  0.75993063  0.31986941  1
  Cl  Cl152  1  0.34397637  0.26395755  0.41330768  1
  Cl  Cl153  1  0.84389266  0.26389108  0.41331461  1
  Cl  Cl154  1  0.12480277  0.78135823  0.49058159  1
  Cl  Cl155  1  0.62478578  0.78138586  0.49057476  1
