# generated using pymatgen
data_Li6PS5Cl
_symmetry_space_group_name_H-M   'P 1'
_cell_length_a   10.60410300
_cell_length_b   9.80224400
_cell_length_c   44.06332100
_cell_angle_alpha   90.00000000
_cell_angle_beta   90.00000000
_cell_angle_gamma   90.00000000
_symmetry_Int_Tables_number   1
_chemical_formula_structural   Li6PS5Cl
_chemical_formula_sum   'Li48 P8 S40 Cl8'
_cell_volume   4580.11805865
_cell_formula_units_Z   8
loop_
 _symmetry_equiv_pos_site_id
 _symmetry_equiv_pos_as_xyz
  1  'x, y, z'
loop_
 _atom_site_type_symbol
 _atom_site_label
 _atom_site_symmetry_multiplicity
 _atom_site_fract_x
 _atom_site_fract_y
 _atom_site_fract_z
 _atom_site_occupancy
  Li  Li0  1  0.60500778  0.61683882  0.04708058  1
  Li  Li1  1  0.89018188  0.94600596  0.05310216  1
  Li  Li2  1  0.55577079  0.85366687  0.08335613  1
  Li  Li3  1  0.30360597  0.21664140  0.10550302  1
  Li  Li4  1  0.97995311  0.33865934  0.15220633  1
  Li  Li5  1  0.79600847  0.71921563  0.09931738  1
  Li  Li6  1  0.81090786  0.07321270  0.17446841  1
  Li  Li7  1  0.78286086  0.53516775  0.15604797  1
  Li  Li8  1  0.77797712  0.33271847  0.10773497  1
  Li  Li9  1  0.77378834  0.29151276  0.21619812  1
  Li  Li10  1  0.28388105  0.57124352  0.16823790  1
  Li  Li11  1  0.31703030  0.00963125  0.15666843  1
  Li  Li12  1  0.27445283  0.80697913  0.11069215  1
  Li  Li13  1  0.28477885  0.77219507  0.21402554  1
  Li  Li14  1  0.06157463  0.95477370  0.17581208  1
  Li  Li15  1  0.02587931  0.71005820  0.14705348  1
  Li  Li16  1  0.53979053  0.41657758  0.17282741  1
  Li  Li17  1  0.57449635  0.13381842  0.15105947  1
  Li  Li18  1  0.79539203  0.59392234  0.28291735  1
  Li  Li19  1  0.79427256  0.04661852  0.26971476  1
  Li  Li20  1  0.80388089  0.84574783  0.22506796  1
  Li  Li21  1  0.80180055  0.79634342  0.32583039  1
  Li  Li22  1  0.29228357  0.08926712  0.28050676  1
  Li  Li23  1  0.29472364  0.54272587  0.26771072  1
  Li  Li24  1  0.30193756  0.34177079  0.22449093  1
  Li  Li25  1  0.30468958  0.28979273  0.32516983  1
  Li  Li26  1  0.04306101  0.41871841  0.29687709  1
  Li  Li27  1  0.03951435  0.22257432  0.25518138  1
  Li  Li28  1  0.53970441  0.91503414  0.29524696  1
  Li  Li29  1  0.54306484  0.71651501  0.25342054  1
  Li  Li30  1  0.81677687  0.12682847  0.39384549  1
  Li  Li31  1  0.78476974  0.56664357  0.38192935  1
  Li  Li32  1  0.78562895  0.36531524  0.33621645  1
  Li  Li33  1  0.77757805  0.32947414  0.43976901  1
  Li  Li34  1  0.28436885  0.60224462  0.39433628  1
  Li  Li35  1  0.31039336  0.06491927  0.37643381  1
  Li  Li36  1  0.27542554  0.84570060  0.33470038  1
  Li  Li37  1  0.27683575  0.80487050  0.44274213  1
  Li  Li38  1  0.07431924  0.00184985  0.39979414  1
  Li  Li39  1  0.04101638  0.71940214  0.37804130  1
  Li  Li40  1  0.52631530  0.42756571  0.40342829  1
  Li  Li41  1  0.56206209  0.18276062  0.37474480  1
  Li  Li42  1  0.05800630  0.28240339  0.46701834  1
  Li  Li43  1  0.80354622  0.91997270  0.44514407  1
  Li  Li44  1  0.10814265  0.51855875  0.50371984  1
  Li  Li45  1  0.39266560  0.19073372  0.49699370  1
  Li  Li46  1  0.29679827  0.41951094  0.45095783  1
  Li  Li47  1  0.47995009  0.79814562  0.39854902  1
  P  P48  1  0.49936265  0.53442361  0.10560832  1
  P  P49  1  0.00823277  0.03772853  0.10810628  1
  P  P50  1  0.52304997  0.06066950  0.21987145  1
  P  P51  1  0.01472044  0.55615461  0.22075922  1
  P  P52  1  0.51502747  0.58055358  0.32977959  1
  P  P53  1  0.02365007  0.07555637  0.33078289  1
  P  P54  1  0.50986700  0.09826393  0.44220855  1
  P  P55  1  0.00033632  0.60213953  0.44534799  1
  S  S56  1  0.60056674  0.40833152  0.07806212  1
  S  S57  1  0.10837957  0.91435141  0.08029200  1
  S  S58  1  0.39820155  0.66075972  0.07751742  1
  S  S59  1  0.90605214  0.16441238  0.08161725  1
  S  S60  1  0.72568624  0.80234049  0.05393714  1
  S  S61  1  0.62649321  0.93918040  0.19129393  1
  S  S62  1  0.60159933  0.65168599  0.13581319  1
  S  S63  1  0.11745639  0.42637759  0.19333217  1
  S  S64  1  0.12158527  0.14952817  0.13855866  1
  S  S65  1  0.41179750  0.18039915  0.19147503  1
  S  S66  1  0.37922747  0.41593819  0.13248925  1
  S  S67  1  0.89568888  0.67080912  0.19396551  1
  S  S68  1  0.89375011  0.91831892  0.13671017  1
  S  S69  1  0.22417685  0.79751328  0.16337771  1
  S  S70  1  0.74494844  0.29794795  0.16285526  1
  S  S71  1  0.61814587  0.45636355  0.30255990  1
  S  S72  1  0.61851536  0.18422394  0.24898991  1
  S  S73  1  0.11906231  0.95135402  0.30179753  1
  S  S74  1  0.11773337  0.68033627  0.24797862  1
  S  S75  1  0.40325684  0.70236211  0.30158015  1
  S  S76  1  0.40574039  0.93577395  0.24589273  1
  S  S77  1  0.90657879  0.20004161  0.30456059  1
  S  S78  1  0.90296507  0.43412500  0.24895641  1
  S  S79  1  0.23041648  0.31678144  0.27515500  1
  S  S80  1  0.73022125  0.81956979  0.27518171  1
  S  S81  1  0.62256644  0.98664393  0.41162786  1
  S  S82  1  0.61739233  0.71076699  0.35722092  1
  S  S83  1  0.10302234  0.48579966  0.41499318  1
  S  S84  1  0.12660991  0.19781236  0.35927417  1
  S  S85  1  0.39534794  0.21910061  0.41392207  1
  S  S86  1  0.39548383  0.46577600  0.35647738  1
  S  S87  1  0.88009129  0.72036539  0.41838519  1
  S  S88  1  0.91218731  0.95601132  0.35913386  1
  S  S89  1  0.24484379  0.83938409  0.38788462  1
  S  S90  1  0.72513402  0.34009001  0.38707846  1
  S  S91  1  0.61161865  0.21961375  0.47010620  1
  S  S92  1  0.10162563  0.72808673  0.47293122  1
  S  S93  1  0.40746409  0.97153823  0.46863707  1
  S  S94  1  0.89953755  0.47520701  0.47334340  1
  S  S95  1  0.22822315  0.33391521  0.49630501  1
  Cl  Cl96  1  0.93836895  0.52928534  0.11696310  1
  Cl  Cl97  1  0.44566283  0.03211668  0.11221125  1
  Cl  Cl98  1  0.94172245  0.05934031  0.21979214  1
  Cl  Cl99  1  0.43201188  0.55766080  0.21784858  1
  Cl  Cl100  1  0.93241791  0.57910113  0.33252730  1
  Cl  Cl101  1  0.44147435  0.07675528  0.33092641  1
  Cl  Cl102  1  0.94601081  0.10464547  0.43840913  1
  Cl  Cl103  1  0.43938015  0.60799616  0.43350441  1
