# generated using pymatgen
data_Li6PS5Cl
_symmetry_space_group_name_H-M   'P 1'
_cell_length_a   10.60410300
_cell_length_b   9.80224400
_cell_length_c   44.06332100
_cell_angle_alpha   90.00000000
_cell_angle_beta   90.00000000
_cell_angle_gamma   90.00000000
_symmetry_Int_Tables_number   1
_chemical_formula_structural   Li6PS5Cl
_chemical_formula_sum   'Li48 P8 S40 Cl8'
_cell_volume   4580.11805865
_cell_formula_units_Z   8
loop_
 _symmetry_equiv_pos_site_id
 _symmetry_equiv_pos_as_xyz
  1  'x, y, z'
loop_
 _atom_site_type_symbol
 _atom_site_label
 _atom_site_symmetry_multiplicity
 _atom_site_fract_x
 _atom_site_fract_y
 _atom_site_fract_z
 _atom_site_occupancy
  Li  Li0  1  0.60852386  0.82971149  0.99733561  1
  Li  Li1  1  0.78385074  0.74853332  0.10618066  1
  Li  Li2  1  0.77830672  0.54658033  0.05799948  1
  Li  Li3  1  0.89180795  0.15966008  0.00392683  1
  Li  Li4  1  0.55629954  0.06884688  0.03324376  1
  Li  Li5  1  0.31822135  0.22323524  0.10713750  1
  Li  Li6  1  0.27662520  0.02091947  0.06087499  1
  Li  Li7  1  0.30372308  0.42880647  0.05541563  1
  Li  Li8  1  0.98092027  0.55312845  0.10220885  1
  Li  Li9  1  0.02737000  0.92502414  0.09699517  1
  Li  Li10  1  0.79615221  0.93181740  0.04992201  1
  Li  Li11  1  0.57468753  0.34974000  0.10124668  1
  Li  Li12  1  0.81071929  0.28649073  0.12490722  1
  Li  Li13  1  0.79552778  0.25993600  0.21976178  1
  Li  Li14  1  0.80394231  0.05928180  0.17523991  1
  Li  Li15  1  0.77287012  0.50932001  0.16609082  1
  Li  Li16  1  0.28333147  0.78238562  0.11852649  1
  Li  Li17  1  0.29177329  0.75655487  0.21874698  1
  Li  Li18  1  0.30416513  0.55756539  0.17510696  1
  Li  Li19  1  0.28938361  0.98510433  0.16402083  1
  Li  Li20  1  0.06260113  0.16681438  0.12631797  1
  Li  Li21  1  0.03911559  0.43873023  0.20449308  1
  Li  Li22  1  0.54153015  0.63158484  0.12272149  1
  Li  Li23  1  0.54204836  0.92901550  0.20423763  1
  Li  Li24  1  0.79532267  0.80800452  0.23312208  1
  Li  Li25  1  0.78535366  0.77777352  0.33204300  1
  Li  Li26  1  0.78247459  0.57611548  0.28649280  1
  Li  Li27  1  0.80007891  0.00876277  0.27622012  1
  Li  Li28  1  0.28961170  0.30149921  0.23044340  1
  Li  Li29  1  0.30681232  0.27862370  0.32752360  1
  Li  Li30  1  0.27853903  0.06175306  0.28530369  1
  Li  Li31  1  0.30699160  0.50032038  0.27552209  1
  Li  Li32  1  0.04188686  0.62783572  0.24806485  1
  Li  Li33  1  0.04156620  0.92969409  0.32792426  1
  Li  Li34  1  0.53900623  0.12949469  0.24529069  1
  Li  Li35  1  0.56184675  0.39085462  0.32576145  1
  Li  Li36  1  0.81731396  0.33945082  0.34418197  1
  Li  Li37  1  0.05667741  0.49709121  0.41684664  1
  Li  Li38  1  0.80483219  0.13213518  0.39619421  1
  Li  Li39  1  0.77199625  0.54312888  0.39047070  1
  Li  Li40  1  0.28395355  0.81408522  0.34509736  1
  Li  Li41  1  0.10312700  0.73214725  0.45404112  1
  Li  Li42  1  0.38843995  0.40317234  0.44822283  1
  Li  Li43  1  0.27783914  0.01598155  0.39343009  1
  Li  Li44  1  0.07052541  0.21011430  0.35036996  1
  Li  Li45  1  0.29830161  0.63033869  0.40192531  1
  Li  Li46  1  0.52520579  0.64004267  0.35306372  1
  Li  Li47  1  0.47945235  0.01164115  0.34891037  1
  P  P48  1  0.50007527  0.74669794  0.05558618  1
  P  P49  1  0.00982143  0.25159608  0.05861439  1
  P  P50  1  0.52418228  0.27570157  0.17002201  1
  P  P51  1  0.01551417  0.76995476  0.17098990  1
  P  P52  1  0.51383163  0.79411984  0.28005137  1
  P  P53  1  0.02338214  0.28841087  0.28113319  1
  P  P54  1  0.50875058  0.31087104  0.39347482  1
  P  P55  1  0.99955344  0.81490417  0.39542343  1
  S  S56  1  0.60105123  0.62023898  0.02804248  1
  S  S57  1  0.60267490  0.86337183  0.08589828  1
  S  S58  1  0.10986285  0.12828347  0.03075020  1
  S  S59  1  0.12335398  0.36312227  0.08898269  1
  S  S60  1  0.39942331  0.87381171  0.02760360  1
  S  S61  1  0.38014068  0.62817781  0.08250688  1
  S  S62  1  0.90797976  0.37854933  0.03209861  1
  S  S63  1  0.89495390  0.13211582  0.08711904  1
  S  S64  1  0.72731626  0.01611471  0.00445461  1
  S  S65  1  0.62673909  0.15388278  0.14132989  1
  S  S66  1  0.62031200  0.39863269  0.19911853  1
  S  S67  1  0.11757449  0.63779659  0.14389912  1
  S  S68  1  0.11903641  0.89502417  0.19784540  1
  S  S69  1  0.41269389  0.39563709  0.14176024  1
  S  S70  1  0.40695445  0.15073706  0.19607908  1
  S  S71  1  0.89689193  0.88439983  0.14402600  1
  S  S72  1  0.90323647  0.64883392  0.19930504  1
  S  S73  1  0.22612109  0.01009780  0.11347975  1
  S  S74  1  0.74613429  0.51185152  0.11293115  1
  S  S75  1  0.61672830  0.67045106  0.25262908  1
  S  S76  1  0.61691612  0.92272802  0.30767376  1
  S  S77  1  0.11940853  0.16349864  0.25245104  1
  S  S78  1  0.12559070  0.41131180  0.30959354  1
  S  S79  1  0.40239909  0.91685839  0.25194608  1
  S  S80  1  0.39406247  0.67911799  0.30661375  1
  S  S81  1  0.90637181  0.41270806  0.25482826  1
  S  S82  1  0.91136101  0.16864215  0.30932573  1
  S  S83  1  0.23011001  0.52969661  0.22561227  1
  S  S84  1  0.72991060  0.03346147  0.22543835  1
  S  S85  1  0.62241767  0.19876981  0.36311041  1
  S  S86  1  0.60928799  0.43282310  0.42144850  1
  S  S87  1  0.10265631  0.69718850  0.36544006  1
  S  S88  1  0.10011673  0.94099218  0.42313478  1
  S  S89  1  0.39509000  0.43144226  0.36482850  1
  S  S90  1  0.40527240  0.18435063  0.41970040  1
  S  S91  1  0.88062682  0.93367644  0.36829610  1
  S  S92  1  0.89749404  0.68881269  0.42338980  1
  S  S93  1  0.24476897  0.05144356  0.33846478  1
  S  S94  1  0.72364830  0.55143737  0.33738995  1
  S  S95  1  0.22494126  0.54776628  0.44702049  1
  Cl  Cl96  1  0.93979071  0.74330969  0.06716667  1
  Cl  Cl97  1  0.44686764  0.24538885  0.06247558  1
  Cl  Cl98  1  0.94294047  0.27164941  0.17010841  1
  Cl  Cl99  1  0.43326005  0.77177261  0.16810366  1
  Cl  Cl100  1  0.93104603  0.79120658  0.28300621  1
  Cl  Cl101  1  0.44079321  0.28805066  0.28181383  1
  Cl  Cl102  1  0.94575362  0.31700508  0.38880498  1
  Cl  Cl103  1  0.43971539  0.82011944  0.38392448  1
