# generated using pymatgen
data_Li6PS5Cl
_symmetry_space_group_name_H-M   'P 1'
_cell_length_a   10.60410300
_cell_length_b   9.80224400
_cell_length_c   44.06332100
_cell_angle_alpha   90.00000000
_cell_angle_beta   90.00000000
_cell_angle_gamma   90.00000000
_symmetry_Int_Tables_number   1
_chemical_formula_structural   Li6PS5Cl
_chemical_formula_sum   'Li48 P8 S40 Cl8'
_cell_volume   4580.11805865
_cell_formula_units_Z   8
loop_
 _symmetry_equiv_pos_site_id
 _symmetry_equiv_pos_as_xyz
  1  'x, y, z'
loop_
 _atom_site_type_symbol
 _atom_site_label
 _atom_site_symmetry_multiplicity
 _atom_site_fract_x
 _atom_site_fract_y
 _atom_site_fract_z
 _atom_site_occupancy
  Li  Li0  1  0.60501709  0.74110341  0.01823293  1
  Li  Li1  1  0.77797861  0.45566224  0.07874742  1
  Li  Li2  1  0.89141968  0.06863553  0.02412297  1
  Li  Li3  1  0.55805768  0.97703286  0.05553617  1
  Li  Li4  1  0.27610943  0.93338280  0.08200333  1
  Li  Li5  1  0.30288084  0.34174117  0.07662320  1
  Li  Li6  1  0.97999563  0.46206175  0.12330805  1
  Li  Li7  1  0.79808789  0.83968588  0.07022929  1
  Li  Li8  1  0.80923455  0.19549118  0.14498695  1
  Li  Li9  1  0.78346215  0.65738098  0.12679185  1
  Li  Li10  1  0.80523817  0.97024286  0.19639299  1
  Li  Li11  1  0.77630901  0.41297439  0.18694265  1
  Li  Li12  1  0.28411255  0.69591420  0.14002159  1
  Li  Li13  1  0.31690793  0.13445361  0.12818747  1
  Li  Li14  1  0.30065353  0.46474779  0.19603691  1
  Li  Li15  1  0.28467252  0.89773687  0.18553778  1
  Li  Li16  1  0.06139032  0.07917763  0.14694092  1
  Li  Li17  1  0.02680066  0.83416347  0.11818085  1
  Li  Li18  1  0.54032808  0.54079230  0.14443803  1
  Li  Li19  1  0.57274210  0.25943336  0.12217836  1
  Li  Li20  1  0.79451928  0.71612391  0.25392973  1
  Li  Li21  1  0.79358451  0.16980312  0.24091913  1
  Li  Li22  1  0.78605649  0.48695135  0.30797689  1
  Li  Li23  1  0.80324817  0.91683731  0.29699202  1
  Li  Li24  1  0.29216340  0.21298297  0.25197110  1
  Li  Li25  1  0.29406350  0.66620380  0.23916916  1
  Li  Li26  1  0.27808193  0.97102692  0.30598932  1
  Li  Li27  1  0.30456858  0.41358914  0.29692265  1
  Li  Li28  1  0.04266626  0.54139466  0.26834247  1
  Li  Li29  1  0.03906176  0.34610241  0.22636000  1
  Li  Li30  1  0.53994762  0.03750514  0.26670367  1
  Li  Li31  1  0.54249200  0.84014724  0.22462363  1
  Li  Li32  1  0.81905556  0.25009213  0.36535249  1
  Li  Li33  1  0.78451186  0.68915148  0.35319480  1
  Li  Li34  1  0.80400781  0.04169463  0.41679491  1
  Li  Li35  1  0.77461006  0.45158114  0.41151501  1
  Li  Li36  1  0.28438611  0.72600288  0.36584557  1
  Li  Li37  1  0.30742511  0.18907567  0.34813993  1
  Li  Li38  1  0.39023950  0.31402254  0.46862769  1
  Li  Li39  1  0.27858670  0.92680378  0.41400965  1
  Li  Li40  1  0.07128176  0.12001358  0.37111190  1
  Li  Li41  1  0.04186868  0.83965136  0.34856695  1
  Li  Li42  1  0.52678876  0.55021670  0.37489240  1
  Li  Li43  1  0.56208429  0.30377726  0.34636090  1
  Li  Li44  1  0.05640899  0.40539120  0.43835596  1
  Li  Li45  1  0.10646448  0.64310263  0.47490265  1
  Li  Li46  1  0.29640619  0.54158467  0.42275990  1
  Li  Li47  1  0.48009048  0.92188565  0.36956461  1
  P  P48  1  0.49931035  0.65840508  0.07685164  1
  P  P49  1  0.00871331  0.16128074  0.07905787  1
  P  P50  1  0.52365389  0.18491178  0.19119553  1
  P  P51  1  0.01425757  0.67981228  0.19174011  1
  P  P52  1  0.51511728  0.70335923  0.30109728  1
  P  P53  1  0.02311973  0.19823347  0.30206303  1
  P  P54  1  0.50943770  0.22131251  0.41404110  1
  P  P55  1  0.00051879  0.72478364  0.41627164  1
  S  S56  1  0.59971715  0.53186523  0.04922693  1
  S  S57  1  0.60308929  0.77563868  0.10678805  1
  S  S58  1  0.10948835  0.03808060  0.05134668  1
  S  S59  1  0.12154128  0.27356832  0.10950985  1
  S  S60  1  0.39789464  0.78494468  0.04891481  1
  S  S61  1  0.37981276  0.54031550  0.10399714  1
  S  S62  1  0.90645331  0.28761505  0.05252203  1
  S  S63  1  0.89451866  0.04119417  0.10761355  1
  S  S64  1  0.72625439  0.92576390  0.02531102  1
  S  S65  1  0.62650527  0.06288119  0.16265160  1
  S  S66  1  0.61956989  0.30895692  0.22009650  1
  S  S67  1  0.11746168  0.54964580  0.16445712  1
  S  S68  1  0.11731643  0.80420164  0.21893201  1
  S  S69  1  0.41196200  0.30487536  0.16293075  1
  S  S70  1  0.40658743  0.06017675  0.21732975  1
  S  S71  1  0.89508102  0.79409352  0.16493184  1
  S  S72  1  0.90288094  0.55773334  0.22000670  1
  S  S73  1  0.22456552  0.92226018  0.13484362  1
  S  S74  1  0.74512844  0.42099776  0.13373887  1
  S  S75  1  0.61841080  0.57842946  0.27409047  1
  S  S76  1  0.61786333  0.83369921  0.32840938  1
  S  S77  1  0.11942919  0.07430215  0.27319274  1
  S  S78  1  0.12485806  0.32104477  0.33068540  1
  S  S79  1  0.40353112  0.82522675  0.27282763  1
  S  S80  1  0.39548206  0.58939225  0.32794676  1
  S  S81  1  0.90619135  0.32264563  0.27581208  1
  S  S82  1  0.91152618  0.07819693  0.33030581  1
  S  S83  1  0.22992573  0.44014501  0.24670141  1
  S  S84  1  0.73058384  0.94255969  0.24643452  1
  S  S85  1  0.62288808  0.10938055  0.38365048  1
  S  S86  1  0.61018332  0.34322312  0.44205250  1
  S  S87  1  0.10339786  0.60766773  0.38615265  1
  S  S88  1  0.10156368  0.85095464  0.44386674  1
  S  S89  1  0.39552721  0.34204471  0.38555269  1
  S  S90  1  0.40636019  0.09478017  0.44037503  1
  S  S91  1  0.88143586  0.84375883  0.38919545  1
  S  S92  1  0.89892545  0.59873564  0.44428800  1
  S  S93  1  0.24517510  0.96211118  0.35911138  1
  S  S94  1  0.72515852  0.46222553  0.35861561  1
  S  S95  1  0.22572935  0.45712938  0.46795831  1
  Cl  Cl96  1  0.93977420  0.65196656  0.08800008  1
  Cl  Cl97  1  0.44502837  0.15635861  0.08350939  1
  Cl  Cl98  1  0.94134502  0.18372171  0.19076435  1
  Cl  Cl99  1  0.43196700  0.68113632  0.18930138  1
  Cl  Cl100  1  0.93288733  0.70155351  0.30390696  1
  Cl  Cl101  1  0.44019899  0.19897010  0.30249214  1
  Cl  Cl102  1  0.94641662  0.22627910  0.40988320  1
  Cl  Cl103  1  0.43977087  0.73132483  0.40487958  1
