# generated using pymatgen
data_LiCl
_symmetry_space_group_name_H-M   'P 1'
_cell_length_a   5.14959700
_cell_length_b   5.14959700
_cell_length_c   51.26311808
_cell_angle_alpha   90.00000000
_cell_angle_beta   90.00000000
_cell_angle_gamma   90.00000000
_symmetry_Int_Tables_number   1
_chemical_formula_structural   LiCl
_chemical_formula_sum   'Li40 Cl40'
_cell_volume   1359.41326939
_cell_formula_units_Z   40
loop_
 _symmetry_equiv_pos_site_id
 _symmetry_equiv_pos_as_xyz
  1  'x, y, z'
loop_
 _atom_site_type_symbol
 _atom_site_label
 _atom_site_symmetry_multiplicity
 _atom_site_fract_x
 _atom_site_fract_y
 _atom_site_fract_z
 _atom_site_occupancy
  Li  Li0  1  0.00000008  0.00000003  0.07507820  1
  Li  Li1  1  0.49999996  0.99999990  0.02500568  1
  Li  Li2  1  0.00000008  0.50000003  0.02500568  1
  Li  Li3  1  0.50000007  0.49999990  0.07507821  1
  Li  Li4  1  0.99999999  0.00000010  0.17503187  1
  Li  Li5  1  0.50000011  0.99999998  0.12508698  1
  Li  Li6  1  0.00000004  0.49999993  0.12508699  1
  Li  Li7  1  0.49999984  0.49999997  0.17503190  1
  Li  Li8  1  0.99999994  0.00000008  0.27498576  1
  Li  Li9  1  0.49999995  -0.00000000  0.22501426  1
  Li  Li10  1  0.99999988  0.50000019  0.22501428  1
  Li  Li11  1  0.49999989  0.50000003  0.27498575  1
  Li  Li12  1  0.00000004  0.00000023  0.37491297  1
  Li  Li13  1  0.49999999  0.00000003  0.32496814  1
  Li  Li14  1  0.00000004  0.49999998  0.32496814  1
  Li  Li15  1  0.49999994  0.50000016  0.37491304  1
  Li  Li16  1  0.00000012  0.00000017  0.47499429  1
  Li  Li17  1  0.49999997  0.00000016  0.42492180  1
  Li  Li18  1  0.99999996  0.49999999  0.42492181  1
  Li  Li19  1  0.50000003  0.50000016  0.47499430  1
  Li  Li20  1  0.00000006  0.00000011  0.57507824  1
  Li  Li21  1  0.49999997  0.00000004  0.52500569  1
  Li  Li22  1  0.00000007  0.50000021  0.52500568  1
  Li  Li23  1  0.49999997  0.50000015  0.57507819  1
  Li  Li24  1  0.00000026  0.99999996  0.67503187  1
  Li  Li25  1  0.50000013  0.00000010  0.62508698  1
  Li  Li26  1  0.00000015  0.50000007  0.62508694  1
  Li  Li27  1  0.50000015  0.49999999  0.67503187  1
  Li  Li28  1  -0.00000011  0.99999994  0.77498578  1
  Li  Li29  1  0.50000008  0.99999991  0.72501427  1
  Li  Li30  1  -0.00000004  0.50000001  0.72501424  1
  Li  Li31  1  0.50000011  0.49999995  0.77498578  1
  Li  Li32  1  -0.00000005  0.99999988  0.87491302  1
  Li  Li33  1  0.50000008  0.99999985  0.82496807  1
  Li  Li34  1  0.00000004  0.49999989  0.82496811  1
  Li  Li35  1  0.49999994  0.50000003  0.87491300  1
  Li  Li36  1  0.00000006  0.00000015  0.97499434  1
  Li  Li37  1  0.50000004  0.99999980  0.92492179  1
  Li  Li38  1  -0.00000017  0.49999991  0.92492179  1
  Li  Li39  1  0.50000003  0.49999989  0.97499433  1
  Cl  Cl40  1  0.00000006  0.50000054  0.07508871  1
  Cl  Cl41  1  0.99999957  0.00000012  0.02504265  1
  Cl  Cl42  1  0.50000009  -0.00000046  0.07508851  1
  Cl  Cl43  1  0.50000062  0.49999922  0.02504261  1
  Cl  Cl44  1  0.99999888  0.50000078  0.17508298  1
  Cl  Cl45  1  0.99999996  0.99999932  0.12510111  1
  Cl  Cl46  1  0.50000043  -0.00000023  0.17508315  1
  Cl  Cl47  1  0.50000102  0.50000035  0.12510118  1
  Cl  Cl48  1  0.00000018  0.50000043  0.27495079  1
  Cl  Cl49  1  0.99999986  0.00000110  0.22504923  1
  Cl  Cl50  1  0.49999960  -0.00000003  0.27495079  1
  Cl  Cl51  1  0.49999971  0.49999974  0.22504922  1
  Cl  Cl52  1  0.99999934  0.50000039  0.37489895  1
  Cl  Cl53  1  0.00000036  -0.00000041  0.32491680  1
  Cl  Cl54  1  0.50000047  -0.00000011  0.37489911  1
  Cl  Cl55  1  0.49999971  0.50000010  0.32491695  1
  Cl  Cl56  1  0.00000024  0.50000085  0.47495723  1
  Cl  Cl57  1  0.00000034  -0.00000075  0.42491143  1
  Cl  Cl58  1  0.50000057  -0.00000054  0.47495723  1
  Cl  Cl59  1  0.49999974  0.50000064  0.42491141  1
  Cl  Cl60  1  -0.00000085  0.49999993  0.57508866  1
  Cl  Cl61  1  -0.00000046  0.00000117  0.52504260  1
  Cl  Cl62  1  0.50000073  0.00000031  0.57508860  1
  Cl  Cl63  1  0.50000041  0.49999999  0.52504277  1
  Cl  Cl64  1  0.00000119  0.49999955  0.67508306  1
  Cl  Cl65  1  0.00000041  0.99999996  0.62510109  1
  Cl  Cl66  1  0.50000123  0.99999987  0.67508316  1
  Cl  Cl67  1  0.50000007  0.50000023  0.62510099  1
  Cl  Cl68  1  0.00000067  0.50000025  0.77495080  1
  Cl  Cl69  1  0.00000004  0.00000048  0.72504915  1
  Cl  Cl70  1  0.49999915  0.99999963  0.77495065  1
  Cl  Cl71  1  0.49999851  0.49999926  0.72504928  1
  Cl  Cl72  1  -0.00000123  0.49999960  0.87489888  1
  Cl  Cl73  1  0.00000049  0.99999960  0.82491701  1
  Cl  Cl74  1  0.49999902  -0.00000002  0.87489880  1
  Cl  Cl75  1  0.49999943  0.49999955  0.82491696  1
  Cl  Cl76  1  0.99999995  0.50000034  0.97495726  1
  Cl  Cl77  1  -0.00000011  0.00000002  0.92491153  1
  Cl  Cl78  1  0.50000117  0.99999964  0.97495723  1
  Cl  Cl79  1  0.49999878  0.49999871  0.92491145  1
