# generated using pymatgen
data_LiCl
_symmetry_space_group_name_H-M   'P 1'
_cell_length_a   5.14959700
_cell_length_b   7.28262900
_cell_length_c   51.60534225
_cell_angle_alpha   90.00000000
_cell_angle_beta   90.00000000
_cell_angle_gamma   90.00000000
_symmetry_Int_Tables_number   1
_chemical_formula_structural   LiCl
_chemical_formula_sum   'Li56 Cl56'
_cell_volume   1935.33473791
_cell_formula_units_Z   56
loop_
 _symmetry_equiv_pos_site_id
 _symmetry_equiv_pos_as_xyz
  1  'x, y, z'
loop_
 _atom_site_type_symbol
 _atom_site_label
 _atom_site_symmetry_multiplicity
 _atom_site_fract_x
 _atom_site_fract_y
 _atom_site_fract_z
 _atom_site_occupancy
  Li  Li0  1  0.00000059  0.62549167  0.05503245  1
  Li  Li1  1  0.00000057  0.12549170  0.05503249  1
  Li  Li2  1  0.50000056  0.87469945  0.02373203  1
  Li  Li3  1  0.50000046  0.37469946  0.02373204  1
  Li  Li4  1  0.00000063  0.12446442  0.12661109  1
  Li  Li5  1  0.00000062  0.62446441  0.12661109  1
  Li  Li6  1  0.50000061  0.37552248  0.09212130  1
  Li  Li7  1  0.50000060  0.87552255  0.09212130  1
  Li  Li8  1  0.00000061  0.62525965  0.19719572  1
  Li  Li9  1  0.00000061  0.12525965  0.19719572  1
  Li  Li10  1  0.50000063  0.87544275  0.16209391  1
  Li  Li11  1  0.50000063  0.37544275  0.16209390  1
  Li  Li12  1  0.00000061  0.12680037  0.26760367  1
  Li  Li13  1  0.00000061  0.62680033  0.26760367  1
  Li  Li14  1  0.50000061  0.37319980  0.23239639  1
  Li  Li15  1  0.50000060  0.87319983  0.23239639  1
  Li  Li16  1  0.00000061  0.62455762  0.33790621  1
  Li  Li17  1  0.00000062  0.12455762  0.33790621  1
  Li  Li18  1  0.50000060  0.87474052  0.30280438  1
  Li  Li19  1  0.50000059  0.37474052  0.30280438  1
  Li  Li20  1  0.00000060  0.12447775  0.40787879  1
  Li  Li21  1  0.00000062  0.62447776  0.40787880  1
  Li  Li22  1  0.50000061  0.37553585  0.37338905  1
  Li  Li23  1  0.50000061  0.87553584  0.37338905  1
  Li  Li24  1  0.00000060  0.62530056  0.47626802  1
  Li  Li25  1  0.00000061  0.12530052  0.47626801  1
  Li  Li26  1  0.50000061  0.87450857  0.44496761  1
  Li  Li27  1  0.50000060  0.37450852  0.44496757  1
  Li  Li28  1  0.00000062  0.37450723  0.55503219  1
  Li  Li29  1  0.00000059  0.87450731  0.55503216  1
  Li  Li30  1  0.50000061  0.12530018  0.52373178  1
  Li  Li31  1  0.50000059  0.62530025  0.52373180  1
  Li  Li32  1  0.00000060  0.87553582  0.62661093  1
  Li  Li33  1  0.00000062  0.37553587  0.62661093  1
  Li  Li34  1  0.50000063  0.62447775  0.59212119  1
  Li  Li35  1  0.50000061  0.12447781  0.59212119  1
  Li  Li36  1  0.00000061  0.37474042  0.69719457  1
  Li  Li37  1  0.00000060  0.87474006  0.69719458  1
  Li  Li38  1  0.50000062  0.12455712  0.66209304  1
  Li  Li39  1  0.50000061  0.62455711  0.66209304  1
  Li  Li40  1  0.00000016  0.87320055  0.76760415  1
  Li  Li41  1  0.00000017  0.37320083  0.76760413  1
  Li  Li42  1  0.50000064  0.62679954  0.73239566  1
  Li  Li43  1  0.50000049  0.12679975  0.73239567  1
  Li  Li44  1  0.00000016  0.37544297  0.83790684  1
  Li  Li45  1  0.00000018  0.87544296  0.83790684  1
  Li  Li46  1  0.50000068  0.12526028  0.80280530  1
  Li  Li47  1  0.49999930  0.62525970  0.80280520  1
  Li  Li48  1  0.00000060  0.87552263  0.90787889  1
  Li  Li49  1  0.00000062  0.37552237  0.90787889  1
  Li  Li50  1  0.50000064  0.62446434  0.87338910  1
  Li  Li51  1  0.50000046  0.12446454  0.87338911  1
  Li  Li52  1  0.00000046  0.37469969  0.97626838  1
  Li  Li53  1  0.00000056  0.87469971  0.97626836  1
  Li  Li54  1  0.50000060  0.12549190  0.94496770  1
  Li  Li55  1  0.50000058  0.62549191  0.94496772  1
  Cl  Cl56  1  0.50000086  0.62470416  0.05584845  1
  Cl  Cl57  1  0.00000087  0.87484383  0.02265205  1
  Cl  Cl58  1  0.00000094  0.37484408  0.02265205  1
  Cl  Cl59  1  0.50000083  0.12470423  0.05584846  1
  Cl  Cl60  1  0.50000076  0.12518724  0.12669154  1
  Cl  Cl61  1  0.00000079  0.37479574  0.09179606  1
  Cl  Cl62  1  0.00000081  0.87479569  0.09179607  1
  Cl  Cl63  1  0.50000078  0.62518725  0.12669153  1
  Cl  Cl64  1  0.50000070  0.62465833  0.19715544  1
  Cl  Cl65  1  0.00000073  0.87509889  0.16207245  1
  Cl  Cl66  1  0.00000072  0.37509887  0.16207245  1
  Cl  Cl67  1  0.50000071  0.12465830  0.19715544  1
  Cl  Cl68  1  0.50000069  0.12482830  0.26756279  1
  Cl  Cl69  1  0.00000069  0.37517204  0.23243730  1
  Cl  Cl70  1  0.00000069  0.87517206  0.23243731  1
  Cl  Cl71  1  0.50000068  0.62482832  0.26756280  1
  Cl  Cl72  1  0.50000067  0.62490149  0.33792769  1
  Cl  Cl73  1  0.00000068  0.87534193  0.30284467  1
  Cl  Cl74  1  0.00000068  0.37534196  0.30284467  1
  Cl  Cl75  1  0.50000068  0.12490145  0.33792768  1
  Cl  Cl76  1  0.50000070  0.12520458  0.40820397  1
  Cl  Cl77  1  0.00000066  0.37481306  0.37330858  1
  Cl  Cl78  1  0.00000068  0.87481304  0.37330859  1
  Cl  Cl79  1  0.50000068  0.62520461  0.40820396  1
  Cl  Cl80  1  0.50000066  0.62515671  0.47734759  1
  Cl  Cl81  1  0.00000062  0.87529610  0.44415133  1
  Cl  Cl82  1  0.00000071  0.37529608  0.44415134  1
  Cl  Cl83  1  0.50000068  0.12515665  0.47734760  1
  Cl  Cl84  1  0.50000068  0.37529530  0.55584811  1
  Cl  Cl85  1  0.00000067  0.12515529  0.52265272  1
  Cl  Cl86  1  0.00000068  0.62515532  0.52265271  1
  Cl  Cl87  1  0.50000073  0.87529543  0.55584810  1
  Cl  Cl88  1  0.50000066  0.87481308  0.62669103  1
  Cl  Cl89  1  0.00000067  0.62520452  0.59179577  1
  Cl  Cl90  1  0.00000068  0.12520458  0.59179576  1
  Cl  Cl91  1  0.50000068  0.37481310  0.62669103  1
  Cl  Cl92  1  0.50000066  0.37532688  0.69715047  1
  Cl  Cl93  1  0.00000068  0.12490058  0.66207244  1
  Cl  Cl94  1  0.00000066  0.62490057  0.66207242  1
  Cl  Cl95  1  0.50000068  0.87532697  0.69715048  1
  Cl  Cl96  1  0.49999777  0.87517399  0.76756237  1
  Cl  Cl97  1  0.00000084  0.62482726  0.73243751  1
  Cl  Cl98  1  0.00000046  0.12482706  0.73243779  1
  Cl  Cl99  1  0.49999773  0.37517185  0.76756229  1
  Cl  Cl100  1  0.49999771  0.37510061  0.83792769  1
  Cl  Cl101  1  0.00000102  0.12467213  0.80284987  1
  Cl  Cl102  1  0.99994075  0.62466348  0.80284819  1
  Cl  Cl103  1  0.49999772  0.87509849  0.83792760  1
  Cl  Cl104  1  0.50000087  0.87479594  0.90820404  1
  Cl  Cl105  1  0.00000100  0.62518751  0.87330883  1
  Cl  Cl106  1  0.00000062  0.12518729  0.87330909  1
  Cl  Cl107  1  0.50000087  0.37479612  0.90820405  1
  Cl  Cl108  1  0.50000096  0.37484455  0.97734794  1
  Cl  Cl109  1  0.00000093  0.12470448  0.94415167  1
  Cl  Cl110  1  0.00000093  0.62470457  0.94415165  1
  Cl  Cl111  1  0.50000094  0.87484453  0.97734795  1
