# generated using pymatgen
data_LiCl
_symmetry_space_group_name_H-M   'P 1'
_cell_length_a   7.28262900
_cell_length_b   7.28262949
_cell_length_c   53.88679925
_cell_angle_alpha   90.00000000
_cell_angle_beta   90.00000000
_cell_angle_gamma   59.99999769
_symmetry_Int_Tables_number   1
_chemical_formula_structural   LiCl
_chemical_formula_sum   'Li64 Cl64'
_cell_volume   2475.08097331
_cell_formula_units_Z   64
loop_
 _symmetry_equiv_pos_site_id
 _symmetry_equiv_pos_as_xyz
  1  'x, y, z'
loop_
 _atom_site_type_symbol
 _atom_site_label
 _atom_site_symmetry_multiplicity
 _atom_site_fract_x
 _atom_site_fract_y
 _atom_site_fract_z
 _atom_site_occupancy
  Li  Li0  1  0.71908545  0.72463612  0.01832284  1
  Li  Li1  1  0.23279624  0.80794691  0.02023596  1
  Li  Li2  1  0.71696493  0.35617419  0.06434225  1
  Li  Li3  1  0.33000951  0.36374402  0.03932487  1
  Li  Li4  1  0.43983802  0.51721939  0.11496741  1
  Li  Li5  1  0.92356331  0.45450672  0.11465807  1
  Li  Li6  1  0.38820867  0.00611233  0.07527628  1
  Li  Li7  1  0.92207381  0.00320764  0.12036532  1
  Li  Li8  1  0.09232198  0.16232449  0.16852269  1
  Li  Li9  1  0.56557010  0.16061753  0.16716400  1
  Li  Li10  1  0.07806120  0.66257764  0.16724189  1
  Li  Li11  1  0.57998384  0.67707455  0.16827513  1
  Li  Li12  1  0.74838254  0.82930235  0.22329442  1
  Li  Li13  1  0.24089245  0.82753326  0.22325686  1
  Li  Li14  1  0.74260087  0.32869786  0.22264550  1
  Li  Li15  1  0.24289933  0.33270630  0.22344231  1
  Li  Li16  1  0.41223292  0.49573748  0.27813859  1
  Li  Li17  1  0.90434776  0.49458501  0.27819235  1
  Li  Li18  1  0.40912498  0.99202364  0.27811055  1
  Li  Li19  1  0.90759695  0.99670231  0.27870667  1
  Li  Li20  1  0.07371896  0.16416074  0.33347648  1
  Li  Li21  1  0.56574866  0.16679060  0.33286021  1
  Li  Li22  1  0.07010900  0.66248882  0.33283738  1
  Li  Li23  1  0.56443648  0.66949044  0.33462809  1
  Li  Li24  1  0.74650297  0.84364722  0.38799759  1
  Li  Li25  1  0.20054995  0.84132285  0.38798226  1
  Li  Li26  1  0.73512083  0.31261266  0.38695489  1
  Li  Li27  1  0.22260496  0.34861910  0.39124951  1
  Li  Li28  1  0.45863067  0.48539097  0.47598216  1
  Li  Li29  1  0.89623337  0.42047476  0.45613468  1
  Li  Li30  1  0.37601917  0.06552258  0.44531051  1
  Li  Li31  1  0.88622182  0.00012245  0.43835837  1
  Li  Li32  1  0.28420773  0.26869797  0.51812506  1
  Li  Li33  1  0.76840172  0.18945087  0.52024371  1
  Li  Li34  1  0.28284597  0.64420215  0.56438100  1
  Li  Li35  1  0.67543436  0.62948601  0.54020944  1
  Li  Li36  1  0.55813045  0.48122062  0.61513247  1
  Li  Li37  1  0.07510797  0.54754990  0.61474214  1
  Li  Li38  1  0.61091206  0.99463964  0.57535778  1
  Li  Li39  1  0.07694539  0.99850198  0.62038681  1
  Li  Li40  1  0.90831093  0.83813071  0.66870540  1
  Li  Li41  1  0.43273604  0.84182722  0.66717938  1
  Li  Li42  1  0.91976733  0.34179520  0.66739944  1
  Li  Li43  1  0.41961764  0.32297090  0.66831078  1
  Li  Li44  1  0.25107780  0.17116252  0.72338189  1
  Li  Li45  1  0.75884628  0.17289825  0.72329528  1
  Li  Li46  1  0.25748706  0.67170157  0.72268852  1
  Li  Li47  1  0.75678120  0.66766779  0.72347916  1
  Li  Li48  1  0.58768848  0.50440970  0.77814744  1
  Li  Li49  1  0.09505933  0.50583475  0.77821469  1
  Li  Li50  1  0.59089911  0.00836373  0.77812417  1
  Li  Li51  1  0.09219478  0.00320511  0.77882622  1
  Li  Li52  1  0.92634476  0.83645611  0.83344775  1
  Li  Li53  1  0.43427782  0.83323188  0.83288398  1
  Li  Li54  1  0.93084132  0.33719135  0.83283617  1
  Li  Li55  1  0.43463806  0.33092463  0.83471681  1
  Li  Li56  1  0.25374143  0.15646562  0.88799068  1
  Li  Li57  1  0.80020491  0.15885634  0.88830882  1
  Li  Li58  1  0.26489254  0.68742186  0.88694986  1
  Li  Li59  1  0.77717791  0.65156437  0.89123517  1
  Li  Li60  1  0.54104503  0.51534641  0.97577399  1
  Li  Li61  1  0.10382949  0.57938303  0.95610594  1
  Li  Li62  1  0.62400966  0.93444907  0.94531261  1
  Li  Li63  1  0.11369906  0.99997801  0.93836427  1
  Cl  Cl64  1  0.38284771  0.02172300  0.02972423  1
  Cl  Cl65  1  0.58640272  0.45666837  0.02149393  1
  Cl  Cl66  1  0.45709339  0.28768696  0.08100994  1
  Cl  Cl67  1  0.62108310  0.66001544  0.08770337  1
  Cl  Cl68  1  0.02000861  0.68682533  0.03714072  1
  Cl  Cl69  1  0.02946482  0.13150167  0.08599209  1
  Cl  Cl70  1  0.24819841  0.82268480  0.14260545  1
  Cl  Cl71  1  0.23402582  0.34111309  0.14167773  1
  Cl  Cl72  1  0.74195061  0.33202314  0.14308348  1
  Cl  Cl73  1  0.75737071  0.83314790  0.14189990  1
  Cl  Cl74  1  0.90957333  0.49720048  0.19764180  1
  Cl  Cl75  1  0.91172069  0.99743325  0.19785701  1
  Cl  Cl76  1  0.41180151  0.99689399  0.19714450  1
  Cl  Cl77  1  0.40983218  0.49556802  0.19777707  1
  Cl  Cl78  1  0.57410307  0.16247540  0.25290951  1
  Cl  Cl79  1  0.57421149  0.66320254  0.25240264  1
  Cl  Cl80  1  0.07424473  0.66233699  0.25305661  1
  Cl  Cl81  1  0.07578352  0.16252795  0.25279516  1
  Cl  Cl82  1  0.23761317  0.83073116  0.30773203  1
  Cl  Cl83  1  0.23597740  0.33080913  0.30841444  1
  Cl  Cl84  1  0.73568253  0.33343134  0.30770680  1
  Cl  Cl85  1  0.73501108  0.83099021  0.30790191  1
  Cl  Cl86  1  0.88942552  0.50196025  0.36401103  1
  Cl  Cl87  1  0.89604416  0.00227961  0.36073174  1
  Cl  Cl88  1  0.39566842  0.99173530  0.36447932  1
  Cl  Cl89  1  0.39851684  0.50213962  0.36354644  1
  Cl  Cl90  1  0.56400276  0.16108891  0.41577580  1
  Cl  Cl91  1  0.54572922  0.70012867  0.45071231  1
  Cl  Cl92  1  0.05400714  0.68340684  0.41602474  1
  Cl  Cl93  1  0.05317819  0.17799559  0.41835067  1
  Cl  Cl94  1  0.22393815  0.34327364  0.47418627  1
  Cl  Cl95  1  0.81006745  0.17431888  0.47618347  1
  Cl  Cl96  1  0.62009811  0.97342551  0.52982040  1
  Cl  Cl97  1  0.41663587  0.53952431  0.52178362  1
  Cl  Cl98  1  0.54308152  0.71175407  0.58137601  1
  Cl  Cl99  1  0.37741334  0.34041050  0.58774237  1
  Cl  Cl100  1  0.98402353  0.30618894  0.53729687  1
  Cl  Cl101  1  0.96995693  0.86906926  0.58608686  1
  Cl  Cl102  1  0.75113102  0.17895126  0.64275024  1
  Cl  Cl103  1  0.76517796  0.66175606  0.64188253  1
  Cl  Cl104  1  0.25745588  0.66922544  0.64313751  1
  Cl  Cl105  1  0.24095206  0.16885692  0.64201904  1
  Cl  Cl106  1  0.09033708  0.50327255  0.69771839  1
  Cl  Cl107  1  0.08808960  0.00284938  0.69791041  1
  Cl  Cl108  1  0.58772867  0.00388622  0.69722926  1
  Cl  Cl109  1  0.59015697  0.50505340  0.69784165  1
  Cl  Cl110  1  0.42548850  0.83839972  0.75295902  1
  Cl  Cl111  1  0.42534073  0.33760814  0.75244363  1
  Cl  Cl112  1  0.92550680  0.33811263  0.75310476  1
  Cl  Cl113  1  0.92396897  0.83803389  0.75281879  1
  Cl  Cl114  1  0.76206671  0.16959709  0.80775734  1
  Cl  Cl115  1  0.76409170  0.66923293  0.80845369  1
  Cl  Cl116  1  0.26412395  0.66689356  0.80773688  1
  Cl  Cl117  1  0.26494060  0.16909167  0.80792104  1
  Cl  Cl118  1  0.11026218  0.49830910  0.86401501  1
  Cl  Cl119  1  0.10348099  0.99804971  0.86077751  1
  Cl  Cl120  1  0.60385137  0.00863939  0.86450828  1
  Cl  Cl121  1  0.60132711  0.49804060  0.86362641  1
  Cl  Cl122  1  0.43584947  0.83879108  0.91584354  1
  Cl  Cl123  1  0.45440974  0.30056747  0.95048650  1
  Cl  Cl124  1  0.94675060  0.31701463  0.91610084  1
  Cl  Cl125  1  0.94623576  0.82292915  0.91831689  1
  Cl  Cl126  1  0.77630067  0.65669426  0.97414811  1
  Cl  Cl127  1  0.18958184  0.82539550  0.97620157  1
