# generated using pymatgen
data_LiCl
_symmetry_space_group_name_H-M   'P 1'
_cell_length_a   5.14959700
_cell_length_b   11.51484800
_cell_length_c   57.42142427
_cell_angle_alpha   90.00000000
_cell_angle_beta   90.00000000
_cell_angle_gamma   90.00000000
_symmetry_Int_Tables_number   1
_chemical_formula_structural   LiCl
_chemical_formula_sum   'Li96 Cl96'
_cell_volume   3404.90824487
_cell_formula_units_Z   96
loop_
 _symmetry_equiv_pos_site_id
 _symmetry_equiv_pos_as_xyz
  1  'x, y, z'
loop_
 _atom_site_type_symbol
 _atom_site_label
 _atom_site_symmetry_multiplicity
 _atom_site_fract_x
 _atom_site_fract_y
 _atom_site_fract_z
 _atom_site_occupancy
  Li  Li0  1  1.00000000  0.41445369  0.04330526  1
  Li  Li1  1  1.00000000  0.82614614  0.07964214  1
  Li  Li2  1  1.00000000  0.12254961  0.05776866  1
  Li  Li3  1  0.00000001  0.74250314  0.02145890  1
  Li  Li4  1  0.50000000  0.32625799  0.07963421  1
  Li  Li5  1  0.50000000  0.91444743  0.04330126  1
  Li  Li6  1  0.50000000  0.24252592  0.02145861  1
  Li  Li7  1  0.50000000  0.62247940  0.05780082  1
  Li  Li8  1  1.00000000  0.22109159  0.12025475  1
  Li  Li9  1  1.00000000  0.62273102  0.15965694  1
  Li  Li10  1  0.00000000  0.92374940  0.13965378  1
  Li  Li11  1  0.00000000  0.52387418  0.09979960  1
  Li  Li12  1  0.50000000  0.12271348  0.15966676  1
  Li  Li13  1  0.50000000  0.72101338  0.12028405  1
  Li  Li14  1  0.50000000  0.02370612  0.09977591  1
  Li  Li15  1  0.50000000  0.42370869  0.13968892  1
  Li  Li16  1  0.00000000  0.02361728  0.19967730  1
  Li  Li17  1  0.00000000  0.42558947  0.23985598  1
  Li  Li18  1  0.00000000  0.72425789  0.21982630  1
  Li  Li19  1  0.00000000  0.32410570  0.18001274  1
  Li  Li20  1  0.50000000  0.92560513  0.23985609  1
  Li  Li21  1  0.50000000  0.52355955  0.19974522  1
  Li  Li22  1  0.50000000  0.82413357  0.18000339  1
  Li  Li23  1  0.50000000  0.22423624  0.21982368  1
  Li  Li24  1  0.00000000  0.82573839  0.27984747  1
  Li  Li25  1  1.00000000  0.22739077  0.32002007  1
  Li  Li26  1  1.00000000  0.52633443  0.30018020  1
  Li  Li27  1  1.00000000  0.12509672  0.25989710  1
  Li  Li28  1  0.50000000  0.72739540  0.32001987  1
  Li  Li29  1  0.50000000  0.32573389  0.27984856  1
  Li  Li30  1  0.50000000  0.62509999  0.25990069  1
  Li  Li31  1  0.50000000  0.02633154  0.30018042  1
  Li  Li32  1  0.00000000  0.62800958  0.36043088  1
  Li  Li33  1  1.00000000  0.02636270  0.39974996  1
  Li  Li34  1  1.00000000  0.32960803  0.37975617  1
  Li  Li35  1  0.00000000  0.92733501  0.34000568  1
  Li  Li36  1  0.50000000  0.52635787  0.39974920  1
  Li  Li37  1  0.50000000  0.12800369  0.36043309  1
  Li  Li38  1  0.50000000  0.42733294  0.34000572  1
  Li  Li39  1  0.50000000  0.82962299  0.37975624  1
  Li  Li40  1  0.00000001  0.42754188  0.44217507  1
  Li  Li41  1  0.00000001  0.80692243  0.47866995  1
  Li  Li42  1  1.00000000  0.13377188  0.45673661  1
  Li  Li43  1  0.00000001  0.72283347  0.42065194  1
  Li  Li44  1  0.50000000  0.30693012  0.47867173  1
  Li  Li45  1  0.50000000  0.92753136  0.44218813  1
  Li  Li46  1  0.50000000  0.22282499  0.42065259  1
  Li  Li47  1  0.50000000  0.63375549  0.45673657  1
  Li  Li48  1  0.50000000  0.13377864  0.54325374  1
  Li  Li49  1  0.50000000  0.72286989  0.57939979  1
  Li  Li50  1  0.50000000  0.42757729  0.55782154  1
  Li  Li51  1  0.50000000  0.80683214  0.52132134  1
  Li  Li52  1  0.00000001  0.22286990  0.57939955  1
  Li  Li53  1  1.00000000  0.63377553  0.54325385  1
  Li  Li54  1  1.00000000  0.30682944  0.52131981  1
  Li  Li55  1  0.00000000  0.92757966  0.55782206  1
  Li  Li56  1  0.50000000  0.32961485  0.62025429  1
  Li  Li57  1  0.50000000  0.92735058  0.65998987  1
  Li  Li58  1  0.50000000  0.62802865  0.63956656  1
  Li  Li59  1  0.50000000  0.02729442  0.60006700  1
  Li  Li60  1  0.00000000  0.42735017  0.65998970  1
  Li  Li61  1  0.00000000  0.82961480  0.62025445  1
  Li  Li62  1  1.00000000  0.52729309  0.60006699  1
  Li  Li63  1  0.00000000  0.12802950  0.63956660  1
  Li  Li64  1  0.50000000  0.52633902  0.69982382  1
  Li  Li65  1  0.50000000  0.12510637  0.74010503  1
  Li  Li66  1  0.50000000  0.82573446  0.72015485  1
  Li  Li67  1  0.50000000  0.22738546  0.67997847  1
  Li  Li68  1  1.00000000  0.62510656  0.74010516  1
  Li  Li69  1  0.00000000  0.02633868  0.69982387  1
  Li  Li70  1  0.00000000  0.72738612  0.67997848  1
  Li  Li71  1  1.00000000  0.32573449  0.72015488  1
  Li  Li72  1  0.50000000  0.72424117  0.78018029  1
  Li  Li73  1  0.50000000  0.32414737  0.82001628  1
  Li  Li74  1  0.50000000  0.02357191  0.80026800  1
  Li  Li75  1  0.50000001  0.42559873  0.76014775  1
  Li  Li76  1  1.00000000  0.82414849  0.82001640  1
  Li  Li77  1  1.00000000  0.22424190  0.78018038  1
  Li  Li78  1  0.00000000  0.92559852  0.76014776  1
  Li  Li79  1  0.00000000  0.52357134  0.80026800  1
  Li  Li80  1  0.50000000  0.92373342  0.86031773  1
  Li  Li81  1  0.50000000  0.52370351  0.90023146  1
  Li  Li82  1  0.50000000  0.22096618  0.87972696  1
  Li  Li83  1  0.50000000  0.62262217  0.84038033  1
  Li  Li84  1  1.00000000  0.02370572  0.90023094  1
  Li  Li85  1  1.00000000  0.42373250  0.86031758  1
  Li  Li86  1  0.00000000  0.12262198  0.84038042  1
  Li  Li87  1  0.00000000  0.72096823  0.87972657  1
  Li  Li88  1  0.50000000  0.12250474  0.94221058  1
  Li  Li89  1  0.50000000  0.74250627  0.97854426  1
  Li  Li90  1  0.50000000  0.41437989  0.95670588  1
  Li  Li91  1  0.50000000  0.82614869  0.92035949  1
  Li  Li92  1  0.00000001  0.24250498  0.97853876  1
  Li  Li93  1  0.00000000  0.62251034  0.94221073  1
  Li  Li94  1  0.00000000  0.32614675  0.92036001  1
  Li  Li95  1  0.00000000  0.91437373  0.95670631  1
  Cl  Cl96  1  0.49999999  0.42628620  0.04037833  1
  Cl  Cl97  1  0.49999999  0.82105344  0.08075731  1
  Cl  Cl98  1  0.00000000  0.32108332  0.08076045  1
  Cl  Cl99  1  0.99999999  0.92621295  0.04039001  1
  Cl  Cl100  1  0.00000001  0.23597917  0.02055072  1
  Cl  Cl101  1  0.00000001  0.62092280  0.05813936  1
  Cl  Cl102  1  0.49999999  0.12093401  0.05812580  1
  Cl  Cl103  1  0.49999999  0.73596819  0.02055692  1
  Cl  Cl104  1  0.50000000  0.22216216  0.11964184  1
  Cl  Cl105  1  0.49999999  0.62370238  0.15990912  1
  Cl  Cl106  1  0.99999999  0.12374060  0.15991435  1
  Cl  Cl107  1  0.99999999  0.72224555  0.11963994  1
  Cl  Cl108  1  0.00000000  0.02336023  0.09980625  1
  Cl  Cl109  1  0.00000000  0.42344117  0.13983661  1
  Cl  Cl110  1  0.50000000  0.92343483  0.13982927  1
  Cl  Cl111  1  0.49999999  0.52336964  0.09981552  1
  Cl  Cl112  1  0.50000001  0.02389922  0.19984597  1
  Cl  Cl113  1  0.50000002  0.42477751  0.23978124  1
  Cl  Cl114  1  1.00000000  0.92478012  0.23977949  1
  Cl  Cl115  1  0.99999999  0.52394390  0.19984209  1
  Cl  Cl116  1  1.00000000  0.82383942  0.17974822  1
  Cl  Cl117  1  1.00000000  0.22429755  0.21986277  1
  Cl  Cl118  1  0.50000001  0.72422696  0.21987355  1
  Cl  Cl119  1  0.50000001  0.32386630  0.17974588  1
  Cl  Cl120  1  0.50000001  0.82599663  0.27991638  1
  Cl  Cl121  1  0.50000001  0.22669393  0.32015683  1
  Cl  Cl122  1  0.00000000  0.72668804  0.32015715  1
  Cl  Cl123  1  0.99999999  0.32599196  0.27991436  1
  Cl  Cl124  1  0.99999999  0.62543950  0.26000454  1
  Cl  Cl125  1  1.00000000  0.02592826  0.29995322  1
  Cl  Cl126  1  0.50000001  0.52592313  0.29995502  1
  Cl  Cl127  1  0.50000000  0.12544573  0.26000342  1
  Cl  Cl128  1  0.49999999  0.62712292  0.36005469  1
  Cl  Cl129  1  0.49999999  0.02620201  0.40023258  1
  Cl  Cl130  1  0.00000002  0.52616893  0.40022799  1
  Cl  Cl131  1  1.00000000  0.12712739  0.36005424  1
  Cl  Cl132  1  0.00000001  0.42721258  0.34005834  1
  Cl  Cl133  1  0.00000001  0.82788849  0.38027286  1
  Cl  Cl134  1  0.49999998  0.32790121  0.38027369  1
  Cl  Cl135  1  0.50000000  0.92721151  0.34005952  1
  Cl  Cl136  1  0.49999997  0.42809407  0.44186247  1
  Cl  Cl137  1  0.49999998  0.81309464  0.47940556  1
  Cl  Cl138  1  0.00000001  0.31309728  0.47940477  1
  Cl  Cl139  1  0.00000001  0.92806900  0.44185550  1
  Cl  Cl140  1  1.00000000  0.22769638  0.41924721  1
  Cl  Cl141  1  0.00000002  0.62297698  0.45968062  1
  Cl  Cl142  1  0.49999999  0.12298869  0.45967197  1
  Cl  Cl143  1  0.49999997  0.72767634  0.41924776  1
  Cl  Cl144  1  1.00000000  0.12306843  0.54033575  1
  Cl  Cl145  1  1.00000000  0.72773992  0.58074825  1
  Cl  Cl146  1  0.50000001  0.22773858  0.58074882  1
  Cl  Cl147  1  0.50000001  0.62312520  0.54033343  1
  Cl  Cl148  1  0.50000001  0.31313108  0.52059962  1
  Cl  Cl149  1  0.50000000  0.92812649  0.55813451  1
  Cl  Cl150  1  0.99999998  0.42813119  0.55813533  1
  Cl  Cl151  1  0.00000001  0.81315269  0.52059479  1
  Cl  Cl152  1  0.99999999  0.32792789  0.61971464  1
  Cl  Cl153  1  0.00000000  0.92721297  0.65993860  1
  Cl  Cl154  1  0.50000000  0.42721300  0.65993860  1
  Cl  Cl155  1  0.49999999  0.82792847  0.61971453  1
  Cl  Cl156  1  0.50000001  0.52620874  0.59975070  1
  Cl  Cl157  1  0.50000000  0.12713439  0.63993635  1
  Cl  Cl158  1  0.00000001  0.62713518  0.63993635  1
  Cl  Cl159  1  0.00000001  0.02620725  0.59975088  1
  Cl  Cl160  1  0.00000000  0.52595595  0.70004565  1
  Cl  Cl161  1  0.00000000  0.12545253  0.74000187  1
  Cl  Cl162  1  0.50000000  0.62545077  0.74000154  1
  Cl  Cl163  1  0.50000000  0.02595606  0.70004536  1
  Cl  Cl164  1  0.49999999  0.72669384  0.67985301  1
  Cl  Cl165  1  0.49999999  0.32601821  0.72009483  1
  Cl  Cl166  1  0.00000001  0.82601696  0.72009470  1
  Cl  Cl167  1  1.00000000  0.22669340  0.67985307  1
  Cl  Cl168  1  1.00000000  0.72428417  0.78014354  1
  Cl  Cl169  1  1.00000000  0.32386268  0.82026125  1
  Cl  Cl170  1  0.49999999  0.82386025  0.82026057  1
  Cl  Cl171  1  0.50000000  0.22428191  0.78014308  1
  Cl  Cl172  1  0.49999999  0.92477893  0.76022255  1
  Cl  Cl173  1  0.49999999  0.52392147  0.80016133  1
  Cl  Cl174  1  0.00000001  0.02392215  0.80016060  1
  Cl  Cl175  1  1.00000000  0.42477839  0.76022202  1
  Cl  Cl176  1  0.00000000  0.92345070  0.86017904  1
  Cl  Cl177  1  0.00000002  0.52336500  0.90019476  1
  Cl  Cl178  1  0.50000001  0.02336702  0.90019348  1
  Cl  Cl179  1  0.50000000  0.42344912  0.86018019  1
  Cl  Cl180  1  0.50000000  0.12370608  0.84009531  1
  Cl  Cl181  1  0.49999999  0.72220746  0.88037536  1
  Cl  Cl182  1  0.00000001  0.22221021  0.88037559  1
  Cl  Cl183  1  0.00000000  0.62370260  0.84009538  1
  Cl  Cl184  1  0.00000001  0.12089422  0.94186655  1
  Cl  Cl185  1  0.99999999  0.73597992  0.97944986  1
  Cl  Cl186  1  0.50000001  0.23598039  0.97945102  1
  Cl  Cl187  1  0.49999999  0.62089506  0.94186564  1
  Cl  Cl188  1  0.50000000  0.32101511  0.91925734  1
  Cl  Cl189  1  0.49999999  0.92624421  0.95961273  1
  Cl  Cl190  1  0.00000001  0.42624357  0.95961346  1
  Cl  Cl191  1  0.99999999  0.82102718  0.91925671  1
