# generated using pymatgen
data_LiCl
_symmetry_space_group_name_H-M   'P 1'
_cell_length_a   11.51484800
_cell_length_b   11.51484825
_cell_length_c   52.17394686
_cell_angle_alpha   90.00000000
_cell_angle_beta   90.00000000
_cell_angle_gamma   78.46303919
_symmetry_Int_Tables_number   1
_chemical_formula_structural   LiCl
_chemical_formula_sum   'Li192 Cl192'
_cell_volume   6778.06506968
_cell_formula_units_Z   192
loop_
 _symmetry_equiv_pos_site_id
 _symmetry_equiv_pos_as_xyz
  1  'x, y, z'
loop_
 _atom_site_type_symbol
 _atom_site_label
 _atom_site_symmetry_multiplicity
 _atom_site_fract_x
 _atom_site_fract_y
 _atom_site_fract_z
 _atom_site_occupancy
  Li  Li0  1  0.35487067  0.35487050  0.07909028  1
  Li  Li1  1  0.85487040  0.85487054  0.07909032  1
  Li  Li2  1  0.92463214  0.42463203  0.04001738  1
  Li  Li3  1  0.42463207  0.92463207  0.04001741  1
  Li  Li4  1  0.64849240  0.39849241  0.05690069  1
  Li  Li5  1  0.14849232  0.89849261  0.05690075  1
  Li  Li6  1  0.24254125  0.49254155  0.02456081  1
  Li  Li7  1  0.74254140  0.99254141  0.02456079  1
  Li  Li8  1  0.39849233  0.64849254  0.05690070  1
  Li  Li9  1  0.89849241  0.14849256  0.05690074  1
  Li  Li10  1  0.99254129  0.74254151  0.02456076  1
  Li  Li11  1  0.49254135  0.24254150  0.02456077  1
  Li  Li12  1  0.67463194  0.67463211  0.04001744  1
  Li  Li13  1  0.17463206  0.17463212  0.04001739  1
  Li  Li14  1  0.10487040  0.60487063  0.07909030  1
  Li  Li15  1  0.60487053  0.10487059  0.07909027  1
  Li  Li16  1  0.18657551  0.18657558  0.15948611  1
  Li  Li17  1  0.68657559  0.68657570  0.15948616  1
  Li  Li18  1  0.76880107  0.26880109  0.11963380  1
  Li  Li19  1  0.26880116  0.76880132  0.11963384  1
  Li  Li20  1  0.47901723  0.22901707  0.13928957  1
  Li  Li21  1  0.97901712  0.72901710  0.13928962  1
  Li  Li22  1  0.06158708  0.31158703  0.09971001  1
  Li  Li23  1  0.56158706  0.81158716  0.09971005  1
  Li  Li24  1  0.22901715  0.47901703  0.13928961  1
  Li  Li25  1  0.72901704  0.97901705  0.13928961  1
  Li  Li26  1  0.81158705  0.56158709  0.09970996  1
  Li  Li27  1  0.31158712  0.06158705  0.09970999  1
  Li  Li28  1  0.51880120  0.51880126  0.11963385  1
  Li  Li29  1  0.01880115  0.01880115  0.11963381  1
  Li  Li30  1  0.93657557  0.43657557  0.15948613  1
  Li  Li31  1  0.43657551  0.93657582  0.15948617  1
  Li  Li32  1  0.02033047  0.02033038  0.23993220  1
  Li  Li33  1  0.52033046  0.52033043  0.23993222  1
  Li  Li34  1  0.60338062  0.10338044  0.19985003  1
  Li  Li35  1  0.10338061  0.60338059  0.19985002  1
  Li  Li36  1  0.31242706  0.06242703  0.21978152  1
  Li  Li37  1  0.81242709  0.56242711  0.21978151  1
  Li  Li38  1  0.89530999  0.14530990  0.17977152  1
  Li  Li39  1  0.39530999  0.64531010  0.17977157  1
  Li  Li40  1  0.06242715  0.31242708  0.21978152  1
  Li  Li41  1  0.56242713  0.81242702  0.21978148  1
  Li  Li42  1  0.64531002  0.39530989  0.17977152  1
  Li  Li43  1  0.14531007  0.89530993  0.17977151  1
  Li  Li44  1  0.35338056  0.35338052  0.19985005  1
  Li  Li45  1  0.85338050  0.85338059  0.19985003  1
  Li  Li46  1  0.77033043  0.27033040  0.23993221  1
  Li  Li47  1  0.27033046  0.77033049  0.23993221  1
  Li  Li48  1  0.85469010  0.85469001  0.32022849  1
  Li  Li49  1  0.35469007  0.35468993  0.32022848  1
  Li  Li50  1  0.43757295  0.93757286  0.28021851  1
  Li  Li51  1  0.93757293  0.43757290  0.28021849  1
  Li  Li52  1  0.14661965  0.89661936  0.30014996  1
  Li  Li53  1  0.64661945  0.39661945  0.30014995  1
  Li  Li54  1  0.72966958  0.97966950  0.26006777  1
  Li  Li55  1  0.22966960  0.47966955  0.26006780  1
  Li  Li56  1  0.89661946  0.14661946  0.30014996  1
  Li  Li57  1  0.39661940  0.64661952  0.30014997  1
  Li  Li58  1  0.47966953  0.22966956  0.26006781  1
  Li  Li59  1  0.97966962  0.72966958  0.26006778  1
  Li  Li60  1  0.18757301  0.18757291  0.28021847  1
  Li  Li61  1  0.68757291  0.68757293  0.28021849  1
  Li  Li62  1  0.60468990  0.10469002  0.32022843  1
  Li  Li63  1  0.10469014  0.60468997  0.32022847  1
  Li  Li64  1  0.68841289  0.68841299  0.40029003  1
  Li  Li65  1  0.18841295  0.18841289  0.40029000  1
  Li  Li66  1  0.27098295  0.77098280  0.36071041  1
  Li  Li67  1  0.77098295  0.27098281  0.36071039  1
  Li  Li68  1  0.98119890  0.73119891  0.38036621  1
  Li  Li69  1  0.48119870  0.23119881  0.38036615  1
  Li  Li70  1  0.56342426  0.81342438  0.34051385  1
  Li  Li71  1  0.06342444  0.31342451  0.34051390  1
  Li  Li72  1  0.73119875  0.98119877  0.38036615  1
  Li  Li73  1  0.23119885  0.48119883  0.38036619  1
  Li  Li74  1  0.31342416  0.06342443  0.34051383  1
  Li  Li75  1  0.81342441  0.56342442  0.34051386  1
  Li  Li76  1  0.02098292  0.02098277  0.36071044  1
  Li  Li77  1  0.52098285  0.52098284  0.36071039  1
  Li  Li78  1  0.43841282  0.93841289  0.40028995  1
  Li  Li79  1  0.93841301  0.43841287  0.40029001  1
  Li  Li80  1  0.50745871  0.50745855  0.47543925  1
  Li  Li81  1  0.00745862  0.00745859  0.47543926  1
  Li  Li82  1  0.10150760  0.60150751  0.44309931  1
  Li  Li83  1  0.60150770  0.10150748  0.44309932  1
  Li  Li84  1  0.82536797  0.57536787  0.45998262  1
  Li  Li85  1  0.32536797  0.07536783  0.45998259  1
  Li  Li86  1  0.39512947  0.64512942  0.42090975  1
  Li  Li87  1  0.89512958  0.14512927  0.42090975  1
  Li  Li88  1  0.57536792  0.82536803  0.45998257  1
  Li  Li89  1  0.07536795  0.32536788  0.45998261  1
  Li  Li90  1  0.14512943  0.89512945  0.42090972  1
  Li  Li91  1  0.64512955  0.39512960  0.42090965  1
  Li  Li92  1  0.85150772  0.85150753  0.44309933  1
  Li  Li93  1  0.35150756  0.35150756  0.44309930  1
  Li  Li94  1  0.25745866  0.75745850  0.47543924  1
  Li  Li95  1  0.75745861  0.25745867  0.47543928  1
  Li  Li96  1  0.39512924  0.14512925  0.57909096  1
  Li  Li97  1  0.89512928  0.64512925  0.57909096  1
  Li  Li98  1  0.82536394  0.07536398  0.54001916  1
  Li  Li99  1  0.32536398  0.57536392  0.54001915  1
  Li  Li100  1  0.10150636  0.10150638  0.55690172  1
  Li  Li101  1  0.60150639  0.60150633  0.55690174  1
  Li  Li102  1  0.50745609  0.00745608  0.52456379  1
  Li  Li103  1  0.00745608  0.50745608  0.52456383  1
  Li  Li104  1  0.35150635  0.85150633  0.55690172  1
  Li  Li105  1  0.85150637  0.35150636  0.55690173  1
  Li  Li106  1  0.75745608  0.75745607  0.52456384  1
  Li  Li107  1  0.25745609  0.25745606  0.52456378  1
  Li  Li108  1  0.07536397  0.82536396  0.54001917  1
  Li  Li109  1  0.57536395  0.32536394  0.54001918  1
  Li  Li110  1  0.64512928  0.89512926  0.57909095  1
  Li  Li111  1  0.14512925  0.39512922  0.57909096  1
  Li  Li112  1  0.56342461  0.31342459  0.65948602  1
  Li  Li113  1  0.06342459  0.81342459  0.65948601  1
  Li  Li114  1  0.98119872  0.23119865  0.61963355  1
  Li  Li115  1  0.48119870  0.73119867  0.61963355  1
  Li  Li116  1  0.27098251  0.27098251  0.63928955  1
  Li  Li117  1  0.77098249  0.77098247  0.63928955  1
  Li  Li118  1  0.68841416  0.18841412  0.59970971  1
  Li  Li119  1  0.18841414  0.68841412  0.59970971  1
  Li  Li120  1  0.52098246  0.02098245  0.63928954  1
  Li  Li121  1  0.02098247  0.52098247  0.63928954  1
  Li  Li122  1  0.93841414  0.93841414  0.59970971  1
  Li  Li123  1  0.43841414  0.43841415  0.59970971  1
  Li  Li124  1  0.23119869  0.98119870  0.61963355  1
  Li  Li125  1  0.73119868  0.48119870  0.61963355  1
  Li  Li126  1  0.81342461  0.06342460  0.65948601  1
  Li  Li127  1  0.31342462  0.56342460  0.65948601  1
  Li  Li128  1  0.72966960  0.47966956  0.73993219  1
  Li  Li129  1  0.22966961  0.97966955  0.73993219  1
  Li  Li130  1  0.14661938  0.39661941  0.69985004  1
  Li  Li131  1  0.64661940  0.89661940  0.69985005  1
  Li  Li132  1  0.43757289  0.43757287  0.71978150  1
  Li  Li133  1  0.93757287  0.93757287  0.71978151  1
  Li  Li134  1  0.85469011  0.35469011  0.67977139  1
  Li  Li135  1  0.35469012  0.85469012  0.67977138  1
  Li  Li136  1  0.68757288  0.18757286  0.71978150  1
  Li  Li137  1  0.18757289  0.68757288  0.71978149  1
  Li  Li138  1  0.10469009  0.10469007  0.67977140  1
  Li  Li139  1  0.60469012  0.60469008  0.67977140  1
  Li  Li140  1  0.39661942  0.14661936  0.69985005  1
  Li  Li141  1  0.89661941  0.64661938  0.69985005  1
  Li  Li142  1  0.97966958  0.22966959  0.73993218  1
  Li  Li143  1  0.47966956  0.72966958  0.73993219  1
  Li  Li144  1  0.89530991  0.64530988  0.82022861  1
  Li  Li145  1  0.39530990  0.14530989  0.82022861  1
  Li  Li146  1  0.31242712  0.56242712  0.78021849  1
  Li  Li147  1  0.81242712  0.06242711  0.78021850  1
  Li  Li148  1  0.60338061  0.60338062  0.80014994  1
  Li  Li149  1  0.10338062  0.10338060  0.80014992  1
  Li  Li150  1  0.02033046  0.52033042  0.76006780  1
  Li  Li151  1  0.52033044  0.02033046  0.76006779  1
  Li  Li152  1  0.85338061  0.35338060  0.80014992  1
  Li  Li153  1  0.35338063  0.85338060  0.80014994  1
  Li  Li154  1  0.27033045  0.27033047  0.76006780  1
  Li  Li155  1  0.77033047  0.77033044  0.76006779  1
  Li  Li156  1  0.56242710  0.31242711  0.78021852  1
  Li  Li157  1  0.06242713  0.81242709  0.78021850  1
  Li  Li158  1  0.14530989  0.39530987  0.82022862  1
  Li  Li159  1  0.64530991  0.89530989  0.82022860  1
  Li  Li160  1  0.06158587  0.81158589  0.90029029  1
  Li  Li161  1  0.56158590  0.31158587  0.90029029  1
  Li  Li162  1  0.47901758  0.72901754  0.86071047  1
  Li  Li163  1  0.97901753  0.22901753  0.86071046  1
  Li  Li164  1  0.76880133  0.76880134  0.88036644  1
  Li  Li165  1  0.26880132  0.26880129  0.88036645  1
  Li  Li166  1  0.18657540  0.68657539  0.84051398  1
  Li  Li167  1  0.68657541  0.18657539  0.84051398  1
  Li  Li168  1  0.01880129  0.51880130  0.88036645  1
  Li  Li169  1  0.51880135  0.01880130  0.88036644  1
  Li  Li170  1  0.43657540  0.43657538  0.84051398  1
  Li  Li171  1  0.93657541  0.93657540  0.84051398  1
  Li  Li172  1  0.72901753  0.47901753  0.86071047  1
  Li  Li173  1  0.22901755  0.97901752  0.86071047  1
  Li  Li174  1  0.31158586  0.56158588  0.90029029  1
  Li  Li175  1  0.81158589  0.06158585  0.90029028  1
  Li  Li176  1  0.24254396  0.99254396  0.97543624  1
  Li  Li177  1  0.74254393  0.49254394  0.97543618  1
  Li  Li178  1  0.64849370  0.89849366  0.94309828  1
  Li  Li179  1  0.14849365  0.39849366  0.94309825  1
  Li  Li180  1  0.92463607  0.92463604  0.95998084  1
  Li  Li181  1  0.42463603  0.42463603  0.95998084  1
  Li  Li182  1  0.35487075  0.85487070  0.92090905  1
  Li  Li183  1  0.85487075  0.35487073  0.92090904  1
  Li  Li184  1  0.17463597  0.67463612  0.95998084  1
  Li  Li185  1  0.67463611  0.17463598  0.95998084  1
  Li  Li186  1  0.60487073  0.60487075  0.92090904  1
  Li  Li187  1  0.10487072  0.10487075  0.92090905  1
  Li  Li188  1  0.89849364  0.64849371  0.94309827  1
  Li  Li189  1  0.39849368  0.14849367  0.94309821  1
  Li  Li190  1  0.49254392  0.74254396  0.97543621  1
  Li  Li191  1  0.99254396  0.24254396  0.97543620  1
  Cl  Cl192  1  0.48426419  0.73426439  0.01946597  1
  Cl  Cl193  1  0.98426425  0.23426428  0.01946599  1
  Cl  Cl194  1  0.89524784  0.64524812  0.05659401  1
  Cl  Cl195  1  0.39524822  0.14524816  0.05659402  1
  Cl  Cl196  1  0.43746094  0.43746118  0.04043406  1
  Cl  Cl197  1  0.93746084  0.93746113  0.04043417  1
  Cl  Cl198  1  0.85385050  0.35385047  0.07988741  1
  Cl  Cl199  1  0.35385071  0.85385006  0.07988749  1
  Cl  Cl200  1  0.73426431  0.48426447  0.01946600  1
  Cl  Cl201  1  0.23426428  0.98426450  0.01946601  1
  Cl  Cl202  1  0.14524812  0.39524835  0.05659397  1
  Cl  Cl203  1  0.64524817  0.89524798  0.05659397  1
  Cl  Cl204  1  0.60384995  0.60385088  0.07988759  1
  Cl  Cl205  1  0.10385058  0.10385048  0.07988740  1
  Cl  Cl206  1  0.18746079  0.68746106  0.04043415  1
  Cl  Cl207  1  0.68746092  0.18746119  0.04043409  1
  Cl  Cl208  1  0.31137103  0.56137102  0.09985213  1
  Cl  Cl209  1  0.81137043  0.06137051  0.09985205  1
  Cl  Cl210  1  0.72853780  0.47853859  0.13971276  1
  Cl  Cl211  1  0.22853779  0.97853868  0.13971275  1
  Cl  Cl212  1  0.26980297  0.26980295  0.11859646  1
  Cl  Cl213  1  0.76980292  0.76980284  0.11859645  1
  Cl  Cl214  1  0.68669964  0.18669957  0.15982929  1
  Cl  Cl215  1  0.18669960  0.68669947  0.15982926  1
  Cl  Cl216  1  0.56137045  0.31137036  0.09985199  1
  Cl  Cl217  1  0.06137041  0.81137050  0.09985204  1
  Cl  Cl218  1  0.97853830  0.22853830  0.13971279  1
  Cl  Cl219  1  0.47853806  0.72853993  0.13971321  1
  Cl  Cl220  1  0.43669980  0.43670010  0.15982922  1
  Cl  Cl221  1  0.93669975  0.93669950  0.15982928  1
  Cl  Cl222  1  0.01980307  0.51980289  0.11859644  1
  Cl  Cl223  1  0.51980313  0.01980339  0.11859638  1
  Cl  Cl224  1  0.14506407  0.39506390  0.17935371  1
  Cl  Cl225  1  0.64506463  0.89506443  0.17935383  1
  Cl  Cl226  1  0.56209709  0.31209705  0.21988651  1
  Cl  Cl227  1  0.06209719  0.81209707  0.21988649  1
  Cl  Cl228  1  0.10372070  0.10372054  0.19991617  1
  Cl  Cl229  1  0.60372085  0.60372022  0.19991624  1
  Cl  Cl230  1  0.52061829  0.02061817  0.23981552  1
  Cl  Cl231  1  0.02061834  0.52061826  0.23981554  1
  Cl  Cl232  1  0.39506399  0.14506394  0.17935369  1
  Cl  Cl233  1  0.89506403  0.64506389  0.17935369  1
  Cl  Cl234  1  0.81209717  0.06209714  0.21988652  1
  Cl  Cl235  1  0.31209716  0.56209699  0.21988650  1
  Cl  Cl236  1  0.27061823  0.27061827  0.23981551  1
  Cl  Cl237  1  0.77061822  0.77061819  0.23981551  1
  Cl  Cl238  1  0.85372078  0.35372045  0.19991616  1
  Cl  Cl239  1  0.35372011  0.85372095  0.19991639  1
  Cl  Cl240  1  0.97938175  0.22938171  0.26018448  1
  Cl  Cl241  1  0.47938189  0.72938176  0.26018447  1
  Cl  Cl242  1  0.39627908  0.14627984  0.30008361  1
  Cl  Cl243  1  0.89627953  0.64627928  0.30008384  1
  Cl  Cl244  1  0.93790299  0.93790294  0.28011349  1
  Cl  Cl245  1  0.43790296  0.43790286  0.28011352  1
  Cl  Cl246  1  0.35493555  0.85493531  0.32064618  1
  Cl  Cl247  1  0.85493606  0.35493598  0.32064631  1
  Cl  Cl248  1  0.22938180  0.97938181  0.26018451  1
  Cl  Cl249  1  0.72938177  0.47938176  0.26018449  1
  Cl  Cl250  1  0.64627980  0.89627916  0.30008376  1
  Cl  Cl251  1  0.14627947  0.39627928  0.30008385  1
  Cl  Cl252  1  0.10493608  0.10493596  0.32064632  1
  Cl  Cl253  1  0.60493611  0.60493593  0.32064633  1
  Cl  Cl254  1  0.68790303  0.18790285  0.28011351  1
  Cl  Cl255  1  0.18790288  0.68790285  0.28011349  1
  Cl  Cl256  1  0.81329995  0.06330015  0.34017077  1
  Cl  Cl257  1  0.31330045  0.56330022  0.34017074  1
  Cl  Cl258  1  0.23019657  0.98019678  0.38140362  1
  Cl  Cl259  1  0.73019709  0.48019679  0.38140360  1
  Cl  Cl260  1  0.77146140  0.77146212  0.36028723  1
  Cl  Cl261  1  0.27146132  0.27146213  0.36028725  1
  Cl  Cl262  1  0.18862960  0.68862938  0.40014802  1
  Cl  Cl263  1  0.68862917  0.18862868  0.40014785  1
  Cl  Cl264  1  0.06330042  0.81330028  0.34017074  1
  Cl  Cl265  1  0.56330051  0.31330036  0.34017075  1
  Cl  Cl266  1  0.48019721  0.73019697  0.38140358  1
  Cl  Cl267  1  0.98019709  0.23019698  0.38140354  1
  Cl  Cl268  1  0.93862968  0.93862941  0.40014802  1
  Cl  Cl269  1  0.43862948  0.43862949  0.40014799  1
  Cl  Cl270  1  0.52146003  0.02146183  0.36028680  1
  Cl  Cl271  1  0.02146169  0.52146168  0.36028722  1
  Cl  Cl272  1  0.64614922  0.89614995  0.42011241  1
  Cl  Cl273  1  0.14614966  0.39614937  0.42011260  1
  Cl  Cl274  1  0.06253902  0.81253887  0.45956590  1
  Cl  Cl275  1  0.56253926  0.31253916  0.45956577  1
  Cl  Cl276  1  0.60475184  0.60475203  0.44340603  1
  Cl  Cl277  1  0.10475189  0.10475174  0.44340599  1
  Cl  Cl278  1  0.01573580  0.51573560  0.48053400  1
  Cl  Cl279  1  0.51573575  0.01573566  0.48053402  1
  Cl  Cl280  1  0.89614953  0.64614937  0.42011259  1
  Cl  Cl281  1  0.39615000  0.14614918  0.42011252  1
  Cl  Cl282  1  0.31253893  0.56253876  0.45956593  1
  Cl  Cl283  1  0.81253897  0.06253880  0.45956596  1
  Cl  Cl284  1  0.76573563  0.76573558  0.48053398  1
  Cl  Cl285  1  0.26573576  0.26573546  0.48053399  1
  Cl  Cl286  1  0.35475207  0.85475165  0.44340604  1
  Cl  Cl287  1  0.85475202  0.35475170  0.44340601  1
  Cl  Cl288  1  0.26572946  0.76572941  0.51946833  1
  Cl  Cl289  1  0.76572942  0.26572947  0.51946833  1
  Cl  Cl290  1  0.85474874  0.85474873  0.55659400  1
  Cl  Cl291  1  0.35474872  0.35474873  0.55659398  1
  Cl  Cl292  1  0.31253168  0.06253170  0.54043838  1
  Cl  Cl293  1  0.81253174  0.56253166  0.54043838  1
  Cl  Cl294  1  0.89614810  0.14614805  0.57988824  1
  Cl  Cl295  1  0.39614806  0.64614808  0.57988823  1
  Cl  Cl296  1  0.01572947  0.01572942  0.51946833  1
  Cl  Cl297  1  0.51572950  0.51572941  0.51946832  1
  Cl  Cl298  1  0.60474871  0.10474870  0.55659398  1
  Cl  Cl299  1  0.10474875  0.60474872  0.55659399  1
  Cl  Cl300  1  0.14614810  0.89614806  0.57988824  1
  Cl  Cl301  1  0.64614805  0.39614807  0.57988824  1
  Cl  Cl302  1  0.56253171  0.81253169  0.54043838  1
  Cl  Cl303  1  0.06253173  0.31253169  0.54043838  1
  Cl  Cl304  1  0.43863052  0.93863054  0.59985262  1
  Cl  Cl305  1  0.93863052  0.43863050  0.59985262  1
  Cl  Cl306  1  0.02146135  0.02146135  0.63971241  1
  Cl  Cl307  1  0.52146136  0.52146134  0.63971240  1
  Cl  Cl308  1  0.48019737  0.23019736  0.61859584  1
  Cl  Cl309  1  0.98019736  0.73019734  0.61859584  1
  Cl  Cl310  1  0.06330025  0.31330025  0.65982936  1
  Cl  Cl311  1  0.56330026  0.81330024  0.65982936  1
  Cl  Cl312  1  0.18863056  0.18863054  0.59985263  1
  Cl  Cl313  1  0.68863054  0.68863052  0.59985262  1
  Cl  Cl314  1  0.77146136  0.27146134  0.63971239  1
  Cl  Cl315  1  0.27146135  0.77146135  0.63971240  1
  Cl  Cl316  1  0.31330025  0.06330026  0.65982937  1
  Cl  Cl317  1  0.81330026  0.56330025  0.65982937  1
  Cl  Cl318  1  0.73019735  0.98019736  0.61859584  1
  Cl  Cl319  1  0.23019736  0.48019735  0.61859584  1
  Cl  Cl320  1  0.60493611  0.10493610  0.67935355  1
  Cl  Cl321  1  0.10493610  0.60493610  0.67935355  1
  Cl  Cl322  1  0.18790296  0.18790296  0.71988652  1
  Cl  Cl323  1  0.68790296  0.68790297  0.71988652  1
  Cl  Cl324  1  0.64627940  0.39627939  0.69991606  1
  Cl  Cl325  1  0.14627939  0.89627938  0.69991607  1
  Cl  Cl326  1  0.22938179  0.47938179  0.73981554  1
  Cl  Cl327  1  0.72938178  0.97938179  0.73981554  1
  Cl  Cl328  1  0.35493610  0.35493610  0.67935355  1
  Cl  Cl329  1  0.85493609  0.85493609  0.67935355  1
  Cl  Cl330  1  0.93790295  0.43790296  0.71988652  1
  Cl  Cl331  1  0.43790296  0.93790295  0.71988652  1
  Cl  Cl332  1  0.47938179  0.22938178  0.73981554  1
  Cl  Cl333  1  0.97938179  0.72938179  0.73981554  1
  Cl  Cl334  1  0.89627939  0.14627939  0.69991606  1
  Cl  Cl335  1  0.39627940  0.64627940  0.69991606  1
  Cl  Cl336  1  0.77061821  0.27061821  0.76018445  1
  Cl  Cl337  1  0.27061823  0.77061822  0.76018445  1
  Cl  Cl338  1  0.35372061  0.35372062  0.80008393  1
  Cl  Cl339  1  0.85372062  0.85372061  0.80008392  1
  Cl  Cl340  1  0.81209705  0.56209704  0.78011346  1
  Cl  Cl341  1  0.31209705  0.06209704  0.78011346  1
  Cl  Cl342  1  0.39506390  0.64506389  0.82064643  1
  Cl  Cl343  1  0.89506390  0.14506389  0.82064642  1
  Cl  Cl344  1  0.52061824  0.52061822  0.76018445  1
  Cl  Cl345  1  0.02061822  0.02061822  0.76018445  1
  Cl  Cl346  1  0.10372062  0.60372060  0.80008393  1
  Cl  Cl347  1  0.60372062  0.10372061  0.80008392  1
  Cl  Cl348  1  0.64506391  0.39506388  0.82064643  1
  Cl  Cl349  1  0.14506388  0.89506390  0.82064643  1
  Cl  Cl350  1  0.06209703  0.31209703  0.78011346  1
  Cl  Cl351  1  0.56209705  0.81209704  0.78011345  1
  Cl  Cl352  1  0.93669975  0.43669973  0.84017061  1
  Cl  Cl353  1  0.43669975  0.93669977  0.84017061  1
  Cl  Cl354  1  0.51980263  0.51980263  0.88140415  1
  Cl  Cl355  1  0.01980265  0.01980264  0.88140416  1
  Cl  Cl356  1  0.97853865  0.72853865  0.86028759  1
  Cl  Cl357  1  0.47853865  0.22853863  0.86028760  1
  Cl  Cl358  1  0.56136948  0.81136947  0.90014736  1
  Cl  Cl359  1  0.06136946  0.31136948  0.90014737  1
  Cl  Cl360  1  0.68669976  0.68669974  0.84017061  1
  Cl  Cl361  1  0.18669974  0.18669975  0.84017061  1
  Cl  Cl362  1  0.26980262  0.76980264  0.88140416  1
  Cl  Cl363  1  0.76980265  0.26980263  0.88140415  1
  Cl  Cl364  1  0.81136945  0.56136951  0.90014736  1
  Cl  Cl365  1  0.31136948  0.06136946  0.90014737  1
  Cl  Cl366  1  0.22853863  0.47853864  0.86028760  1
  Cl  Cl367  1  0.72853866  0.97853864  0.86028759  1
  Cl  Cl368  1  0.10385193  0.60385196  0.92011177  1
  Cl  Cl369  1  0.60385196  0.10385191  0.92011176  1
  Cl  Cl370  1  0.68746827  0.68746834  0.95956161  1
  Cl  Cl371  1  0.18746835  0.18746839  0.95956160  1
  Cl  Cl372  1  0.14525130  0.89525129  0.94340603  1
  Cl  Cl373  1  0.64525126  0.39525130  0.94340599  1
  Cl  Cl374  1  0.73427059  0.98427054  0.98053166  1
  Cl  Cl375  1  0.23427053  0.48427066  0.98053163  1
  Cl  Cl376  1  0.85385194  0.85385196  0.92011176  1
  Cl  Cl377  1  0.35385193  0.35385197  0.92011176  1
  Cl  Cl378  1  0.43746832  0.93746833  0.95956160  1
  Cl  Cl379  1  0.93746837  0.43746832  0.95956160  1
  Cl  Cl380  1  0.98427047  0.73427057  0.98053168  1
  Cl  Cl381  1  0.48427057  0.23427052  0.98053163  1
  Cl  Cl382  1  0.39525128  0.64525127  0.94340600  1
  Cl  Cl383  1  0.89525130  0.14525133  0.94340602  1
