# generated using pymatgen
data_LiCl
_symmetry_space_group_name_H-M   'P 1'
_cell_length_a   7.28262900
_cell_length_b   11.51484813
_cell_length_c   57.21985088
_cell_angle_alpha   90.00000000
_cell_angle_beta   90.00000000
_cell_angle_gamma   71.56504960
_symmetry_Int_Tables_number   1
_chemical_formula_structural   LiCl
_chemical_formula_sum   'Li128 Cl128'
_cell_volume   4552.12703160
_cell_formula_units_Z   128
loop_
 _symmetry_equiv_pos_site_id
 _symmetry_equiv_pos_as_xyz
  1  'x, y, z'
loop_
 _atom_site_type_symbol
 _atom_site_label
 _atom_site_symmetry_multiplicity
 _atom_site_fract_x
 _atom_site_fract_y
 _atom_site_fract_z
 _atom_site_occupancy
  Li  Li0  1  0.60102044  0.92219838  0.06101186  1
  Li  Li1  1  0.84189841  0.43997236  0.03867407  1
  Li  Li2  1  0.10091339  0.92226898  0.06098051  1
  Li  Li3  1  0.34187783  0.43996537  0.03867087  1
  Li  Li4  1  0.72818180  0.17079069  0.04276721  1
  Li  Li5  1  0.93387452  0.75540823  0.02154922  1
  Li  Li6  1  0.22819321  0.17078757  0.04277324  1
  Li  Li7  1  0.43386007  0.75545921  0.02153834  1
  Li  Li8  1  0.16750378  0.79153375  0.12155405  1
  Li  Li9  1  0.39323957  0.34206035  0.09433072  1
  Li  Li10  1  0.66745773  0.79154937  0.12155460  1
  Li  Li11  1  0.89309585  0.34193132  0.09436270  1
  Li  Li12  1  0.27989945  0.06960314  0.10645630  1
  Li  Li13  1  0.49971836  0.62366227  0.07852420  1
  Li  Li14  1  0.77998821  0.06944352  0.10645553  1
  Li  Li15  1  0.99973228  0.62364223  0.07852397  1
  Li  Li16  1  0.72293694  0.68022944  0.18226003  1
  Li  Li17  1  0.94565223  0.23300746  0.15285656  1
  Li  Li18  1  0.22292412  0.68024103  0.18226423  1
  Li  Li19  1  0.44564141  0.23300900  0.15285697  1
  Li  Li20  1  0.83480285  0.95583341  0.16707549  1
  Li  Li21  1  0.05647349  0.51484862  0.13798473  1
  Li  Li22  1  0.33482424  0.95583319  0.16707579  1
  Li  Li23  1  0.55643840  0.51486889  0.13798549  1
  Li  Li24  1  0.27782521  0.57004255  0.24243724  1
  Li  Li25  1  0.50053036  0.12414788  0.21256881  1
  Li  Li26  1  0.77783072  0.57004658  0.24243732  1
  Li  Li27  1  0.00053243  0.12415491  0.21256910  1
  Li  Li28  1  0.39005332  0.84592503  0.22733118  1
  Li  Li29  1  0.61315759  0.40167928  0.19754110  1
  Li  Li30  1  0.89008531  0.84598105  0.22731024  1
  Li  Li31  1  0.11316190  0.40168120  0.19754099  1
  Li  Li32  1  0.83508329  0.45664986  0.30227349  1
  Li  Li33  1  0.05689740  0.01326310  0.27262295  1
  Li  Li34  1  0.33509554  0.45664206  0.30227340  1
  Li  Li35  1  0.55688688  0.01326576  0.27262322  1
  Li  Li36  1  0.94432657  0.73513569  0.28736305  1
  Li  Li37  1  0.16718294  0.29019551  0.25743170  1
  Li  Li38  1  0.44433059  0.73514013  0.28736374  1
  Li  Li39  1  0.66716995  0.29019637  0.25743167  1
  Li  Li40  1  0.39072677  0.34439485  0.36190707  1
  Li  Li41  1  0.61219127  0.90249857  0.33286217  1
  Li  Li42  1  0.89078398  0.34441545  0.36190786  1
  Li  Li43  1  0.11209645  0.90248403  0.33286895  1
  Li  Li44  1  0.50002287  0.62515057  0.34704151  1
  Li  Li45  1  0.72330599  0.17855070  0.31754921  1
  Li  Li46  1  0.00001082  0.62518555  0.34704326  1
  Li  Li47  1  0.22317705  0.17858683  0.31755617  1
  Li  Li48  1  0.94545753  0.23319961  0.42132510  1
  Li  Li49  1  0.16893470  0.78881896  0.39350186  1
  Li  Li50  1  0.44532972  0.23312751  0.42131552  1
  Li  Li51  1  0.66903113  0.78883421  0.39350194  1
  Li  Li52  1  0.05486977  0.51685166  0.40569719  1
  Li  Li53  1  0.28054910  0.06597577  0.37822517  1
  Li  Li54  1  0.55485719  0.51687290  0.40569711  1
  Li  Li55  1  0.78024720  0.06710022  0.37811046  1
  Li  Li56  1  0.51455584  0.09966920  0.47896146  1
  Li  Li57  1  0.72344367  0.68402945  0.45717562  1
  Li  Li58  1  0.01385872  0.09998219  0.47897955  1
  Li  Li59  1  0.22364276  0.68387505  0.45718640  1
  Li  Li60  1  0.60656037  0.41499136  0.46135130  1
  Li  Li61  1  0.84566207  0.93484841  0.43900222  1
  Li  Li62  1  0.10683384  0.41484988  0.46133984  1
  Li  Li63  1  0.34556866  0.93487443  0.43900959  1
  Li  Li64  1  0.84768131  0.42913125  0.56076021  1
  Li  Li65  1  0.60755767  0.90925236  0.53875797  1
  Li  Li66  1  0.34749585  0.42910953  0.56077394  1
  Li  Li67  1  0.10756734  0.90925368  0.53874634  1
  Li  Li68  1  0.72275573  0.17923360  0.54288068  1
  Li  Li69  1  0.51298536  0.59438784  0.52135808  1
  Li  Li70  1  0.22277437  0.17922195  0.54288104  1
  Li  Li71  1  0.01295921  0.59438261  0.52135673  1
  Li  Li72  1  0.28194417  0.55705992  0.62167207  1
  Li  Li73  1  0.05555240  0.00909654  0.59455060  1
  Li  Li74  1  0.78193282  0.55706696  0.62167119  1
  Li  Li75  1  0.55554039  0.00909057  0.59455046  1
  Li  Li76  1  0.17282392  0.28244270  0.60655852  1
  Li  Li77  1  0.94917839  0.72737932  0.57870603  1
  Li  Li78  1  0.67283124  0.28244296  0.60655750  1
  Li  Li79  1  0.44914267  0.72725901  0.57867505  1
  Li  Li80  1  0.72788447  0.66970129  0.68237025  1
  Li  Li81  1  0.50237805  0.11671865  0.65309081  1
  Li  Li82  1  0.22788551  0.66970014  0.68237029  1
  Li  Li83  1  0.00237772  0.11671776  0.65309074  1
  Li  Li84  1  0.61452306  0.39385141  0.66711369  1
  Li  Li85  1  0.39332519  0.83577526  0.63831187  1
  Li  Li86  1  0.11444794  0.39382721  0.66712840  1
  Li  Li87  1  0.89329609  0.83578511  0.63831574  1
  Li  Li88  1  0.17002401  0.78097552  0.74250275  1
  Li  Li89  1  0.94763877  0.22695329  0.71257407  1
  Li  Li90  1  0.67002935  0.78097537  0.74250268  1
  Li  Li91  1  0.44763840  0.22695480  0.71257397  1
  Li  Li92  1  0.05988433  0.50319996  0.72736843  1
  Li  Li93  1  0.83985338  0.94710693  0.69777422  1
  Li  Li94  1  0.55988091  0.50320033  0.72736836  1
  Li  Li95  1  0.33985285  0.94710639  0.69777419  1
  Li  Li96  1  0.61592858  0.89248756  0.80228859  1
  Li  Li97  1  0.39260456  0.33695012  0.77281003  1
  Li  Li98  1  0.11603642  0.89248734  0.80230089  1
  Li  Li99  1  0.89261508  0.33694052  0.77281094  1
  Li  Li100  1  0.50414218  0.61556114  0.78737012  1
  Li  Li101  1  0.28122426  0.06050859  0.75770069  1
  Li  Li102  1  0.00413432  0.61556359  0.78737017  1
  Li  Li103  1  0.78124539  0.06050547  0.75770066  1
  Li  Li104  1  0.06073876  0.00526878  0.86177440  1
  Li  Li105  1  0.83955238  0.44615408  0.83308296  1
  Li  Li106  1  0.56076311  0.00517981  0.86177343  1
  Li  Li107  1  0.33954058  0.44616156  0.83308259  1
  Li  Li108  1  0.94848144  0.72614626  0.84687804  1
  Li  Li109  1  0.72602371  0.17178200  0.81769316  1
  Li  Li110  1  0.44842555  0.72616469  0.84687409  1
  Li  Li111  1  0.22611630  0.17188175  0.81772751  1
  Li  Li112  1  0.50400687  0.11554996  0.92136048  1
  Li  Li113  1  0.27974932  0.56103719  0.89338500  1
  Li  Li114  1  0.00337200  0.11571939  0.92142539  1
  Li  Li115  1  0.77975203  0.56103002  0.89338899  1
  Li  Li116  1  0.39506876  0.83322372  0.90552196  1
  Li  Li117  1  0.17174338  0.28358654  0.87836281  1
  Li  Li118  1  0.89497375  0.83338081  0.90551482  1
  Li  Li119  1  0.67173203  0.28361738  0.87834254  1
  Li  Li120  1  0.93921059  0.25009507  0.97867885  1
  Li  Li121  1  0.72925330  0.66513771  0.95747437  1
  Li  Li122  1  0.43921761  0.25012734  0.97867346  1
  Li  Li123  1  0.22934216  0.66518377  0.95747526  1
  Li  Li124  1  0.84434430  0.93374950  0.96148905  1
  Li  Li125  1  0.60615060  0.41485658  0.93877601  1
  Li  Li126  1  0.34465852  0.93453955  0.96128164  1
  Li  Li127  1  0.10627911  0.41480820  0.93869927  1
  Cl  Cl128  1  0.93708024  0.25275999  0.01910323  1
  Cl  Cl129  1  0.73150323  0.66058834  0.04231517  1
  Cl  Cl130  1  0.83443940  0.95627917  0.03386905  1
  Cl  Cl131  1  0.60961809  0.40551853  0.06453701  1
  Cl  Cl132  1  0.33449297  0.95627556  0.03389455  1
  Cl  Cl133  1  0.10963323  0.40552644  0.06454034  1
  Cl  Cl134  1  0.43703408  0.25274489  0.01909669  1
  Cl  Cl135  1  0.23157440  0.66057443  0.04231566  1
  Cl  Cl136  1  0.49974930  0.12804236  0.07819986  1
  Cl  Cl137  1  0.27799387  0.56979717  0.10744636  1
  Cl  Cl138  1  0.39230785  0.84125700  0.09138941  1
  Cl  Cl139  1  0.16768188  0.29184412  0.12329891  1
  Cl  Cl140  1  0.89229578  0.84123377  0.09137361  1
  Cl  Cl141  1  0.66768147  0.29184306  0.12329945  1
  Cl  Cl142  1  0.99977495  0.12799872  0.07818896  1
  Cl  Cl143  1  0.77798276  0.56979598  0.10744571  1
  Cl  Cl144  1  0.05698641  0.01173872  0.13706545  1
  Cl  Cl145  1  0.83405061  0.45803636  0.16765237  1
  Cl  Cl146  1  0.94523331  0.73496665  0.15223678  1
  Cl  Cl147  1  0.72317776  0.17893793  0.18245730  1
  Cl  Cl148  1  0.44521255  0.73496854  0.15224973  1
  Cl  Cl149  1  0.22317682  0.17893503  0.18245706  1
  Cl  Cl150  1  0.55699472  0.01174251  0.13706678  1
  Cl  Cl151  1  0.33404671  0.45803516  0.16765320  1
  Cl  Cl152  1  0.61247774  0.90151133  0.19729984  1
  Cl  Cl153  1  0.39013094  0.34608160  0.22745633  1
  Cl  Cl154  1  0.50116132  0.62422469  0.21248570  1
  Cl  Cl155  1  0.27946795  0.06819525  0.24244062  1
  Cl  Cl156  1  0.00116703  0.62423199  0.21248490  1
  Cl  Cl157  1  0.77947769  0.06819867  0.24243954  1
  Cl  Cl158  1  0.11248343  0.90149736  0.19729566  1
  Cl  Cl159  1  0.89013694  0.34608003  0.22745732  1
  Cl  Cl160  1  0.16796353  0.79097787  0.25746105  1
  Cl  Cl161  1  0.94547492  0.23472845  0.28742186  1
  Cl  Cl162  1  0.05648525  0.51295973  0.27242369  1
  Cl  Cl163  1  0.83407746  0.95728345  0.30255775  1
  Cl  Cl164  1  0.55648764  0.51295698  0.27242518  1
  Cl  Cl165  1  0.33406203  0.95728816  0.30256148  1
  Cl  Cl166  1  0.66796720  0.79097745  0.25746058  1
  Cl  Cl167  1  0.44548323  0.23473667  0.28741968  1
  Cl  Cl168  1  0.72273521  0.67981705  0.31741249  1
  Cl  Cl169  1  0.50136213  0.12320360  0.34759601  1
  Cl  Cl170  1  0.61242709  0.40057844  0.33227343  1
  Cl  Cl171  1  0.39035538  0.84617474  0.36279839  1
  Cl  Cl172  1  0.11238056  0.40055578  0.33226358  1
  Cl  Cl173  1  0.89035764  0.84622138  0.36279763  1
  Cl  Cl174  1  0.22274162  0.67980878  0.31741189  1
  Cl  Cl175  1  0.00132587  0.12319591  0.34759691  1
  Cl  Cl176  1  0.27978262  0.56633490  0.37663751  1
  Cl  Cl177  1  0.05542572  0.01637416  0.40845939  1
  Cl  Cl178  1  0.16930790  0.28802535  0.39249025  1
  Cl  Cl179  1  0.94863735  0.72907198  0.42173688  1
  Cl  Cl180  1  0.66929728  0.28807588  0.39249029  1
  Cl  Cl181  1  0.44859612  0.72916830  0.42173346  1
  Cl  Cl182  1  0.77978606  0.56633404  0.37664153  1
  Cl  Cl183  1  0.55549578  0.01631643  0.40845426  1
  Cl  Cl184  1  0.83848829  0.45121670  0.43546531  1
  Cl  Cl185  1  0.61398728  0.89939435  0.46589388  1
  Cl  Cl186  1  0.71636048  0.19551174  0.45809383  1
  Cl  Cl187  1  0.51461500  0.60192825  0.48099869  1
  Cl  Cl188  1  0.21650773  0.19539633  0.45810246  1
  Cl  Cl189  1  0.01467100  0.60183367  0.48100164  1
  Cl  Cl190  1  0.33856550  0.45120548  0.43545033  1
  Cl  Cl191  1  0.11384939  0.89948926  0.46590340  1
  Cl  Cl192  1  0.51380475  0.09675984  0.51928646  1
  Cl  Cl193  1  0.71657694  0.68899664  0.54230306  1
  Cl  Cl194  1  0.61504877  0.39380706  0.53375757  1
  Cl  Cl195  1  0.83992497  0.94450012  0.56468410  1
  Cl  Cl196  1  0.11509162  0.39378083  0.53375922  1
  Cl  Cl197  1  0.34000806  0.94442660  0.56467955  1
  Cl  Cl198  1  0.01377469  0.09682189  0.51929819  1
  Cl  Cl199  1  0.21659009  0.68902597  0.54230210  1
  Cl  Cl200  1  0.95121751  0.22290252  0.57823042  1
  Cl  Cl201  1  0.17213850  0.78041194  0.60765924  1
  Cl  Cl202  1  0.05777873  0.50917501  0.59141081  1
  Cl  Cl203  1  0.28176325  0.05904198  0.62346848  1
  Cl  Cl204  1  0.55779159  0.50915298  0.59140286  1
  Cl  Cl205  1  0.78176364  0.05904235  0.62346843  1
  Cl  Cl206  1  0.45119233  0.22292599  0.57823514  1
  Cl  Cl207  1  0.67212284  0.78040461  0.60766050  1
  Cl  Cl208  1  0.39233203  0.33869370  0.63712679  1
  Cl  Cl209  1  0.61514397  0.89219622  0.66773881  1
  Cl  Cl210  1  0.50404821  0.61471317  0.65247546  1
  Cl  Cl211  1  0.72552523  0.17144907  0.68263049  1
  Cl  Cl212  1  0.00404555  0.61471903  0.65247735  1
  Cl  Cl213  1  0.22552321  0.17144906  0.68263063  1
  Cl  Cl214  1  0.89234124  0.33868898  0.63712494  1
  Cl  Cl215  1  0.11514864  0.89219512  0.66773812  1
  Cl  Cl216  1  0.83741283  0.44829457  0.69747220  1
  Cl  Cl217  1  0.05956811  0.00412022  0.72755478  1
  Cl  Cl218  1  0.94888912  0.72589146  0.71253452  1
  Cl  Cl219  1  0.17068705  0.28203398  0.74261121  1
  Cl  Cl220  1  0.44889273  0.72588931  0.71253351  1
  Cl  Cl221  1  0.67068202  0.28203441  0.74261133  1
  Cl  Cl222  1  0.33741250  0.44829465  0.69747268  1
  Cl  Cl223  1  0.55956692  0.00412277  0.72755532  1
  Cl  Cl224  1  0.28122745  0.55976923  0.75754087  1
  Cl  Cl225  1  0.50363912  0.11550075  0.78754356  1
  Cl  Cl226  1  0.39282192  0.83738901  0.77251958  1
  Cl  Cl227  1  0.61484775  0.39283563  0.80271650  1
  Cl  Cl228  1  0.89281756  0.83738785  0.77252034  1
  Cl  Cl229  1  0.11485736  0.39283237  0.80271757  1
  Cl  Cl230  1  0.78122923  0.55976925  0.75754116  1
  Cl  Cl231  1  0.00364420  0.11549591  0.78754341  1
  Cl  Cl232  1  0.72657950  0.67049233  0.81741997  1
  Cl  Cl233  1  0.94865759  0.22614407  0.84764117  1
  Cl  Cl234  1  0.83691696  0.94922346  0.83223840  1
  Cl  Cl235  1  0.06012594  0.50281295  0.86286161  1
  Cl  Cl236  1  0.33691158  0.94923869  0.83223715  1
  Cl  Cl237  1  0.56012045  0.50283744  0.86286116  1
  Cl  Cl238  1  0.22659280  0.67049683  0.81741890  1
  Cl  Cl239  1  0.44867080  0.22611869  0.84763980  1
  Cl  Cl240  1  0.17011599  0.78347086  0.87651599  1
  Cl  Cl241  1  0.39499456  0.33286472  0.90853229  1
  Cl  Cl242  1  0.28097840  0.06139869  0.89245817  1
  Cl  Cl243  1  0.50129129  0.62051905  0.92164136  1
  Cl  Cl244  1  0.78099563  0.06143329  0.89244903  1
  Cl  Cl245  1  0.00126156  0.62053679  0.92163360  1
  Cl  Cl246  1  0.67010149  0.78345053  0.87651322  1
  Cl  Cl247  1  0.89490614  0.33286440  0.90854073  1
  Cl  Cl248  1  0.61279830  0.89820327  0.93546215  1
  Cl  Cl249  1  0.83840497  0.45037515  0.96578321  1
  Cl  Cl250  1  0.73626908  0.15396280  0.95800656  1
  Cl  Cl251  1  0.93814903  0.74759919  0.98120166  1
  Cl  Cl252  1  0.23611917  0.15427800  0.95793499  1
  Cl  Cl253  1  0.43800607  0.74824520  0.98116280  1
  Cl  Cl254  1  0.11235303  0.89826058  0.93549073  1
  Cl  Cl255  1  0.33841592  0.45041999  0.96577341  1
