# generated using pymatgen
data_Li2S
_symmetry_space_group_name_H-M   'P 1'
_cell_length_a   8.06147700
_cell_length_b   12.74631494
_cell_length_c   41.80238400
_cell_angle_alpha   90.00000000
_cell_angle_beta   90.00000000
_cell_angle_gamma   71.56504976
_symmetry_Int_Tables_number   1
_chemical_formula_structural   Li2S
_chemical_formula_sum   'Li108 S54'
_cell_volume   4074.94325961
_cell_formula_units_Z   54
loop_
 _symmetry_equiv_pos_site_id
 _symmetry_equiv_pos_as_xyz
  1  'x, y, z'
loop_
 _atom_site_type_symbol
 _atom_site_label
 _atom_site_symmetry_multiplicity
 _atom_site_fract_x
 _atom_site_fract_y
 _atom_site_fract_z
 _atom_site_occupancy
  Li  Li0  1  0.00079400  0.06288736  0.05094388  1
  Li  Li1  1  0.38987255  0.28300274  0.07244888  1
  Li  Li2  1  0.60891953  0.84476039  0.03158631  1
  Li  Li3  1  0.22462042  0.11540944  0.00721531  1
  Li  Li4  1  0.99430874  0.57554410  0.05529449  1
  Li  Li5  1  0.62227095  0.31858677  0.02871978  1
  Li  Li6  1  0.38660270  0.78928635  0.07452261  1
  Li  Li7  1  0.50079403  0.06288737  0.05094388  1
  Li  Li8  1  0.88987252  0.28300273  0.07244889  1
  Li  Li9  1  0.10891949  0.84476039  0.03158631  1
  Li  Li10  1  0.72462042  0.11540942  0.00721532  1
  Li  Li11  1  0.49430874  0.57554409  0.05529449  1
  Li  Li12  1  0.12227095  0.31858673  0.02871977  1
  Li  Li13  1  0.88660270  0.78928637  0.07452260  1
  Li  Li14  1  0.55502401  0.95323727  0.14211823  1
  Li  Li15  1  0.77693095  0.50723989  0.09570302  1
  Li  Li16  1  0.94380096  0.17504368  0.16442546  1
  Li  Li17  1  0.16649126  0.73064938  0.11929123  1
  Li  Li18  1  0.77702744  0.00988067  0.09619684  1
  Li  Li19  1  0.55519999  0.45234761  0.14108795  1
  Li  Li20  1  0.16566850  0.23147104  0.11860117  1
  Li  Li21  1  0.94409122  0.67423649  0.16439517  1
  Li  Li22  1  0.05502403  0.95323729  0.14211826  1
  Li  Li23  1  0.27693095  0.50723989  0.09570302  1
  Li  Li24  1  0.44380094  0.17504374  0.16442544  1
  Li  Li25  1  0.66649118  0.73064938  0.11929122  1
  Li  Li26  1  0.27702744  0.00988067  0.09619684  1
  Li  Li27  1  0.05520000  0.45234759  0.14108795  1
  Li  Li28  1  0.66566851  0.23147105  0.11860117  1
  Li  Li29  1  0.44409123  0.67423647  0.16439511  1
  Li  Li30  1  0.11019490  0.84042559  0.23269651  1
  Li  Li31  1  0.33314650  0.39648652  0.18712509  1
  Li  Li32  1  0.50002301  0.06344496  0.25554683  1
  Li  Li33  1  0.72203682  0.61777400  0.21003686  1
  Li  Li34  1  0.33263685  0.89667588  0.18747245  1
  Li  Li35  1  0.10998059  0.34059363  0.23259341  1
  Li  Li36  1  0.72168988  0.11832308  0.21007353  1
  Li  Li37  1  0.49991680  0.56253209  0.25540296  1
  Li  Li38  1  0.61019499  0.84042554  0.23269648  1
  Li  Li39  1  0.83314655  0.39648659  0.18712514  1
  Li  Li40  1  0.00002291  0.06344486  0.25554683  1
  Li  Li41  1  0.22203654  0.61777403  0.21003683  1
  Li  Li42  1  0.83263698  0.89667572  0.18747251  1
  Li  Li43  1  0.60998072  0.34059371  0.23259344  1
  Li  Li44  1  0.22168975  0.11832307  0.21007352  1
  Li  Li45  1  0.99991684  0.56253202  0.25540308  1
  Li  Li46  1  0.66658074  0.72923366  0.32399637  1
  Li  Li47  1  0.88888288  0.28546223  0.27829977  1
  Li  Li48  1  0.05586171  0.95142634  0.34659949  1
  Li  Li49  1  0.27782107  0.50700123  0.30124612  1
  Li  Li50  1  0.88912461  0.78483467  0.27834332  1
  Li  Li51  1  0.66672519  0.22922247  0.32390646  1
  Li  Li52  1  0.27651039  0.00710515  0.30112441  1
  Li  Li53  1  0.05600908  0.45165799  0.34670166  1
  Li  Li54  1  0.16658311  0.72923438  0.32399745  1
  Li  Li55  1  0.38888282  0.28546208  0.27829977  1
  Li  Li56  1  0.55586185  0.95142670  0.34659920  1
  Li  Li57  1  0.77782023  0.50700166  0.30124600  1
  Li  Li58  1  0.38912513  0.78483516  0.27834332  1
  Li  Li59  1  0.16672571  0.22922213  0.32390639  1
  Li  Li60  1  0.77651025  0.00710544  0.30112446  1
  Li  Li61  1  0.55600759  0.45165804  0.34670097  1
  Li  Li62  1  0.22225160  0.61773411  0.41495440  1
  Li  Li63  1  0.44434166  0.17383048  0.36924815  1
  Li  Li64  1  0.61119139  0.83964072  0.43809887  1
  Li  Li65  1  0.83343914  0.39575734  0.39207434  1
  Li  Li66  1  0.44396394  0.67391423  0.36930812  1
  Li  Li67  1  0.22267802  0.11713862  0.41490125  1
  Li  Li68  1  0.83339746  0.89572496  0.39218363  1
  Li  Li69  1  0.61186004  0.33871812  0.43750193  1
  Li  Li70  1  0.72226056  0.61773056  0.41495427  1
  Li  Li71  1  0.94434135  0.17383060  0.36924820  1
  Li  Li72  1  0.11119095  0.83964092  0.43809873  1
  Li  Li73  1  0.33343877  0.39575699  0.39207420  1
  Li  Li74  1  0.94394929  0.67392189  0.36930698  1
  Li  Li75  1  0.72267828  0.11713817  0.41490122  1
  Li  Li76  1  0.33339587  0.89572332  0.39218339  1
  Li  Li77  1  0.11185982  0.33871847  0.43750252  1
  Li  Li78  1  0.77867853  0.50591849  0.50613014  1
  Li  Li79  1  0.00037568  0.06143088  0.46059931  1
  Li  Li80  1  0.16726781  0.72802400  0.52915858  1
  Li  Li81  1  0.38905387  0.28330171  0.48284874  1
  Li  Li82  1  0.00052948  0.56149289  0.46068785  1
  Li  Li83  1  0.77834382  0.00649620  0.50629305  1
  Li  Li84  1  0.39009093  0.78410439  0.48391815  1
  Li  Li85  1  0.16701680  0.22712287  0.52905141  1
  Li  Li86  1  0.27868615  0.50591789  0.50613003  1
  Li  Li87  1  0.50037620  0.06143070  0.46059930  1
  Li  Li88  1  0.66726754  0.72802275  0.52915807  1
  Li  Li89  1  0.88905396  0.28330158  0.48284878  1
  Li  Li90  1  0.50052847  0.56149176  0.46068810  1
  Li  Li91  1  0.27834372  0.00649601  0.50629311  1
  Li  Li92  1  0.89008933  0.78410444  0.48391816  1
  Li  Li93  1  0.66701712  0.22712321  0.52905053  1
  Li  Li94  1  0.33564509  0.39021557  0.59334586  1
  Li  Li95  1  0.55499876  0.95171775  0.55245146  1
  Li  Li96  1  0.94473153  0.17239543  0.57405520  1
  Li  Li97  1  0.55777333  0.44639710  0.55048497  1
  Li  Li98  1  0.32198040  0.91738640  0.59622875  1
  Li  Li99  1  0.95065487  0.66062234  0.56993379  1
  Li  Li100  1  0.72093474  0.11996071  0.61772072  1
  Li  Li101  1  0.83565193  0.39021742  0.59334617  1
  Li  Li102  1  0.05499881  0.95171772  0.55245140  1
  Li  Li103  1  0.44472922  0.17239543  0.57405533  1
  Li  Li104  1  0.05777870  0.44640040  0.55048515  1
  Li  Li105  1  0.82198018  0.91738610  0.59622877  1
  Li  Li106  1  0.45065578  0.66062279  0.56993385  1
  Li  Li107  1  0.22093553  0.11995980  0.61772099  1
  S  S108  1  0.92038569  0.22322959  0.01686020  1
  S  S109  1  0.69372923  0.67611225  0.06236695  1
  S  S110  1  0.80675360  0.94948336  0.03930970  1
  S  S111  1  0.58168136  0.39902229  0.08279771  1
  S  S112  1  0.30675361  0.94948336  0.03930970  1
  S  S113  1  0.08168136  0.39902228  0.08279772  1
  S  S114  1  0.42038563  0.22322959  0.01686020  1
  S  S115  1  0.19372923  0.67611225  0.06236695  1
  S  S116  1  0.47141454  0.12050511  0.10807567  1
  S  S117  1  0.25001169  0.56241239  0.15281331  1
  S  S118  1  0.36086804  0.84199747  0.13090626  1
  S  S119  1  0.13801705  0.28630146  0.17556017  1
  S  S120  1  0.86086804  0.84199743  0.13090629  1
  S  S121  1  0.63801708  0.28630154  0.17556020  1
  S  S122  1  0.97141455  0.12050511  0.10807567  1
  S  S123  1  0.75001176  0.56241238  0.15281331  1
  S  S124  1  0.02703294  0.00798552  0.19886774  1
  S  S125  1  0.80500450  0.45169618  0.24411186  1
  S  S126  1  0.91618565  0.72918162  0.22142025  1
  S  S127  1  0.69433633  0.17444752  0.26691162  1
  S  S128  1  0.41618565  0.72918181  0.22142009  1
  S  S129  1  0.19433665  0.17444729  0.26691168  1
  S  S130  1  0.52703294  0.00798552  0.19886776  1
  S  S131  1  0.30500465  0.45169591  0.24411179  1
  S  S132  1  0.58293027  0.89604991  0.28970746  1
  S  S133  1  0.36142973  0.34029413  0.33523995  1
  S  S134  1  0.47195879  0.61794092  0.31249452  1
  S  S135  1  0.25006603  0.06236849  0.35795625  1
  S  S136  1  0.97195748  0.61793936  0.31249422  1
  S  S137  1  0.75006346  0.06236873  0.35795623  1
  S  S138  1  0.08292899  0.89605119  0.28970698  1
  S  S139  1  0.86142777  0.34029473  0.33524001  1
  S  S140  1  0.13857819  0.78486075  0.38090257  1
  S  S141  1  0.91741184  0.22805832  0.42606604  1
  S  S142  1  0.02789657  0.50697462  0.40359460  1
  S  S143  1  0.80612214  0.95004355  0.44945271  1
  S  S144  1  0.52789639  0.50697490  0.40359440  1
  S  S145  1  0.30612473  0.95004332  0.44945270  1
  S  S146  1  0.63857694  0.78486110  0.38090248  1
  S  S147  1  0.41741092  0.22805801  0.42606611  1
  S  S148  1  0.69484842  0.67343081  0.47228167  1
  S  S149  1  0.47287385  0.11615883  0.51698435  1
  S  S150  1  0.58410305  0.39417279  0.49415563  1
  S  S151  1  0.36274342  0.83677757  0.54207251  1
  S  S152  1  0.08409255  0.39419792  0.49415858  1
  S  S153  1  0.86274239  0.83677775  0.54207243  1
  S  S154  1  0.19485049  0.67343036  0.47228449  1
  S  S155  1  0.97287508  0.11615868  0.51698430  1
  S  S156  1  0.25123048  0.55970876  0.56289013  1
  S  S157  1  0.02468699  0.01225244  0.60810623  1
  S  S158  1  0.13773927  0.28619071  0.58569804  1
  S  S159  1  0.63773913  0.28618826  0.58569771  1
  S  S160  1  0.75122858  0.55970994  0.56289053  1
  S  S161  1  0.52468858  0.01225277  0.60810614  1
