# generated using pymatgen
data_Li2S
_symmetry_space_group_name_H-M   'P 1'
_cell_length_a   5.70032500
_cell_length_b   8.06147700
_cell_length_c   44.33812400
_cell_angle_alpha   90.00000000
_cell_angle_beta   90.00000000
_cell_angle_gamma   90.00000000
_symmetry_Int_Tables_number   1
_chemical_formula_structural   Li2S
_chemical_formula_sum   'Li56 S28'
_cell_volume   2037.47153604
_cell_formula_units_Z   28
loop_
 _symmetry_equiv_pos_site_id
 _symmetry_equiv_pos_as_xyz
  1  'x, y, z'
loop_
 _atom_site_type_symbol
 _atom_site_label
 _atom_site_symmetry_multiplicity
 _atom_site_fract_x
 _atom_site_fract_y
 _atom_site_fract_z
 _atom_site_occupancy
  Li  Li0  1  0.77573977  0.62499300  0.02713612  1
  Li  Li1  1  0.22425439  0.12499327  0.02713602  1
  Li  Li2  1  0.75267286  0.37498964  0.06974662  1
  Li  Li3  1  0.24754216  0.87498965  0.06973650  1
  Li  Li4  1  0.77573983  0.12499412  0.02713612  1
  Li  Li5  1  0.22425432  0.62499384  0.02713602  1
  Li  Li6  1  0.75245243  0.87498963  0.06973637  1
  Li  Li7  1  0.24755618  0.37498963  0.06973628  1
  Li  Li8  1  0.75127247  0.12499866  0.11457837  1
  Li  Li9  1  0.24872143  0.62500191  0.11457836  1
  Li  Li10  1  0.74983176  0.87498966  0.16011746  1
  Li  Li11  1  0.25016462  0.37498991  0.16011748  1
  Li  Li12  1  0.75127250  0.62500200  0.11457837  1
  Li  Li13  1  0.24872146  0.12499973  0.11457837  1
  Li  Li14  1  0.74983045  0.37498964  0.16011764  1
  Li  Li15  1  0.25016338  0.87498991  0.16011733  1
  Li  Li16  1  0.75048678  0.62499382  0.20561173  1
  Li  Li17  1  0.24950748  0.12499420  0.20561185  1
  Li  Li18  1  0.74966837  0.37498917  0.25023460  1
  Li  Li19  1  0.25032620  0.87498916  0.25023458  1
  Li  Li20  1  0.75048678  0.12499370  0.20561173  1
  Li  Li21  1  0.24950747  0.62499433  0.20561185  1
  Li  Li22  1  0.74966844  0.87498917  0.25023460  1
  Li  Li23  1  0.25032627  0.37498913  0.25023459  1
  Li  Li24  1  0.75169015  0.12496555  0.29555413  1
  Li  Li25  1  0.24830458  0.62496559  0.29555415  1
  Li  Li26  1  0.74882162  0.87499505  0.34061978  1
  Li  Li27  1  0.25117330  0.37499463  0.34061973  1
  Li  Li28  1  0.75169026  0.62496561  0.29555410  1
  Li  Li29  1  0.24830468  0.12496555  0.29555418  1
  Li  Li30  1  0.74882161  0.37499465  0.34061977  1
  Li  Li31  1  0.25117329  0.87499506  0.34061975  1
  Li  Li32  1  0.75034495  0.62501990  0.38584704  1
  Li  Li33  1  0.24965011  0.12501954  0.38584714  1
  Li  Li34  1  0.74869138  0.37501484  0.43074763  1
  Li  Li35  1  0.25130399  0.87501518  0.43074762  1
  Li  Li36  1  0.75034459  0.12501957  0.38584713  1
  Li  Li37  1  0.24964992  0.62501994  0.38584705  1
  Li  Li38  1  0.74869167  0.87501616  0.43074771  1
  Li  Li39  1  0.25130282  0.37501585  0.43074762  1
  Li  Li40  1  0.75000612  0.12500781  0.47613248  1
  Li  Li41  1  0.24998688  0.62500576  0.47613298  1
  Li  Li42  1  0.74968021  0.87500841  0.52182329  1
  Li  Li43  1  0.25031784  0.37500135  0.52182281  1
  Li  Li44  1  0.75000016  0.62500821  0.47613244  1
  Li  Li45  1  0.24999094  0.12500998  0.47613160  1
  Li  Li46  1  0.74960734  0.37510369  0.52182012  1
  Li  Li47  1  0.25038982  0.87510983  0.52181975  1
  Li  Li48  1  0.74754123  0.62500527  0.56674464  1
  Li  Li49  1  0.25245921  0.12500318  0.56674310  1
  Li  Li50  1  0.72388857  0.37499000  0.60970059  1
  Li  Li51  1  0.27610749  0.87499091  0.60969984  1
  Li  Li52  1  0.74753156  0.12500055  0.56674187  1
  Li  Li53  1  0.25247044  0.62500439  0.56674011  1
  Li  Li54  1  0.72388590  0.87499551  0.60970175  1
  Li  Li55  1  0.27610288  0.37500209  0.60970374  1
  S  S56  1  0.50000302  0.62497511  0.06874998  1
  S  S57  1  0.99999755  0.87499138  0.02532931  1
  S  S58  1  0.00000321  0.37499140  0.02532903  1
  S  S59  1  0.50000301  0.12498300  0.06874997  1
  S  S60  1  0.49999825  0.12497768  0.15999989  1
  S  S61  1  0.00000569  0.37496564  0.11515251  1
  S  S62  1  0.99999800  0.87496565  0.11515152  1
  S  S63  1  0.49999826  0.62497657  0.15999990  1
  S  S64  1  0.49999731  0.62498368  0.25050859  1
  S  S65  1  0.99999736  0.87499353  0.20534266  1
  S  S66  1  0.99999733  0.37499352  0.20534253  1
  S  S67  1  0.49999731  0.12498377  0.25050860  1
  S  S68  1  0.49999744  0.12499218  0.34063134  1
  S  S69  1  0.99999735  0.37477494  0.29548796  1
  S  S70  1  0.99999736  0.87477488  0.29548805  1
  S  S71  1  0.49999741  0.62499248  0.34063129  1
  S  S72  1  0.49999792  0.62508019  0.43083824  1
  S  S73  1  0.99999735  0.87510985  0.38572740  1
  S  S74  1  0.99999753  0.37510978  0.38572717  1
  S  S75  1  0.49999711  0.12507885  0.43083722  1
  S  S76  1  0.50000863  0.12509570  0.52122815  1
  S  S77  1  0.99999145  0.37501868  0.47629459  1
  S  S78  1  0.00000790  0.87504701  0.47630010  1
  S  S79  1  0.49997365  0.62507886  0.52122852  1
  S  S80  1  0.49997299  0.62499888  0.61124643  1
  S  S81  1  0.00000277  0.87500722  0.56792984  1
  S  S82  1  0.99998468  0.37500595  0.56793109  1
  S  S83  1  0.49998884  0.12499715  0.61124349  1
