# generated using pymatgen
data_Li2S
_symmetry_space_group_name_H-M   'P 1'
_cell_length_a   12.74631500
_cell_length_b   12.74631486
_cell_length_c   46.54296000
_cell_angle_alpha   90.00000000
_cell_angle_beta   90.00000000
_cell_angle_gamma   78.46304084
_symmetry_Int_Tables_number   1
_chemical_formula_structural   Li2S
_chemical_formula_sum   'Li192 S96'
_cell_volume   7408.98823887
_cell_formula_units_Z   96
loop_
 _symmetry_equiv_pos_site_id
 _symmetry_equiv_pos_as_xyz
  1  'x, y, z'
loop_
 _atom_site_type_symbol
 _atom_site_label
 _atom_site_symmetry_multiplicity
 _atom_site_fract_x
 _atom_site_fract_y
 _atom_site_fract_z
 _atom_site_occupancy
  Li  Li0  1  0.56887594  0.56887593  0.03330069  1
  Li  Li1  1  0.06887593  0.06887594  0.03330069  1
  Li  Li2  1  0.97468703  0.47468703  0.08662448  1
  Li  Li3  1  0.47468703  0.97468703  0.08662448  1
  Li  Li4  1  0.82394537  0.82394537  0.04336286  1
  Li  Li5  1  0.32394537  0.32394537  0.04336286  1
  Li  Li6  1  0.23127411  0.73127411  0.08620680  1
  Li  Li7  1  0.73127411  0.23127411  0.08620680  1
  Li  Li8  1  0.48127411  0.48127411  0.08620680  1
  Li  Li9  1  0.98127411  0.98127411  0.08620680  1
  Li  Li10  1  0.07394537  0.57394537  0.04336286  1
  Li  Li11  1  0.57394537  0.07394537  0.04336286  1
  Li  Li12  1  0.72468703  0.72468703  0.08662448  1
  Li  Li13  1  0.22468703  0.22468703  0.08662448  1
  Li  Li14  1  0.31887593  0.81887594  0.03330069  1
  Li  Li15  1  0.81887594  0.31887593  0.03330069  1
  Li  Li16  1  0.83625696  0.58625696  0.01608029  1
  Li  Li17  1  0.33625696  0.08625696  0.01608029  1
  Li  Li18  1  0.27805668  0.52805668  0.06146913  1
  Li  Li19  1  0.77805668  0.02805668  0.06146914  1
  Li  Li20  1  0.50907889  0.75907889  0.06229967  1
  Li  Li21  1  0.00907889  0.25907889  0.06229967  1
  Li  Li22  1  0.11061281  0.86061280  0.01435694  1
  Li  Li23  1  0.61061280  0.36061280  0.01435694  1
  Li  Li24  1  0.75907889  0.50907889  0.06229967  1
  Li  Li25  1  0.25907889  0.00907889  0.06229967  1
  Li  Li26  1  0.36061281  0.61061281  0.01435694  1
  Li  Li27  1  0.86061281  0.11061281  0.01435694  1
  Li  Li28  1  0.58625697  0.83625697  0.01608029  1
  Li  Li29  1  0.08625697  0.33625697  0.01608029  1
  Li  Li30  1  0.02805668  0.77805668  0.06146914  1
  Li  Li31  1  0.52805668  0.27805668  0.06146914  1
  Li  Li32  1  0.39606309  0.39606310  0.13678583  1
  Li  Li33  1  0.89606309  0.89606309  0.13678583  1
  Li  Li34  1  0.81262673  0.31262673  0.18751027  1
  Li  Li35  1  0.31262673  0.81262673  0.18751027  1
  Li  Li36  1  0.64565197  0.64565197  0.13754934  1
  Li  Li37  1  0.14565197  0.14565197  0.13754934  1
  Li  Li38  1  0.06248798  0.56248798  0.18699922  1
  Li  Li39  1  0.56248798  0.06248798  0.18699922  1
  Li  Li40  1  0.31248798  0.31248798  0.18699922  1
  Li  Li41  1  0.81248798  0.81248798  0.18699922  1
  Li  Li42  1  0.89565197  0.39565197  0.13754934  1
  Li  Li43  1  0.39565197  0.89565197  0.13754934  1
  Li  Li44  1  0.56262673  0.56262673  0.18751027  1
  Li  Li45  1  0.06262673  0.06262673  0.18751027  1
  Li  Li46  1  0.14606310  0.64606309  0.13678583  1
  Li  Li47  1  0.64606310  0.14606309  0.13678583  1
  Li  Li48  1  0.68738412  0.43738412  0.11305024  1
  Li  Li49  1  0.18738412  0.93738412  0.11305024  1
  Li  Li50  1  0.10428375  0.35428375  0.16166482  1
  Li  Li51  1  0.60428375  0.85428375  0.16166482  1
  Li  Li52  1  0.35411739  0.60411739  0.16243602  1
  Li  Li53  1  0.85411739  0.10411739  0.16243602  1
  Li  Li54  1  0.93794009  0.68794009  0.11133511  1
  Li  Li55  1  0.43794009  0.18794009  0.11133511  1
  Li  Li56  1  0.60411738  0.35411738  0.16243602  1
  Li  Li57  1  0.10411738  0.85411739  0.16243602  1
  Li  Li58  1  0.18794009  0.43794009  0.11133511  1
  Li  Li59  1  0.68794009  0.93794009  0.11133511  1
  Li  Li60  1  0.43738412  0.68738412  0.11305024  1
  Li  Li61  1  0.93738412  0.18738412  0.11305024  1
  Li  Li62  1  0.85428375  0.60428375  0.16166482  1
  Li  Li63  1  0.35428375  0.10428375  0.16166482  1
  Li  Li64  1  0.22918436  0.22918436  0.23727608  1
  Li  Li65  1  0.72918436  0.72918436  0.23727608  1
  Li  Li66  1  0.64587175  0.14587175  0.28748116  1
  Li  Li67  1  0.14587175  0.64587175  0.28748116  1
  Li  Li68  1  0.47919225  0.47919225  0.23730583  1
  Li  Li69  1  0.97919225  0.97919225  0.23730583  1
  Li  Li70  1  0.89591877  0.39591876  0.28750656  1
  Li  Li71  1  0.39591876  0.89591876  0.28750656  1
  Li  Li72  1  0.14591877  0.14591877  0.28750656  1
  Li  Li73  1  0.64591877  0.64591877  0.28750656  1
  Li  Li74  1  0.72919225  0.22919225  0.23730583  1
  Li  Li75  1  0.22919225  0.72919225  0.23730583  1
  Li  Li76  1  0.39587175  0.39587175  0.28748116  1
  Li  Li77  1  0.89587175  0.89587175  0.28748116  1
  Li  Li78  1  0.97918436  0.47918436  0.23727608  1
  Li  Li79  1  0.47918436  0.97918436  0.23727608  1
  Li  Li80  1  0.52070424  0.27070424  0.21243167  1
  Li  Li81  1  0.02070424  0.77070424  0.21243167  1
  Li  Li82  1  0.93746299  0.18746299  0.26249613  1
  Li  Li83  1  0.43746299  0.68746299  0.26249613  1
  Li  Li84  1  0.18751582  0.43751582  0.26244483  1
  Li  Li85  1  0.68751582  0.93751582  0.26244483  1
  Li  Li86  1  0.77097461  0.52097462  0.21246484  1
  Li  Li87  1  0.27097462  0.02097461  0.21246484  1
  Li  Li88  1  0.43751582  0.18751582  0.26244483  1
  Li  Li89  1  0.93751582  0.68751582  0.26244483  1
  Li  Li90  1  0.02097462  0.27097461  0.21246484  1
  Li  Li91  1  0.52097461  0.77097461  0.21246484  1
  Li  Li92  1  0.27070423  0.52070423  0.21243167  1
  Li  Li93  1  0.77070424  0.02070424  0.21243167  1
  Li  Li94  1  0.68746299  0.43746299  0.26249613  1
  Li  Li95  1  0.18746299  0.93746299  0.26249613  1
  Li  Li96  1  0.06248418  0.06248418  0.33755517  1
  Li  Li97  1  0.56248418  0.56248418  0.33755517  1
  Li  Li98  1  0.47902539  0.97902539  0.38753516  1
  Li  Li99  1  0.97902539  0.47902539  0.38753516  1
  Li  Li100  1  0.31253701  0.31253701  0.33750387  1
  Li  Li101  1  0.81253701  0.81253701  0.33750387  1
  Li  Li102  1  0.72929576  0.22929576  0.38756833  1
  Li  Li103  1  0.22929576  0.72929576  0.38756833  1
  Li  Li104  1  0.97929576  0.97929576  0.38756833  1
  Li  Li105  1  0.47929577  0.47929576  0.38756833  1
  Li  Li106  1  0.56253701  0.06253701  0.33750387  1
  Li  Li107  1  0.06253701  0.56253701  0.33750387  1
  Li  Li108  1  0.22902539  0.22902539  0.38753516  1
  Li  Li109  1  0.72902539  0.72902539  0.38753516  1
  Li  Li110  1  0.81248418  0.31248418  0.33755517  1
  Li  Li111  1  0.31248418  0.81248418  0.33755517  1
  Li  Li112  1  0.35408123  0.10408123  0.31249344  1
  Li  Li113  1  0.85408123  0.60408123  0.31249344  1
  Li  Li114  1  0.77080774  0.02080774  0.36269417  1
  Li  Li115  1  0.27080774  0.52080774  0.36269417  1
  Li  Li116  1  0.02081564  0.27081564  0.36272392  1
  Li  Li117  1  0.52081564  0.77081564  0.36272392  1
  Li  Li118  1  0.60412826  0.35412826  0.31251884  1
  Li  Li119  1  0.10412826  0.85412826  0.31251884  1
  Li  Li120  1  0.27081564  0.02081564  0.36272392  1
  Li  Li121  1  0.77081563  0.52081564  0.36272392  1
  Li  Li122  1  0.85412825  0.10412826  0.31251884  1
  Li  Li123  1  0.35412825  0.60412826  0.31251884  1
  Li  Li124  1  0.10408123  0.35408123  0.31249344  1
  Li  Li125  1  0.60408123  0.85408123  0.31249344  1
  Li  Li126  1  0.52080774  0.27080774  0.36269417  1
  Li  Li127  1  0.02080774  0.77080774  0.36269417  1
  Li  Li128  1  0.89588262  0.89588261  0.43756398  1
  Li  Li129  1  0.39588262  0.39588262  0.43756398  1
  Li  Li130  1  0.31205992  0.81205991  0.48866489  1
  Li  Li131  1  0.81205991  0.31205992  0.48866489  1
  Li  Li132  1  0.14571625  0.14571625  0.43833518  1
  Li  Li133  1  0.64571625  0.64571625  0.43833518  1
  Li  Li134  1  0.56261588  0.06261588  0.48694976  1
  Li  Li135  1  0.06261588  0.56261588  0.48694976  1
  Li  Li136  1  0.81261587  0.81261588  0.48694976  1
  Li  Li137  1  0.31261587  0.31261587  0.48694976  1
  Li  Li138  1  0.39571625  0.89571625  0.43833518  1
  Li  Li139  1  0.89571625  0.39571625  0.43833518  1
  Li  Li140  1  0.06205992  0.06205991  0.48866489  1
  Li  Li141  1  0.56205991  0.56205991  0.48866489  1
  Li  Li142  1  0.64588261  0.14588261  0.43756398  1
  Li  Li143  1  0.14588261  0.64588262  0.43756398  1
  Li  Li144  1  0.18751202  0.93751202  0.41300078  1
  Li  Li145  1  0.68751202  0.43751202  0.41300078  1
  Li  Li146  1  0.60434803  0.85434803  0.46245066  1
  Li  Li147  1  0.10434803  0.35434803  0.46245066  1
  Li  Li148  1  0.85393691  0.10393691  0.46321417  1
  Li  Li149  1  0.35393691  0.60393691  0.46321417  1
  Li  Li150  1  0.43737327  0.18737327  0.41248973  1
  Li  Li151  1  0.93737327  0.68737327  0.41248973  1
  Li  Li152  1  0.10393690  0.85393690  0.46321417  1
  Li  Li153  1  0.60393691  0.35393691  0.46321417  1
  Li  Li154  1  0.68737327  0.93737327  0.41248973  1
  Li  Li155  1  0.18737327  0.43737327  0.41248973  1
  Li  Li156  1  0.93751202  0.18751202  0.41300078  1
  Li  Li157  1  0.43751202  0.68751202  0.41300078  1
  Li  Li158  1  0.35434803  0.10434803  0.46245066  1
  Li  Li159  1  0.85434803  0.60434803  0.46245066  1
  Li  Li160  1  0.74092111  0.74092111  0.53770033  1
  Li  Li161  1  0.24092111  0.24092111  0.53770033  1
  Li  Li162  1  0.13938719  0.63938719  0.58564306  1
  Li  Li163  1  0.63938720  0.13938720  0.58564306  1
  Li  Li164  1  0.97194332  0.97194332  0.53853086  1
  Li  Li165  1  0.47194332  0.47194332  0.53853086  1
  Li  Li166  1  0.41374304  0.91374304  0.58391971  1
  Li  Li167  1  0.91374303  0.41374303  0.58391971  1
  Li  Li168  1  0.66374303  0.66374303  0.58391971  1
  Li  Li169  1  0.16374303  0.16374303  0.58391971  1
  Li  Li170  1  0.22194332  0.72194332  0.53853086  1
  Li  Li171  1  0.72194332  0.22194332  0.53853086  1
  Li  Li172  1  0.88938720  0.88938720  0.58564306  1
  Li  Li173  1  0.38938720  0.38938720  0.58564307  1
  Li  Li174  1  0.49092111  0.99092111  0.53770033  1
  Li  Li175  1  0.99092111  0.49092111  0.53770033  1
  Li  Li176  1  0.01872589  0.76872589  0.51379320  1
  Li  Li177  1  0.51872589  0.26872589  0.51379320  1
  Li  Li178  1  0.42605463  0.67605463  0.55663714  1
  Li  Li179  1  0.92605463  0.17605463  0.55663714  1
  Li  Li180  1  0.68112407  0.93112407  0.56669931  1
  Li  Li181  1  0.18112406  0.43112407  0.56669931  1
  Li  Li182  1  0.27531297  0.02531297  0.51337552  1
  Li  Li183  1  0.77531297  0.52531297  0.51337552  1
  Li  Li184  1  0.93112407  0.68112406  0.56669931  1
  Li  Li185  1  0.43112407  0.18112406  0.56669931  1
  Li  Li186  1  0.52531297  0.77531297  0.51337552  1
  Li  Li187  1  0.02531297  0.27531297  0.51337552  1
  Li  Li188  1  0.76872589  0.01872589  0.51379320  1
  Li  Li189  1  0.26872589  0.51872589  0.51379320  1
  Li  Li190  1  0.17605463  0.92605463  0.55663714  1
  Li  Li191  1  0.67605463  0.42605463  0.55663714  1
  S  S192  1  0.47669092  0.72669091  0.01322422  1
  S  S193  1  0.97669092  0.22669092  0.01322422  1
  S  S194  1  0.89658232  0.64658232  0.05953887  1
  S  S195  1  0.39658232  0.14658232  0.05953887  1
  S  S196  1  0.43904946  0.43904946  0.03655112  1
  S  S197  1  0.93904946  0.93904946  0.03655112  1
  S  S198  1  0.85383188  0.35383188  0.08852378  1
  S  S199  1  0.35383188  0.85383188  0.08852378  1
  S  S200  1  0.72669091  0.47669092  0.01322422  1
  S  S201  1  0.22669092  0.97669091  0.01322422  1
  S  S202  1  0.14658232  0.39658232  0.05953887  1
  S  S203  1  0.64658232  0.89658232  0.05953887  1
  S  S204  1  0.60383188  0.60383187  0.08852378  1
  S  S205  1  0.10383188  0.10383188  0.08852378  1
  S  S206  1  0.18904946  0.68904946  0.03655112  1
  S  S207  1  0.68904946  0.18904946  0.03655112  1
  S  S208  1  0.31238372  0.56238373  0.11200499  1
  S  S209  1  0.81238372  0.06238372  0.11200499  1
  S  S210  1  0.72934424  0.47934424  0.16277581  1
  S  S211  1  0.22934424  0.97934424  0.16277581  1
  S  S212  1  0.27088511  0.27088510  0.13619549  1
  S  S213  1  0.77088510  0.77088511  0.13619549  1
  S  S214  1  0.68731492  0.18731492  0.18726553  1
  S  S215  1  0.18731492  0.68731492  0.18726553  1
  S  S216  1  0.56238372  0.31238372  0.11200499  1
  S  S217  1  0.06238372  0.81238372  0.11200499  1
  S  S218  1  0.97934424  0.22934424  0.16277581  1
  S  S219  1  0.47934424  0.72934424  0.16277581  1
  S  S220  1  0.43731492  0.43731492  0.18726553  1
  S  S221  1  0.93731492  0.93731492  0.18726553  1
  S  S222  1  0.02088510  0.52088510  0.13619549  1
  S  S223  1  0.52088511  0.02088510  0.13619549  1
  S  S224  1  0.14586058  0.39586058  0.21199868  1
  S  S225  1  0.64586058  0.89586058  0.21199868  1
  S  S226  1  0.56245287  0.31245287  0.26248541  1
  S  S227  1  0.06245287  0.81245287  0.26248541  1
  S  S228  1  0.10423035  0.10423035  0.23751145  1
  S  S229  1  0.60423035  0.60423035  0.23751145  1
  S  S230  1  0.52082687  0.02082688  0.28739999  1
  S  S231  1  0.02082687  0.52082687  0.28739999  1
  S  S232  1  0.39586058  0.14586057  0.21199868  1
  S  S233  1  0.89586058  0.64586058  0.21199868  1
  S  S234  1  0.81245287  0.06245287  0.26248541  1
  S  S235  1  0.31245287  0.56245287  0.26248541  1
  S  S236  1  0.27082688  0.27082687  0.28739999  1
  S  S237  1  0.77082688  0.77082687  0.28739999  1
  S  S238  1  0.85423035  0.35423035  0.23751145  1
  S  S239  1  0.35423035  0.85423035  0.23751145  1
  S  S240  1  0.97917313  0.22917313  0.31260001  1
  S  S241  1  0.47917313  0.72917313  0.31260001  1
  S  S242  1  0.39576965  0.14576965  0.36248855  1
  S  S243  1  0.89576965  0.64576965  0.36248855  1
  S  S244  1  0.93754714  0.93754714  0.33751459  1
  S  S245  1  0.43754713  0.43754713  0.33751459  1
  S  S246  1  0.35413943  0.85413943  0.38800132  1
  S  S247  1  0.85413943  0.35413942  0.38800132  1
  S  S248  1  0.22917312  0.97917312  0.31260001  1
  S  S249  1  0.72917312  0.47917313  0.31260001  1
  S  S250  1  0.64576965  0.89576965  0.36248855  1
  S  S251  1  0.14576965  0.39576965  0.36248855  1
  S  S252  1  0.10413943  0.10413943  0.38800132  1
  S  S253  1  0.60413943  0.60413942  0.38800132  1
  S  S254  1  0.68754713  0.18754713  0.33751459  1
  S  S255  1  0.18754713  0.68754714  0.33751459  1
  S  S256  1  0.81268508  0.06268508  0.41273447  1
  S  S257  1  0.31268508  0.56268508  0.41273446  1
  S  S258  1  0.22911490  0.97911490  0.46380451  1
  S  S259  1  0.72911490  0.47911490  0.46380451  1
  S  S260  1  0.77065575  0.77065575  0.43722419  1
  S  S261  1  0.27065575  0.27065575  0.43722419  1
  S  S262  1  0.18761627  0.68761628  0.48799500  1
  S  S263  1  0.68761628  0.18761627  0.48799500  1
  S  S264  1  0.06268508  0.81268508  0.41273447  1
  S  S265  1  0.56268508  0.31268508  0.41273447  1
  S  S266  1  0.47911490  0.72911490  0.46380451  1
  S  S267  1  0.97911490  0.22911490  0.46380451  1
  S  S268  1  0.93761628  0.93761627  0.48799501  1
  S  S269  1  0.43761627  0.43761627  0.48799500  1
  S  S270  1  0.52065575  0.02065575  0.43722419  1
  S  S271  1  0.02065575  0.52065575  0.43722419  1
  S  S272  1  0.64616812  0.89616812  0.51147622  1
  S  S273  1  0.14616813  0.39616812  0.51147623  1
  S  S274  1  0.06095054  0.81095054  0.56344888  1
  S  S275  1  0.56095054  0.31095054  0.56344888  1
  S  S276  1  0.60341768  0.60341768  0.54046113  1
  S  S277  1  0.10341767  0.10341767  0.54046113  1
  S  S278  1  0.02330909  0.52330909  0.58677578  1
  S  S279  1  0.52330908  0.02330909  0.58677578  1
  S  S280  1  0.89616813  0.64616812  0.51147623  1
  S  S281  1  0.39616812  0.14616813  0.51147623  1
  S  S282  1  0.31095054  0.56095055  0.56344888  1
  S  S283  1  0.81095054  0.06095054  0.56344888  1
  S  S284  1  0.77330909  0.77330909  0.58677578  1
  S  S285  1  0.27330909  0.27330909  0.58677578  1
  S  S286  1  0.35341767  0.85341768  0.54046113  1
  S  S287  1  0.85341767  0.35341767  0.54046113  1
