# generated using pymatgen
data_Li2S
_symmetry_space_group_name_H-M   'P 1'
_cell_length_a   5.70032500
_cell_length_b   5.70032500
_cell_length_c   45.60260100
_cell_angle_alpha   90.00000000
_cell_angle_beta   90.00000000
_cell_angle_gamma   90.00000000
_symmetry_Int_Tables_number   1
_chemical_formula_structural   Li2S
_chemical_formula_sum   'Li36 S18'
_cell_volume   1481.79746894
_cell_formula_units_Z   18
loop_
 _symmetry_equiv_pos_site_id
 _symmetry_equiv_pos_as_xyz
  1  'x, y, z'
loop_
 _atom_site_type_symbol
 _atom_site_label
 _atom_site_symmetry_multiplicity
 _atom_site_fract_x
 _atom_site_fract_y
 _atom_site_fract_z
 _atom_site_occupancy
  Li  Li0  1  0.74516203  0.75537108  0.07700189  1
  Li  Li1  1  0.24514850  0.25532431  0.07700388  1
  Li  Li2  1  0.74651367  0.25542949  0.08222578  1
  Li  Li3  1  0.23630669  0.74374820  0.02606477  1
  Li  Li4  1  0.73638727  0.24380974  0.02606901  1
  Li  Li5  1  0.24648400  0.75544911  0.08222664  1
  Li  Li6  1  0.24830462  0.25118466  0.14142008  1
  Li  Li7  1  0.74932391  0.74782004  0.20393425  1
  Li  Li8  1  0.24992758  0.24788158  0.20394703  1
  Li  Li9  1  0.74830022  0.75104707  0.14141532  1
  Li  Li10  1  0.74954419  0.24742464  0.20428650  1
  Li  Li11  1  0.24977433  0.75019811  0.14257546  1
  Li  Li12  1  0.74978033  0.25017645  0.14258030  1
  Li  Li13  1  0.24891149  0.74775269  0.20417370  1
  Li  Li14  1  0.25046729  0.24587897  0.26603044  1
  Li  Li15  1  0.75059516  0.74590971  0.32762595  1
  Li  Li16  1  0.25060188  0.24590957  0.32762687  1
  Li  Li17  1  0.75048733  0.74586955  0.26603347  1
  Li  Li18  1  0.75057297  0.24589562  0.32770024  1
  Li  Li19  1  0.25050283  0.74586808  0.26608290  1
  Li  Li20  1  0.75053252  0.24588690  0.26608825  1
  Li  Li21  1  0.25069285  0.74593340  0.32768218  1
  Li  Li22  1  0.25083569  0.24799268  0.38911279  1
  Li  Li23  1  0.75043412  0.75019897  0.45114598  1
  Li  Li24  1  0.25045135  0.25019760  0.45114781  1
  Li  Li25  1  0.75096218  0.74815520  0.38910707  1
  Li  Li26  1  0.75197740  0.25104148  0.45233879  1
  Li  Li27  1  0.25100499  0.74823345  0.38984774  1
  Li  Li28  1  0.75101874  0.24822557  0.38984590  1
  Li  Li29  1  0.25183234  0.75104646  0.45233851  1
  Li  Li30  1  0.25449314  0.25431931  0.51168249  1
  Li  Li31  1  0.75484709  0.75488649  0.56797976  1
  Li  Li32  1  0.25412644  0.25574877  0.56798216  1
  Li  Li33  1  0.75444466  0.75439964  0.51166663  1
  Li  Li34  1  0.25528477  0.75522098  0.51677872  1
  Li  Li35  1  0.75523017  0.25517867  0.51677742  1
  S  S36  1  0.99808562  0.50276181  0.11092358  1
  S  S37  1  0.99698570  0.00439442  0.04809654  1
  S  S38  1  0.49807098  0.00269543  0.11092775  1
  S  S39  1  0.49700347  0.50440338  0.04810412  1
  S  S40  1  0.99998937  0.49700040  0.23508754  1
  S  S41  1  0.99914360  0.99913951  0.17310219  1
  S  S42  1  0.49982386  0.99677713  0.23511568  1
  S  S43  1  0.49937633  0.49889798  0.17311348  1
  S  S44  1  0.00080806  0.49712098  0.35853174  1
  S  S45  1  0.00036991  0.99624758  0.29686445  1
  S  S46  1  0.50082774  0.99711046  0.35853626  1
  S  S47  1  0.50040533  0.49621933  0.29686657  1
  S  S48  1  0.00280006  0.50229698  0.48286079  1
  S  S49  1  0.00136995  0.99934691  0.42057519  1
  S  S50  1  0.50276162  0.00233570  0.48285618  1
  S  S51  1  0.50137498  0.49933150  0.42057536  1
  S  S52  1  0.00479369  0.00464633  0.54579038  1
  S  S53  1  0.50474496  0.50465996  0.54577552  1
