# generated using pymatgen
data_Li2S
_symmetry_space_group_name_H-M   'P 1'
_cell_length_a   8.06147700
_cell_length_b   8.06147736
_cell_length_c   42.78409500
_cell_angle_alpha   90.00000000
_cell_angle_beta   90.00000000
_cell_angle_gamma   59.99999737
_symmetry_Int_Tables_number   1
_chemical_formula_structural   Li2S
_chemical_formula_sum   'Li64 S32'
_cell_volume   2407.92096463
_cell_formula_units_Z   32
loop_
 _symmetry_equiv_pos_site_id
 _symmetry_equiv_pos_as_xyz
  1  'x, y, z'
loop_
 _atom_site_type_symbol
 _atom_site_label
 _atom_site_symmetry_multiplicity
 _atom_site_fract_x
 _atom_site_fract_y
 _atom_site_fract_z
 _atom_site_occupancy
  Li  Li0  1  0.00000003  0.00000005  0.05942365  1
  Li  Li1  1  0.66666690  0.66666685  0.02395005  1
  Li  Li2  1  0.16666692  0.16666681  0.02395005  1
  Li  Li3  1  0.50000003  0.50000001  0.05942345  1
  Li  Li4  1  0.50000003  0.00000009  0.05942357  1
  Li  Li5  1  0.16666693  0.66666690  0.02395004  1
  Li  Li6  1  0.66666697  0.16666686  0.02395003  1
  Li  Li7  1  0.00000007  0.50000003  0.05942328  1
  Li  Li8  1  0.66666637  0.66666642  0.13515944  1
  Li  Li9  1  0.33333331  0.33333329  0.09716016  1
  Li  Li10  1  0.83333330  0.83333330  0.09716013  1
  Li  Li11  1  0.16666643  0.16666639  0.13515933  1
  Li  Li12  1  0.16666649  0.66666642  0.13515956  1
  Li  Li13  1  0.83333330  0.33333330  0.09716010  1
  Li  Li14  1  0.33333331  0.83333330  0.09716014  1
  Li  Li15  1  0.66666643  0.16666649  0.13515927  1
  Li  Li16  1  0.33333341  0.33333342  0.21159951  1
  Li  Li17  1  0.99999995  0.99999998  0.17379555  1
  Li  Li18  1  0.49999996  0.50000001  0.17379551  1
  Li  Li19  1  0.83333341  0.83333341  0.21159952  1
  Li  Li20  1  0.83333344  0.33333343  0.21159952  1
  Li  Li21  1  0.49999999  0.99999997  0.17379550  1
  Li  Li22  1  0.99999996  0.50000001  0.17379549  1
  Li  Li23  1  0.33333345  0.83333342  0.21159952  1
  Li  Li24  1  0.99999991  0.99999994  0.28869879  1
  Li  Li25  1  0.66666658  0.66666662  0.25072927  1
  Li  Li26  1  0.16666661  0.16666661  0.25072928  1
  Li  Li27  1  0.49999992  0.49999994  0.28869879  1
  Li  Li28  1  0.49999994  0.99999994  0.28869877  1
  Li  Li29  1  0.16666666  0.66666663  0.25072927  1
  Li  Li30  1  0.66666661  0.16666666  0.25072927  1
  Li  Li31  1  0.99999993  0.49999996  0.28869877  1
  Li  Li32  1  0.66666664  0.66666653  0.36517440  1
  Li  Li33  1  0.33333353  0.33333344  0.32733155  1
  Li  Li34  1  0.83333350  0.83333349  0.32733155  1
  Li  Li35  1  0.16666656  0.16666660  0.36517439  1
  Li  Li36  1  0.16666657  0.66666658  0.36517439  1
  Li  Li37  1  0.83333350  0.33333345  0.32733155  1
  Li  Li38  1  0.33333346  0.83333342  0.32733158  1
  Li  Li39  1  0.66666660  0.16666656  0.36517437  1
  Li  Li40  1  0.33333331  0.33333340  0.44154776  1
  Li  Li41  1  0.99999991  0.99999993  0.40314546  1
  Li  Li42  1  0.49999992  0.49999990  0.40314549  1
  Li  Li43  1  0.83333340  0.83333331  0.44154775  1
  Li  Li44  1  0.83333335  0.33333333  0.44154776  1
  Li  Li45  1  0.49999989  0.99999991  0.40314549  1
  Li  Li46  1  0.99999989  0.49999987  0.40314547  1
  Li  Li47  1  0.33333331  0.83333332  0.44154775  1
  Li  Li48  1  0.00000011  0.00000018  0.51834550  1
  Li  Li49  1  0.66666665  0.66666663  0.48020718  1
  Li  Li50  1  0.16666662  0.16666665  0.48020712  1
  Li  Li51  1  0.50000020  0.50000014  0.51834547  1
  Li  Li52  1  0.50000018  0.00000014  0.51834564  1
  Li  Li53  1  0.16666665  0.66666665  0.48020716  1
  Li  Li54  1  0.66666667  0.16666665  0.48020710  1
  Li  Li55  1  0.00000013  0.50000016  0.51834553  1
  Li  Li56  1  0.66666656  0.66666656  0.59063322  1
  Li  Li57  1  0.33333345  0.33333345  0.55592702  1
  Li  Li58  1  0.83333345  0.83333346  0.55592700  1
  Li  Li59  1  0.16666657  0.16666657  0.59063323  1
  Li  Li60  1  0.16666658  0.66666658  0.59063322  1
  Li  Li61  1  0.83333345  0.33333347  0.55592700  1
  Li  Li62  1  0.33333346  0.83333346  0.55592699  1
  Li  Li63  1  0.66666657  0.16666658  0.59063322  1
  S  S64  1  0.83333315  0.33333312  0.03912412  1
  S  S65  1  0.83333315  0.83333319  0.03912412  1
  S  S66  1  0.33333309  0.83333318  0.03912413  1
  S  S67  1  0.33333314  0.33333317  0.03912411  1
  S  S68  1  0.50000005  0.00000006  0.11640521  1
  S  S69  1  0.50000004  0.50000006  0.11640522  1
  S  S70  1  0.00000006  0.50000005  0.11640521  1
  S  S71  1  0.00000005  0.00000005  0.11640522  1
  S  S72  1  0.16666663  0.66666665  0.19287299  1
  S  S73  1  0.16666664  0.16666665  0.19287300  1
  S  S74  1  0.66666665  0.16666664  0.19287299  1
  S  S75  1  0.66666665  0.66666664  0.19287299  1
  S  S76  1  0.83333333  0.33333336  0.26959233  1
  S  S77  1  0.83333335  0.83333337  0.26959234  1
  S  S78  1  0.33333336  0.83333334  0.26959234  1
  S  S79  1  0.33333337  0.33333337  0.26959234  1
  S  S80  1  0.49999995  0.99999999  0.34609822  1
  S  S81  1  0.49999991  0.49999994  0.34609821  1
  S  S82  1  0.99999994  0.49999997  0.34609820  1
  S  S83  1  0.99999990  0.99999996  0.34609822  1
  S  S84  1  0.16666662  0.66666663  0.42252934  1
  S  S85  1  0.16666662  0.16666664  0.42252934  1
  S  S86  1  0.66666663  0.16666662  0.42252935  1
  S  S87  1  0.66666665  0.66666663  0.42252934  1
  S  S88  1  0.83333331  0.33333331  0.49897506  1
  S  S89  1  0.83333331  0.83333329  0.49897505  1
  S  S90  1  0.33333329  0.83333331  0.49897505  1
  S  S91  1  0.33333328  0.33333330  0.49897505  1
  S  S92  1  0.50000019  0.00000017  0.57619152  1
  S  S93  1  0.50000017  0.50000016  0.57619149  1
  S  S94  1  0.00000018  0.50000018  0.57619152  1
  S  S95  1  0.00000016  0.00000017  0.57619151  1
