# generated using pymatgen
data_Li2S
_symmetry_space_group_name_H-M   'P 1'
_cell_length_a   5.70032500
_cell_length_b   12.74631500
_cell_length_c   40.78820600
_cell_angle_alpha   90.00000000
_cell_angle_beta   90.00000000
_cell_angle_gamma   90.00000000
_symmetry_Int_Tables_number   1
_chemical_formula_structural   Li2S
_chemical_formula_sum   'Li76 S38'
_cell_volume   2963.59510246
_cell_formula_units_Z   38
loop_
 _symmetry_equiv_pos_site_id
 _symmetry_equiv_pos_as_xyz
  1  'x, y, z'
loop_
 _atom_site_type_symbol
 _atom_site_label
 _atom_site_symmetry_multiplicity
 _atom_site_fract_x
 _atom_site_fract_y
 _atom_site_fract_z
 _atom_site_occupancy
  Li  Li0  1  0.73707207  0.77138312  0.06741669  1
  Li  Li1  1  0.24002843  0.06827220  0.04400826  1
  Li  Li2  1  0.24197378  0.46185060  0.10275329  1
  Li  Li3  1  0.76295976  0.27138641  0.06741428  1
  Li  Li4  1  0.25804633  0.96183371  0.10275744  1
  Li  Li5  1  0.25995495  0.56825886  0.04400175  1
  Li  Li6  1  0.79142240  0.06900722  0.04345071  1
  Li  Li7  1  0.74296213  0.46149767  0.10267888  1
  Li  Li8  1  0.32279835  0.31760388  0.01325497  1
  Li  Li9  1  0.25530477  0.76215703  0.07315500  1
  Li  Li10  1  0.75706677  0.96150070  0.10268014  1
  Li  Li11  1  0.70859689  0.56900268  0.04345850  1
  Li  Li12  1  0.24471781  0.26217980  0.07314232  1
  Li  Li13  1  0.17780648  0.81756894  0.01333454  1
  Li  Li14  1  0.75500580  0.16414932  0.13318127  1
  Li  Li15  1  0.74941614  0.56302758  0.19580007  1
  Li  Li16  1  0.25152914  0.86299705  0.16491453  1
  Li  Li17  1  0.24982828  0.26263622  0.22706843  1
  Li  Li18  1  0.75061667  0.06302342  0.19580448  1
  Li  Li19  1  0.74499747  0.66414456  0.13317924  1
  Li  Li20  1  0.25022533  0.76263861  0.22706763  1
  Li  Li21  1  0.24849614  0.36296425  0.16490438  1
  Li  Li22  1  0.75299816  0.86371092  0.16490867  1
  Li  Li23  1  0.75013760  0.26261142  0.22707529  1
  Li  Li24  1  0.25299946  0.16185584  0.13361988  1
  Li  Li25  1  0.24838185  0.56284390  0.19586350  1
  Li  Li26  1  0.74986435  0.76263011  0.22707812  1
  Li  Li27  1  0.74700844  0.36370218  0.16490392  1
  Li  Li28  1  0.25181580  0.06287664  0.19587121  1
  Li  Li29  1  0.24691484  0.66212673  0.13367985  1
  Li  Li30  1  0.75208058  0.96371057  0.25816563  1
  Li  Li31  1  0.75026482  0.36210232  0.32041123  1
  Li  Li32  1  0.24978992  0.66240748  0.28940592  1
  Li  Li33  1  0.24980436  0.06211048  0.35130817  1
  Li  Li34  1  0.74975743  0.86208827  0.32040653  1
  Li  Li35  1  0.74862502  0.46363663  0.25805398  1
  Li  Li36  1  0.25012764  0.56209430  0.35130616  1
  Li  Li37  1  0.25018636  0.16241925  0.28941230  1
  Li  Li38  1  0.75022177  0.66241214  0.28939715  1
  Li  Li39  1  0.75002369  0.06216642  0.35129536  1
  Li  Li40  1  0.25026160  0.96362140  0.25799947  1
  Li  Li41  1  0.24966959  0.36210685  0.32040272  1
  Li  Li42  1  0.74994795  0.56215894  0.35128823  1
  Li  Li43  1  0.74979583  0.16244643  0.28940151  1
  Li  Li44  1  0.25057781  0.86234669  0.32036961  1
  Li  Li45  1  0.24985675  0.46361045  0.25800491  1
  Li  Li46  1  0.75005053  0.76230095  0.38228247  1
  Li  Li47  1  0.74985733  0.16213306  0.44404833  1
  Li  Li48  1  0.25240158  0.46171419  0.41383271  1
  Li  Li49  1  0.24699119  0.86087762  0.47667428  1
  Li  Li50  1  0.75011431  0.66214248  0.44403529  1
  Li  Li51  1  0.74770332  0.26208316  0.38238320  1
  Li  Li52  1  0.25320018  0.36102081  0.47665778  1
  Li  Li53  1  0.24759927  0.96170337  0.41383406  1
  Li  Li54  1  0.75248967  0.46209803  0.41335383  1
  Li  Li55  1  0.74933895  0.86178405  0.47534253  1
  Li  Li56  1  0.24935553  0.76229600  0.38222925  1
  Li  Li57  1  0.24956296  0.16216363  0.44403702  1
  Li  Li58  1  0.75091895  0.36177790  0.47538024  1
  Li  Li59  1  0.74795134  0.96228875  0.41337153  1
  Li  Li60  1  0.25043106  0.66214950  0.44402491  1
  Li  Li61  1  0.24931570  0.26230048  0.38223882  1
  Li  Li62  1  0.75798209  0.56264355  0.50627903  1
  Li  Li63  1  0.75968680  0.95732829  0.56492798  1
  Li  Li64  1  0.26237039  0.25321306  0.54247007  1
  Li  Li65  1  0.74056057  0.45720694  0.56491891  1
  Li  Li66  1  0.74203673  0.06264659  0.50627776  1
  Li  Li67  1  0.23775185  0.75322404  0.54246653  1
  Li  Li68  1  0.74488612  0.26176596  0.53622106  1
  Li  Li69  1  0.67255885  0.70829868  0.59593850  1
  Li  Li70  1  0.25650568  0.56401199  0.50650127  1
  Li  Li71  1  0.20756268  0.95544289  0.56635974  1
  Li  Li72  1  0.82752461  0.20829206  0.59595897  1
  Li  Li73  1  0.75534425  0.76185633  0.53622356  1
  Li  Li74  1  0.29242468  0.45544292  0.56635711  1
  Li  Li75  1  0.24354624  0.06402004  0.50649718  1
  S  S76  1  0.48772931  0.41499786  0.05570214  1
  S  S77  1  0.50289361  0.81358083  0.11852573  1
  S  S78  1  0.99715387  0.31353360  0.11851665  1
  S  S79  1  0.01230578  0.91498961  0.05572737  1
  S  S80  1  0.02100602  0.20814335  0.02495039  1
  S  S81  1  0.98855892  0.61251594  0.08603790  1
  S  S82  1  0.51150686  0.11250588  0.08603385  1
  S  S83  1  0.47920503  0.70810719  0.02496180  1
  S  S84  1  0.50038492  0.21285373  0.18014125  1
  S  S85  1  0.49969482  0.61289737  0.24253598  1
  S  S86  1  0.00038051  0.11292833  0.24254773  1
  S  S87  1  0.99962698  0.71286602  0.18015364  1
  S  S88  1  0.00321469  0.01333046  0.14920579  1
  S  S89  1  0.99890331  0.41294004  0.21155736  1
  S  S90  1  0.50128763  0.91300413  0.21157263  1
  S  S91  1  0.49680094  0.51334915  0.14920301  1
  S  S92  1  0.50022717  0.01266340  0.30476436  1
  S  S93  1  0.50003894  0.41216316  0.36690783  1
  S  S94  1  0.99966665  0.91218623  0.36689092  1
  S  S95  1  0.99990999  0.51259413  0.30474300  1
  S  S96  1  0.00031600  0.81277253  0.27373165  1
  S  S97  1  0.99947698  0.21231672  0.33589699  1
  S  S98  1  0.50010350  0.71231123  0.33584648  1
  S  S99  1  0.49976238  0.31276243  0.27372907  1
  S  S100  1  0.49927669  0.81226121  0.42911100  1
  S  S101  1  0.49732124  0.21145521  0.49074685  1
  S  S102  1  0.00282782  0.71146244  0.49073129  1
  S  S103  1  0.00055129  0.31219571  0.42912395  1
  S  S104  1  0.00068315  0.61209875  0.39772866  1
  S  S105  1  0.99694925  0.01177095  0.46007290  1
  S  S106  1  0.50313283  0.51174181  0.46006576  1
  S  S107  1  0.49885405  0.11203680  0.39775105  1
  S  S108  1  0.51169199  0.60981278  0.55356438  1
  S  S109  1  0.98844424  0.10982820  0.55357772  1
  S  S110  1  0.01191170  0.41253836  0.52338261  1
  S  S111  1  0.97647324  0.81689832  0.58453134  1
  S  S112  1  0.52355308  0.31686504  0.58452973  1
  S  S113  1  0.48821375  0.91261358  0.52337522  1
