# generated using pymatgen
data_Na3PS4
_symmetry_space_group_name_H-M   'P 1'
_cell_length_a   7.04942300
_cell_length_b   7.04942300
_cell_length_c   49.33674508
_cell_angle_alpha   90.00000000
_cell_angle_beta   90.00000000
_cell_angle_gamma   90.00000000
_symmetry_Int_Tables_number   1
_chemical_formula_structural   Na3PS4
_chemical_formula_sum   'Na42 P14 S56'
_cell_volume   2451.75819988
_cell_formula_units_Z   14
loop_
 _symmetry_equiv_pos_site_id
 _symmetry_equiv_pos_as_xyz
  1  'x, y, z'
loop_
 _atom_site_type_symbol
 _atom_site_label
 _atom_site_symmetry_multiplicity
 _atom_site_fract_x
 _atom_site_fract_y
 _atom_site_fract_z
 _atom_site_occupancy
  Na  Na0  1  -0.00000102  0.49998986  0.10725377  1
  Na  Na1  1  0.00023002  0.00021685  0.03576304  1
  Na  Na2  1  0.50000162  0.99998958  0.10725925  1
  Na  Na3  1  0.50022935  0.00003609  0.03577586  1
  Na  Na4  1  0.49999007  0.49998024  0.10721194  1
  Na  Na5  1  0.00005939  0.50019242  0.03576834  1
  Na  Na6  1  0.00001685  0.49996659  0.24997197  1
  Na  Na7  1  0.99999095  0.99997511  0.17862244  1
  Na  Na8  1  0.49998205  0.99997404  0.24997374  1
  Na  Na9  1  0.49995972  0.99994509  0.17857936  1
  Na  Na10  1  0.50000594  0.49994226  0.24998164  1
  Na  Na11  1  0.99995035  0.49994693  0.17857603  1
  Na  Na12  1  0.00001708  0.49999268  0.39273662  1
  Na  Na13  1  -0.00001114  0.99990863  0.32131979  1
  Na  Na14  1  0.50000450  0.00001969  0.39273994  1
  Na  Na15  1  0.49999725  0.99995897  0.32140536  1
  Na  Na16  1  0.50002365  0.50001504  0.39277565  1
  Na  Na17  1  0.00001325  0.49989779  0.32140277  1
  Na  Na18  1  0.99971096  0.00026229  0.46423672  1
  Na  Na19  1  0.49975904  0.00004298  0.46423358  1
  Na  Na20  1  0.99995538  0.50020871  0.46422836  1
  Na  Na21  1  0.49998833  0.00000825  0.60726698  1
  Na  Na22  1  0.50018155  0.49981115  0.53576948  1
  Na  Na23  1  0.99999123  0.49997292  0.60726301  1
  Na  Na24  1  0.00013552  0.50017580  0.53577522  1
  Na  Na25  1  0.99997517  0.99998189  0.60722877  1
  Na  Na26  1  0.49985985  0.99988301  0.53578337  1
  Na  Na27  1  0.49995824  0.99994248  0.75002651  1
  Na  Na28  1  0.50018491  0.49986131  0.67867743  1
  Na  Na29  1  0.00003705  0.50001645  0.75001743  1
  Na  Na30  1  0.00019681  0.49993006  0.67859370  1
  Na  Na31  1  0.99996689  0.99998047  0.75001453  1
  Na  Na32  1  0.50002276  0.99982846  0.67859475  1
  Na  Na33  1  0.50000162  -0.00000015  0.89275531  1
  Na  Na34  1  0.49995974  0.50000368  0.82137357  1
  Na  Na35  1  -0.00000333  0.50001725  0.89273691  1
  Na  Na36  1  0.99997308  0.49998085  0.82140918  1
  Na  Na37  1  0.00001578  0.00002233  0.89278473  1
  Na  Na38  1  0.50003324  -0.00000054  0.82143189  1
  Na  Na39  1  0.49982910  0.49982852  0.96423516  1
  Na  Na40  1  0.99983887  0.50009738  0.96422460  1
  Na  Na41  1  0.50006516  0.99987340  0.96423385  1
  P  P42  1  -0.00000711  -0.00001719  0.10723876  1
  P  P43  1  0.50006527  0.50003807  0.03574744  1
  P  P44  1  0.99997360  0.99996089  0.24997498  1
  P  P45  1  0.49995318  0.49994330  0.17862075  1
  P  P46  1  0.00001204  -0.00001212  0.39274960  1
  P  P47  1  0.50001419  0.49995593  0.32135063  1
  P  P48  1  0.49995238  0.50005686  0.46425196  1
  P  P49  1  0.49997947  0.50001330  0.60725157  1
  P  P50  1  0.99985351  0.00016438  0.53575260  1
  P  P51  1  0.50004942  0.49993383  0.75002024  1
  P  P52  1  0.00002376  0.99992831  0.67864697  1
  P  P53  1  0.50000070  0.49999541  0.89276068  1
  P  P54  1  0.00002856  0.99998348  0.82137693  1
  P  P55  1  0.00007639  0.00010904  0.96424989  1
  S  S56  1  0.83042299  0.16955857  0.08301854  1
  S  S57  1  0.16958206  0.83042194  0.08301873  1
  S  S58  1  0.66964466  0.66960467  0.05998413  1
  S  S59  1  0.33042044  0.33041099  0.05996722  1
  S  S60  1  0.33053244  0.66965086  0.01151870  1
  S  S61  1  0.66963521  0.33050857  0.01151632  1
  S  S62  1  0.16962608  0.16962498  0.13145928  1
  S  S63  1  0.83036907  0.83034528  0.13145882  1
  S  S64  1  0.83042364  0.16953905  0.22574215  1
  S  S65  1  0.16955318  0.83041632  0.22574145  1
  S  S66  1  0.66958009  0.66957064  0.20283040  1
  S  S67  1  0.33035153  0.33034940  0.20283293  1
  S  S68  1  0.33038645  0.66951321  0.15438865  1
  S  S69  1  0.66951099  0.33037369  0.15438842  1
  S  S70  1  0.16957976  0.16956033  0.27418914  1
  S  S71  1  0.83038016  0.83035692  0.27418701  1
  S  S72  1  0.83037457  0.16962371  0.36852780  1
  S  S73  1  0.16965473  0.83035880  0.36852940  1
  S  S74  1  0.66959714  0.66951289  0.34557679  1
  S  S75  1  0.33047300  0.33040856  0.34558272  1
  S  S76  1  0.33035967  0.66959222  0.29714321  1
  S  S77  1  0.66962855  0.33030897  0.29714113  1
  S  S78  1  0.16955379  0.16955872  0.41697342  1
  S  S79  1  0.83043818  0.83043307  0.41697150  1
  S  S80  1  0.66947845  0.66964758  0.48848216  1
  S  S81  1  0.33034934  0.33053428  0.48848282  1
  S  S82  1  0.33037913  0.66962667  0.44001580  1
  S  S83  1  0.66958028  0.33040161  0.44003188  1
  S  S84  1  0.66955646  0.33042887  0.58303640  1
  S  S85  1  0.33043179  0.66956609  0.58302275  1
  S  S86  1  0.83033730  0.83050844  0.55998388  1
  S  S87  1  0.16948807  0.16970071  0.55998634  1
  S  S88  1  0.16941998  0.83063080  0.51151609  1
  S  S89  1  0.83023880  0.16977790  0.51153808  1
  S  S90  1  0.33033881  0.33039701  0.63147374  1
  S  S91  1  0.66961725  0.66965615  0.63147071  1
  S  S92  1  0.66965648  0.33029688  0.72581366  1
  S  S93  1  0.33047064  0.66952384  0.72580312  1
  S  S94  1  0.83042038  0.83026381  0.70285467  1
  S  S95  1  0.16968762  0.16953275  0.70285683  1
  S  S96  1  0.16956338  0.83040854  0.65440864  1
  S  S97  1  0.83043792  0.16952749  0.65442679  1
  S  S98  1  0.33044210  0.33041039  0.77425264  1
  S  S99  1  0.66959540  0.66952249  0.77425335  1
  S  S100  1  0.66962918  0.33036811  0.86853983  1
  S  S101  1  0.33039482  0.66966514  0.86854056  1
  S  S102  1  0.83048853  0.83040465  0.84560972  1
  S  S103  1  0.16956806  0.16957685  0.84560821  1
  S  S104  1  0.16965860  0.83038399  0.79716470  1
  S  S105  1  0.83039224  0.16957516  0.79716675  1
  S  S106  1  0.33038959  0.33042653  0.91697454  1
  S  S107  1  0.66956799  0.66953679  0.91698873  1
  S  S108  1  0.83055599  0.83056647  0.98848946  1
  S  S109  1  0.16968289  0.16971838  0.98846999  1
  S  S110  1  0.16962435  0.83045129  0.94002256  1
  S  S111  1  0.83040764  0.16963168  0.94002120  1
