# generated using pymatgen
data_Na3PS4
_symmetry_space_group_name_H-M   'P 1'
_cell_length_a   7.04942300
_cell_length_b   9.96939000
_cell_length_c   50.44264536
_cell_angle_alpha   90.00000000
_cell_angle_beta   90.00000000
_cell_angle_gamma   90.00000000
_symmetry_Int_Tables_number   1
_chemical_formula_structural   Na3PS4
_chemical_formula_sum   'Na60 P20 S80'
_cell_volume   3545.03078659
_cell_formula_units_Z   20
loop_
 _symmetry_equiv_pos_site_id
 _symmetry_equiv_pos_as_xyz
  1  'x, y, z'
loop_
 _atom_site_type_symbol
 _atom_site_label
 _atom_site_symmetry_multiplicity
 _atom_site_fract_x
 _atom_site_fract_y
 _atom_site_fract_z
 _atom_site_occupancy
  Na  Na0  1  0.36274401  0.35950656  0.05307231  1
  Na  Na1  1  0.86234569  0.79468489  0.04670981  1
  Na  Na2  1  0.48824151  0.03736992  0.99988136  1
  Na  Na3  1  0.50387301  0.61098941  0.00265524  1
  Na  Na4  1  0.36331863  0.87140222  0.15633865  1
  Na  Na5  1  0.82169101  0.05685075  0.09578547  1
  Na  Na6  1  0.85753249  0.57766790  0.10394478  1
  Na  Na7  1  0.86243430  0.30638075  0.14851396  1
  Na  Na8  1  0.35434291  0.61385256  0.10909943  1
  Na  Na9  1  0.31700520  0.09441689  0.09898971  1
  Na  Na10  1  0.37067192  0.34173881  0.25311416  1
  Na  Na11  1  0.80381036  0.57984368  0.19809246  1
  Na  Na12  1  0.95463003  0.09346181  0.20078783  1
  Na  Na13  1  0.87068479  0.84127071  0.24691414  1
  Na  Na14  1  0.45316659  0.10169229  0.20300615  1
  Na  Na15  1  0.30227555  0.58950177  0.19981408  1
  Na  Na16  1  0.36282555  0.80649137  0.35155459  1
  Na  Na17  1  0.80273815  0.08939379  0.30016327  1
  Na  Na18  1  0.95347428  0.60154687  0.29702452  1
  Na  Na19  1  0.86360688  0.37132186  0.34366172  1
  Na  Na20  1  0.45482655  0.59364221  0.29924507  1
  Na  Na21  1  0.30417595  0.07983709  0.30191679  1
  Na  Na22  1  0.36301875  0.29443168  0.45333909  1
  Na  Na23  1  0.81793380  0.59423445  0.40101060  1
  Na  Na24  1  0.85442145  0.11381829  0.39090356  1
  Na  Na25  1  0.86355352  0.85938214  0.44690609  1
  Na  Na26  1  0.35750188  0.07761636  0.39607156  1
  Na  Na27  1  0.32274965  0.55655096  0.40425910  1
  Na  Na28  1  0.00503939  0.11071177  0.49730150  1
  Na  Na29  1  0.98894519  0.53716818  0.50011712  1
  Na  Na30  1  0.63694202  0.26658839  0.55314766  1
  Na  Na31  1  0.13703111  0.83048379  0.54652681  1
  Na  Na32  1  0.50378909  0.58934653  0.49981188  1
  Na  Na33  1  0.49533732  0.01547815  0.50263620  1
  Na  Na34  1  0.63721032  0.75345887  0.65642513  1
  Na  Na35  1  0.17922733  0.56819325  0.59574215  1
  Na  Na36  1  0.14114048  0.04662828  0.60373260  1
  Na  Na37  1  0.13821852  0.31801804  0.64826663  1
  Na  Na38  1  0.64440875  0.01123324  0.60905316  1
  Na  Na39  1  0.68449124  0.53133819  0.59910111  1
  Na  Na40  1  0.63019841  0.28293198  0.75328383  1
  Na  Na41  1  0.19671514  0.04505508  0.69802322  1
  Na  Na42  1  0.04627058  0.53069892  0.70066117  1
  Na  Na43  1  0.13023854  0.78294049  0.74670133  1
  Na  Na44  1  0.54815329  0.52239576  0.70304005  1
  Na  Na45  1  0.69817688  0.03557464  0.69987594  1
  Na  Na46  1  0.63778702  0.81814111  0.85180287  1
  Na  Na47  1  0.19790718  0.53556080  0.80010392  1
  Na  Na48  1  0.04814469  0.02240573  0.79692633  1
  Na  Na49  1  0.13684620  0.25350049  0.84356292  1
  Na  Na50  1  0.54630397  0.03064535  0.79932517  1
  Na  Na51  1  0.69629508  0.54523069  0.80197354  1
  Na  Na52  1  0.63609136  0.33079066  0.95349195  1
  Na  Na53  1  0.18317983  0.03135036  0.90091300  1
  Na  Na54  1  0.14384899  0.51134295  0.89095092  1
  Na  Na55  1  0.13609743  0.76668588  0.94685332  1
  Na  Na56  1  0.64084252  0.54666274  0.89624854  1
  Na  Na57  1  0.67796153  0.06858579  0.90427532  1
  Na  Na58  1  0.99417349  0.51582766  0.99736618  1
  Na  Na59  1  0.00304846  0.08972717  0.00024051  1
  P  P60  1  0.86227325  0.33202118  0.05193681  1
  P  P61  1  0.35979584  0.82462220  0.05307172  1
  P  P62  1  0.86254203  0.84418813  0.15171409  1
  P  P63  1  0.36167210  0.33232241  0.15107206  1
  P  P64  1  0.87296749  0.34129846  0.25041393  1
  P  P65  1  0.37291767  0.84123546  0.24959081  1
  P  P66  1  0.86209415  0.83229156  0.34893437  1
  P  P67  1  0.36282453  0.34412660  0.34829338  1
  P  P68  1  0.86041315  0.32451685  0.44694201  1
  P  P69  1  0.36304503  0.83176265  0.44807594  1
  P  P70  1  0.13748185  0.29331970  0.55185635  1
  P  P71  1  0.63978836  0.80057366  0.55301774  1
  P  P72  1  0.13773587  0.78064256  0.65168334  1
  P  P73  1  0.63890260  0.29230174  0.65101987  1
  P  P74  1  0.12790192  0.28338416  0.75040521  1
  P  P75  1  0.62794614  0.78337223  0.74956134  1
  P  P76  1  0.13852703  0.79230524  0.84896206  1
  P  P77  1  0.63743801  0.28067957  0.84830297  1
  P  P78  1  0.13901847  0.30081205  0.94699665  1
  P  P79  1  0.63667801  0.79360789  0.94809677  1
  S  S80  1  0.69838970  0.32501773  0.01744094  1
  S  S81  1  0.01929973  0.50683057  0.05222377  1
  S  S82  1  0.04368706  0.16951635  0.05274117  1
  S  S83  1  0.21808691  0.82245541  0.01693592  1
  S  S84  1  0.54073221  0.98767954  0.05369488  1
  S  S85  1  0.51877053  0.65134127  0.05699484  1
  S  S86  1  0.67644769  0.82352798  0.12040550  1
  S  S87  1  0.02255292  0.01576681  0.14650706  1
  S  S88  1  0.69011903  0.32689417  0.08491336  1
  S  S89  1  0.03899245  0.67771239  0.15302600  1
  S  S90  1  0.19388168  0.35268323  0.11772336  1
  S  S91  1  0.54131001  0.49662620  0.15364542  1
  S  S92  1  0.16911761  0.83625520  0.08394561  1
  S  S93  1  0.52010827  0.15889798  0.14806095  1
  S  S94  1  0.69749039  0.32399034  0.21776805  1
  S  S95  1  0.04029327  0.50962536  0.24558041  1
  S  S96  1  0.71297133  0.85704353  0.18685996  1
  S  S97  1  0.03813119  0.17131057  0.25386763  1
  S  S98  1  0.21136641  0.86183851  0.21548073  1
  S  S99  1  0.54050945  0.00943827  0.25440659  1
  S  S100  1  0.19473220  0.32496626  0.18469396  1
  S  S101  1  0.53786376  0.67113618  0.24613737  1
  S  S102  1  0.69498240  0.82491879  0.31532673  1
  S  S103  1  0.04167117  0.99665144  0.34636770  1
  S  S104  1  0.71151168  0.36184873  0.28453116  1
  S  S105  1  0.02054750  0.65888359  0.35193689  1
  S  S106  1  0.21337642  0.35701185  0.31313799  1
  S  S107  1  0.52297357  0.51566877  0.35348245  1
  S  S108  1  0.19750577  0.82405283  0.28224586  1
  S  S109  1  0.53915477  0.17757768  0.34699004  1
  S  S110  1  0.66956654  0.33619702  0.41608873  1
  S  S111  1  0.04133313  0.48757401  0.44631485  1
  S  S112  1  0.69441669  0.85255458  0.38229316  1
  S  S113  1  0.01943931  0.15127458  0.44296606  1
  S  S114  1  0.19086804  0.82648665  0.41509659  1
  S  S115  1  0.51999325  0.00661424  0.44774098  1
  S  S116  1  0.17668769  0.32356504  0.37959876  1
  S  S117  1  0.54451069  0.66928755  0.44730495  1
  S  S118  1  0.71879218  0.32212010  0.48308138  1
  S  S119  1  0.19918789  0.82488616  0.48257688  1
  S  S120  1  0.30175933  0.30026867  0.51739906  1
  S  S121  1  0.97977017  0.11877343  0.55210463  1
  S  S122  1  0.95654610  0.45608148  0.55269601  1
  S  S123  1  0.78065368  0.80274269  0.51681512  1
  S  S124  1  0.45967928  0.63712362  0.55376642  1
  S  S125  1  0.48030795  0.97361569  0.55693094  1
  S  S126  1  0.32406879  0.80153963  0.62041414  1
  S  S127  1  0.97780449  0.60898910  0.64643357  1
  S  S128  1  0.30927788  0.29795062  0.58487587  1
  S  S129  1  0.96141572  0.94714284  0.65302532  1
  S  S130  1  0.80607015  0.27195586  0.61760951  1
  S  S131  1  0.45911428  0.12812685  0.65362739  1
  S  S132  1  0.83110213  0.78954684  0.58383106  1
  S  S133  1  0.48058009  0.46581989  0.64807727  1
  S  S134  1  0.30375330  0.30043060  0.71779489  1
  S  S135  1  0.96050731  0.11508486  0.74556145  1
  S  S136  1  0.28717405  0.76745785  0.68683073  1
  S  S137  1  0.96285045  0.45346287  0.75382416  1
  S  S138  1  0.78918976  0.76276579  0.71542390  1
  S  S139  1  0.46042175  0.61511898  0.75440031  1
  S  S140  1  0.80645535  0.29955430  0.68458453  1
  S  S141  1  0.46296906  0.95348331  0.74614398  1
  S  S142  1  0.30626653  0.79952118  0.81541205  1
  S  S143  1  0.95876799  0.62810940  0.84635679  1
  S  S144  1  0.28907428  0.26278582  0.78454660  1
  S  S145  1  0.98024838  0.96583262  0.85186785  1
  S  S146  1  0.78694384  0.26753609  0.81315816  1
  S  S147  1  0.47742889  0.10907131  0.85356153  1
  S  S148  1  0.80377788  0.80044245  0.78216914  1
  S  S149  1  0.46107866  0.44713227  0.84695740  1
  S  S150  1  0.33022194  0.28967683  0.91616634  1
  S  S151  1  0.95883966  0.13742592  0.94626106  1
  S  S152  1  0.30541549  0.77206380  0.88239867  1
  S  S153  1  0.97961742  0.47388976  0.94307971  1
  S  S154  1  0.80866337  0.79841560  0.91508734  1
  S  S155  1  0.47905429  0.61901411  0.94783710  1
  S  S156  1  0.82372582  0.30155540  0.87958076  1
  S  S157  1  0.45572342  0.95636367  0.94728711  1
  S  S158  1  0.27991453  0.30301171  0.98319707  1
  S  S159  1  0.80077481  0.80040564  0.98256543  1
