# generated using pymatgen
data_Na3PS4
_symmetry_space_group_name_H-M   'P 1'
_cell_length_a   7.04942300
_cell_length_b   15.76299000
_cell_length_c   44.33760497
_cell_angle_alpha   90.00000000
_cell_angle_beta   90.00000000
_cell_angle_gamma   90.00000000
_symmetry_Int_Tables_number   1
_chemical_formula_structural   Na3PS4
_chemical_formula_sum   'Na78 P26 S104'
_cell_volume   4926.79396590
_cell_formula_units_Z   26
loop_
 _symmetry_equiv_pos_site_id
 _symmetry_equiv_pos_as_xyz
  1  'x, y, z'
loop_
 _atom_site_type_symbol
 _atom_site_label
 _atom_site_symmetry_multiplicity
 _atom_site_fract_x
 _atom_site_fract_y
 _atom_site_fract_z
 _atom_site_occupancy
  Na  Na0  1  0.45385975  0.34952837  0.03930615  1
  Na  Na1  1  0.51057270  0.79996846  0.10076492  1
  Na  Na2  1  0.89193049  0.26445335  0.11016697  1
  Na  Na3  1  0.65611087  0.90487512  0.02762769  1
  Na  Na4  1  0.03200906  0.53687399  0.07721086  1
  Na  Na5  1  0.00339990  0.08175657  0.05993489  1
  Na  Na6  1  0.65932864  0.15465901  0.01009647  1
  Na  Na7  1  0.54711454  0.56210606  0.07756450  1
  Na  Na8  1  0.38598067  0.25501585  0.11262814  1
  Na  Na9  1  0.50980724  0.18699774  0.18764952  1
  Na  Na10  1  0.52982156  0.58690496  0.24395945  1
  Na  Na11  1  0.11953859  0.06190881  0.25229906  1
  Na  Na12  1  0.95286781  0.65431376  0.17280421  1
  Na  Na13  1  0.00506344  0.96234214  0.13053933  1
  Na  Na14  1  0.02798321  0.34321639  0.22782642  1
  Na  Na15  1  0.04030492  0.85750302  0.21010223  1
  Na  Na16  1  0.00807691  0.43805174  0.15500051  1
  Na  Na17  1  0.50876522  0.99525499  0.14813770  1
  Na  Na18  1  0.52421456  0.38105959  0.22155085  1
  Na  Na19  1  0.62035468  0.05343722  0.24868526  1
  Na  Na20  1  0.45502460  0.66491267  0.16801566  1
  Na  Na21  1  0.53687824  0.95641728  0.31977606  1
  Na  Na22  1  0.49166086  0.33758392  0.38546998  1
  Na  Na23  1  0.12304037  0.86289113  0.39657573  1
  Na  Na24  1  0.95847290  0.45190436  0.31878811  1
  Na  Na25  1  0.13087593  0.76941308  0.28091762  1
  Na  Na26  1  0.08212619  0.14129315  0.37713652  1
  Na  Na27  1  0.04013554  0.67297610  0.34799606  1
  Na  Na28  1  0.02967257  0.23390751  0.29947175  1
  Na  Na29  1  0.63640221  0.76981076  0.27889470  1
  Na  Na30  1  0.60636006  0.13552658  0.36504960  1
  Na  Na31  1  0.62089859  0.86546524  0.39379808  1
  Na  Na32  1  0.46889719  0.47161581  0.31463960  1
  Na  Na33  1  0.54288513  0.75405241  0.46268479  1
  Na  Na34  1  0.82745132  0.27841954  0.46578562  1
  Na  Na35  1  0.95810465  0.56134420  0.41565300  1
  Na  Na36  1  0.05401356  0.02823214  0.44890498  1
  Na  Na37  1  0.45193103  0.54827272  0.40912800  1
  Na  Na38  1  0.64166546  0.98035157  0.51547040  1
  Na  Na39  1  0.31989417  0.37617709  0.53949879  1
  Na  Na40  1  0.26193942  0.92545388  0.60063927  1
  Na  Na41  1  0.88276181  0.46081445  0.61024629  1
  Na  Na42  1  0.12009206  0.82009744  0.52751448  1
  Na  Na43  1  0.74155668  0.18820666  0.57728360  1
  Na  Na44  1  0.77130633  0.64389446  0.56000748  1
  Na  Na45  1  0.11363788  0.57041247  0.51011123  1
  Na  Na46  1  0.22641615  0.16327963  0.57751318  1
  Na  Na47  1  0.38896316  0.47013362  0.61274370  1
  Na  Na48  1  0.26562698  0.53807948  0.68775797  1
  Na  Na49  1  0.24570443  0.13789416  0.74390580  1
  Na  Na50  1  0.65523508  0.66298273  0.75230996  1
  Na  Na51  1  0.82186403  0.07069226  0.67275186  1
  Na  Na52  1  0.76919771  0.76247490  0.63086865  1
  Na  Na53  1  0.74862026  0.38167152  0.72780469  1
  Na  Na54  1  0.73465886  0.86760235  0.71007429  1
  Na  Na55  1  0.76664277  0.28691165  0.65501066  1
  Na  Na56  1  0.26573937  0.72984470  0.64810423  1
  Na  Na57  1  0.25247100  0.34355135  0.72158452  1
  Na  Na58  1  0.15443789  0.67174069  0.74873460  1
  Na  Na59  1  0.31978374  0.05975558  0.66799327  1
  Na  Na60  1  0.23843963  0.76928309  0.81976230  1
  Na  Na61  1  0.28392496  0.38751021  0.88538629  1
  Na  Na62  1  0.65301478  0.86227374  0.89664565  1
  Na  Na63  1  0.81712387  0.27316994  0.81872157  1
  Na  Na64  1  0.64416901  0.95517953  0.78090394  1
  Na  Na65  1  0.69429815  0.58385619  0.87721219  1
  Na  Na66  1  0.73572273  0.05194542  0.84786850  1
  Na  Na67  1  0.74529865  0.49114110  0.79938010  1
  Na  Na68  1  0.13852052  0.95521154  0.77885781  1
  Na  Na69  1  0.17014382  0.58970452  0.86493414  1
  Na  Na70  1  0.15501930  0.85961657  0.89385369  1
  Na  Na71  1  0.30685407  0.25329004  0.81465137  1
  Na  Na72  1  0.23272437  0.97076707  0.96290886  1
  Na  Na73  1  0.94585135  0.44649702  0.96559753  1
  Na  Na74  1  0.81719737  0.16349799  0.91560912  1
  Na  Na75  1  0.72086365  0.69680148  0.94899501  1
  Na  Na76  1  0.32336704  0.17675379  0.90909404  1
  Na  Na77  1  0.13246594  0.74428867  0.01547811  1
  P  P78  1  0.95533760  0.35915126  0.03793494  1
  P  P79  1  0.02655181  0.75033324  0.09213774  1
  P  P80  1  0.48506577  0.06069483  0.07503726  1
  P  P81  1  0.00995059  0.15609012  0.18229198  1
  P  P82  1  0.03103171  0.56433617  0.24722311  1
  P  P83  1  0.53556599  0.85600596  0.20808172  1
  P  P84  1  0.50715870  0.45702426  0.14615483  1
  P  P85  1  0.03595495  0.96451866  0.32324895  1
  P  P86  1  0.99339151  0.35728732  0.39380317  1
  P  P87  1  0.53946345  0.67608185  0.34842844  1
  P  P88  1  0.52937994  0.25779677  0.28963103  1
  P  P89  1  0.04346553  0.73009500  0.45890278  1
  P  P90  1  0.54641632  0.04521629  0.44142659  1
  P  P91  1  0.81831817  0.36608251  0.53808467  1
  P  P92  1  0.74651303  0.97464705  0.59211837  1
  P  P93  1  0.28967466  0.66432577  0.57500155  1
  P  P94  1  0.76546368  0.56900238  0.68231528  1
  P  P95  1  0.74457524  0.16047658  0.74722230  1
  P  P96  1  0.23953988  0.86886022  0.70806362  1
  P  P97  1  0.26748363  0.26781771  0.64623794  1
  P  P98  1  0.73932870  0.76047774  0.82328298  1
  P  P99  1  0.78228125  0.36759776  0.89369754  1
  P  P100  1  0.23645785  0.04886951  0.84838403  1
  P  P101  1  0.24576324  0.46719554  0.78955044  1
  P  P102  1  0.73225721  0.99488696  0.95899473  1
  P  P103  1  0.22849242  0.67974449  0.94139705  1
  S  S104  1  0.78404953  0.32227003  0.00282479  1
  S  S105  1  0.84128804  0.69561177  0.06081103  1
  S  S106  1  0.16222498  0.84787908  0.07074945  1
  S  S107  1  0.13486891  0.45411985  0.02291542  1
  S  S108  1  0.78207362  0.40419067  0.07238532  1
  S  S109  1  0.11816421  0.26114237  0.05499106  1
  S  S110  1  0.36593411  0.03017510  0.03469948  1
  S  S111  1  0.32944316  0.43129220  0.11026783  1
  S  S112  1  0.63844579  0.17180443  0.07102621  1
  S  S113  1  0.27983083  0.08120578  0.10756041  1
  S  S114  1  0.67167128  0.96521067  0.08815959  1
  S  S115  1  0.82485003  0.12454485  0.14833292  1
  S  S116  1  0.85551852  0.51282333  0.21472405  1
  S  S117  1  0.17996833  0.66486416  0.22880808  1
  S  S118  1  0.15835838  0.26458775  0.17019092  1
  S  S119  1  0.87653930  0.78921407  0.12970357  1
  S  S120  1  0.86122363  0.18140978  0.22159969  1
  S  S121  1  0.20101928  0.05944548  0.19029137  1
  S  S122  1  0.22736593  0.66259695  0.10708481  1
  S  S123  1  0.35366619  0.83581984  0.17211188  1
  S  S124  1  0.35784047  0.22956060  0.25286966  1
  S  S125  1  0.71857183  0.95298113  0.19851107  1
  S  S126  1  0.69871412  0.55226103  0.13472713  1
  S  S127  1  0.38271864  0.88872642  0.24677819  1
  S  S128  1  0.34672104  0.49807665  0.18192212  1
  S  S129  1  0.69230939  0.74748278  0.21626550  1
  S  S130  1  0.65470333  0.34860515  0.15802167  1
  S  S131  1  0.88342229  0.93537135  0.28422841  1
  S  S132  1  0.86266943  0.29580095  0.35836945  1
  S  S133  1  0.16137046  0.45594842  0.37621836  1
  S  S134  1  0.20651629  0.06829662  0.31580488  1
  S  S135  1  0.87123798  0.60683947  0.28298384  1
  S  S136  1  0.86029817  0.99041779  0.35980558  1
  S  S137  1  0.20590541  0.86349995  0.33399139  1
  S  S138  1  0.21357163  0.47027912  0.26261407  1
  S  S139  1  0.37582462  0.64752991  0.31111432  1
  S  S140  1  0.37245480  0.01804121  0.40397900  1
  S  S141  1  0.71944944  0.77534660  0.33993652  1
  S  S142  1  0.71274579  0.35569273  0.27762882  1
  S  S143  1  0.36974286  0.70578842  0.38465715  1
  S  S144  1  0.36168229  0.29780237  0.32493238  1
  S  S145  1  0.69335917  0.56753900  0.35933828  1
  S  S146  1  0.68066105  0.15138684  0.30147008  1
  S  S147  1  0.87504411  0.73144995  0.42068246  1
  S  S148  1  0.19530207  0.84110171  0.46263539  1
  S  S149  1  0.78216783  0.40703846  0.42132361  1
  S  S150  1  0.86856968  0.71333649  0.49575582  1
  S  S151  1  0.23139557  0.62886108  0.45614508  1
  S  S152  1  0.16405112  0.27784221  0.41790209  1
  S  S153  1  0.73612152  0.13776514  0.42763107  1
  S  S154  1  0.38872318  0.08049444  0.47784565  1
  S  S155  1  0.70537156  0.93862901  0.45210907  1
  S  S156  1  0.98962252  0.40272077  0.50294503  1
  S  S157  1  0.93216000  0.02937377  0.56083753  1
  S  S158  1  0.61077303  0.87717677  0.57071038  1
  S  S159  1  0.63830893  0.27123867  0.52310987  1
  S  S160  1  0.99169646  0.32090837  0.57250709  1
  S  S161  1  0.65614166  0.46428789  0.55512570  1
  S  S162  1  0.40902268  0.69464150  0.53466129  1
  S  S163  1  0.44476601  0.29376746  0.61032430  1
  S  S164  1  0.13634499  0.55315215  0.57103805  1
  S  S165  1  0.49479738  0.64408598  0.60757808  1
  S  S166  1  0.10254075  0.75972766  0.58804690  1
  S  S167  1  0.95081226  0.60042274  0.64837806  1
  S  S168  1  0.91988615  0.21201884  0.71471412  1
  S  S169  1  0.59562252  0.05989367  0.72884571  1
  S  S170  1  0.61704520  0.46051947  0.67017819  1
  S  S171  1  0.89649266  0.93562118  0.62968513  1
  S  S172  1  0.91383608  0.54372613  0.72165460  1
  S  S173  1  0.57454114  0.66576110  0.69023518  1
  S  S174  1  0.54592273  0.06247113  0.60705210  1
  S  S175  1  0.42130570  0.88890469  0.67207173  1
  S  S176  1  0.41753519  0.49553938  0.75282839  1
  S  S177  1  0.05613451  0.77201840  0.69851344  1
  S  S178  1  0.07599903  0.17258039  0.63477125  1
  S  S179  1  0.39235735  0.83603936  0.74676383  1
  S  S180  1  0.42852657  0.22643191  0.68190049  1
  S  S181  1  0.08313139  0.97748010  0.71623563  1
  S  S182  1  0.12014780  0.37618097  0.65823337  1
  S  S183  1  0.89144819  0.78964066  0.78422329  1
  S  S184  1  0.91274571  0.42917679  0.85827600  1
  S  S185  1  0.61428368  0.26891727  0.87613893  1
  S  S186  1  0.56849326  0.65678782  0.81583743  1
  S  S187  1  0.90437391  0.11802543  0.78298736  1
  S  S188  1  0.91543476  0.73453921  0.85977713  1
  S  S189  1  0.56989412  0.86162206  0.83407097  1
  S  S190  1  0.56204726  0.25458575  0.76258988  1
  S  S191  1  0.39973831  0.07734399  0.81103669  1
  S  S192  1  0.40268899  0.70698572  0.90397831  1
  S  S193  1  0.05657504  0.94951329  0.83995283  1
  S  S194  1  0.06274825  0.36919399  0.77754714  1
  S  S195  1  0.40621071  0.01932677  0.88461641  1
  S  S196  1  0.41347460  0.42717700  0.82484846  1
  S  S197  1  0.08235962  0.15732086  0.85930012  1
  S  S198  1  0.09432314  0.57353535  0.80139513  1
  S  S199  1  0.90129399  0.99354304  0.92084500  1
  S  S200  1  0.58067433  0.88379969  0.96274580  1
  S  S201  1  0.99350206  0.31778868  0.92120038  1
  S  S202  1  0.90659931  0.01193292  0.99588516  1
  S  S203  1  0.54391516  0.09592071  0.95608758  1
  S  S204  1  0.61158846  0.44699109  0.91783038  1
  S  S205  1  0.03888551  0.58724625  0.92754837  1
  S  S206  1  0.38599466  0.64439304  0.97783148  1
  S  S207  1  0.06946210  0.78630878  0.95208421  1
