# generated using pymatgen
data_Na3PS4
_symmetry_space_group_name_H-M   'P 1'
_cell_length_a   7.04942300
_cell_length_b   22.29223400
_cell_length_c   43.82082033
_cell_angle_alpha   90.00000000
_cell_angle_beta   90.00000000
_cell_angle_gamma   90.00000000
_symmetry_Int_Tables_number   1
_chemical_formula_structural   Na3PS4
_chemical_formula_sum   'Na108 P36 S144'
_cell_volume   6886.32741472
_cell_formula_units_Z   36
loop_
 _symmetry_equiv_pos_site_id
 _symmetry_equiv_pos_as_xyz
  1  'x, y, z'
loop_
 _atom_site_type_symbol
 _atom_site_label
 _atom_site_symmetry_multiplicity
 _atom_site_fract_x
 _atom_site_fract_y
 _atom_site_fract_z
 _atom_site_occupancy
  Na  Na0  1  0.46374564  0.59794576  0.03750128  1
  Na  Na1  1  0.49487783  0.92426923  0.09573993  1
  Na  Na2  1  0.95307078  0.25914311  0.07550214  1
  Na  Na3  1  0.39096036  0.96442336  0.01892673  1
  Na  Na4  1  0.96121822  0.74926552  0.08411083  1
  Na  Na5  1  0.99507009  0.42420032  0.09576726  1
  Na  Na6  1  0.96362116  0.09784655  0.03743354  1
  Na  Na7  1  0.89104062  0.46446538  0.01892086  1
  Na  Na8  1  0.45292505  0.75918030  0.07550706  1
  Na  Na9  1  0.46137155  0.24926890  0.08412998  1
  Na  Na10  1  0.48681053  0.50285434  0.18662073  1
  Na  Na11  1  0.48659637  0.19653409  0.16404139  1
  Na  Na12  1  0.49675662  0.80648217  0.24656802  1
  Na  Na13  1  0.98959026  0.57311231  0.12276627  1
  Na  Na14  1  0.00577548  0.14355761  0.22542224  1
  Na  Na15  1  0.89595922  0.84899904  0.17249575  1
  Na  Na16  1  0.90558007  0.35165164  0.16873854  1
  Na  Na17  1  0.99079298  0.05843346  0.11170331  1
  Na  Na18  1  0.99747046  0.63820170  0.23954518  1
  Na  Na19  1  0.99683869  0.30645133  0.24654694  1
  Na  Na20  1  0.98679899  0.00288081  0.18653175  1
  Na  Na21  1  0.98661793  0.69650040  0.16406186  1
  Na  Na22  1  0.39630462  0.34902933  0.17248109  1
  Na  Na23  1  0.48824804  0.07318819  0.12275100  1
  Na  Na24  1  0.50528651  0.64362293  0.22549508  1
  Na  Na25  1  0.49197520  0.55842418  0.11178002  1
  Na  Na26  1  0.49785656  0.13822067  0.23947571  1
  Na  Na27  1  0.40537198  0.85159029  0.16869494  1
  Na  Na28  1  0.49026535  0.39459167  0.33933566  1
  Na  Na29  1  0.50072937  0.08490410  0.31914702  1
  Na  Na30  1  0.48901746  0.69645458  0.39586876  1
  Na  Na31  1  0.04089652  0.46045650  0.27412645  1
  Na  Na32  1  0.05275142  0.03470161  0.38003041  1
  Na  Na33  1  0.89902626  0.74023706  0.32388183  1
  Na  Na34  1  0.90864840  0.24881813  0.32215069  1
  Na  Na35  1  0.02920382  0.95374370  0.26467201  1
  Na  Na36  1  0.03064962  0.53083779  0.40068981  1
  Na  Na37  1  0.98942628  0.19644077  0.39578418  1
  Na  Na38  1  0.99050355  0.89464266  0.33927250  1
  Na  Na39  1  0.00042725  0.58487247  0.31926656  1
  Na  Na40  1  0.39923502  0.24019970  0.32383789  1
  Na  Na41  1  0.54055670  0.96048832  0.27407607  1
  Na  Na42  1  0.55219572  0.53471700  0.38014028  1
  Na  Na43  1  0.52954344  0.45372023  0.26476943  1
  Na  Na44  1  0.53114545  0.03074399  0.40054379  1
  Na  Na45  1  0.40854506  0.74880103  0.32218700  1
  Na  Na46  1  0.49373671  0.97507522  0.49734257  1
  Na  Na47  1  0.04672386  0.37114158  0.42380523  1
  Na  Na48  1  0.89207649  0.65043656  0.47337490  1
  Na  Na49  1  0.03885871  0.84173791  0.41777791  1
  Na  Na50  1  0.99300405  0.47519574  0.49741725  1
  Na  Na51  1  0.39309629  0.15026967  0.47331543  1
  Na  Na52  1  0.54725278  0.87110828  0.42375706  1
  Na  Na53  1  0.53854507  0.34169030  0.41776548  1
  Na  Na54  1  0.93855078  0.22549009  0.53723076  1
  Na  Na55  1  0.90616432  0.89971009  0.59566364  1
  Na  Na56  1  0.44597578  0.56393590  0.57556719  1
  Na  Na57  1  0.00870523  0.86043965  0.51876977  1
  Na  Na58  1  0.43892709  0.07573594  0.58411701  1
  Na  Na59  1  0.40621407  0.39973736  0.59567392  1
  Na  Na60  1  0.43824027  0.72552891  0.53730028  1
  Na  Na61  1  0.50847093  0.36041179  0.51878088  1
  Na  Na62  1  0.94621639  0.06394755  0.57548848  1
  Na  Na63  1  0.93860592  0.57576233  0.58419197  1
  Na  Na64  1  0.91402547  0.32164390  0.68607742  1
  Na  Na65  1  0.91413886  0.62851523  0.66407194  1
  Na  Na66  1  0.90268626  0.01850241  0.74649503  1
  Na  Na67  1  0.41035793  0.25133261  0.62254527  1
  Na  Na68  1  0.39662178  0.68141861  0.72533141  1
  Na  Na69  1  0.50226661  0.97599244  0.67228847  1
  Na  Na70  1  0.49286374  0.47306706  0.66856488  1
  Na  Na71  1  0.40749348  0.76627494  0.61134938  1
  Na  Na72  1  0.40340152  0.18691002  0.73957013  1
  Na  Na73  1  0.40285461  0.51862172  0.74656263  1
  Na  Na74  1  0.41400136  0.82173605  0.68606651  1
  Na  Na75  1  0.41405393  0.12854486  0.66401131  1
  Na  Na76  1  0.00201956  0.47594406  0.67232248  1
  Na  Na77  1  0.90960349  0.75133210  0.62261582  1
  Na  Na78  1  0.89546942  0.18128168  0.72530740  1
  Na  Na79  1  0.90807561  0.26627776  0.61130804  1
  Na  Na80  1  0.90443441  0.68686203  0.73960452  1
  Na  Na81  1  0.99315278  0.97309577  0.66852260  1
  Na  Na82  1  0.90826260  0.43019524  0.83904688  1
  Na  Na83  1  0.89902923  0.74026234  0.81936063  1
  Na  Na84  1  0.91068167  0.12908669  0.89595163  1
  Na  Na85  1  0.36286458  0.36423702  0.77402426  1
  Na  Na86  1  0.34499535  0.79080913  0.87997236  1
  Na  Na87  1  0.50016996  0.08467468  0.82379834  1
  Na  Na88  1  0.49105759  0.57673290  0.82218542  1
  Na  Na89  1  0.37462586  0.87122400  0.76413092  1
  Na  Na90  1  0.36771312  0.29475360  0.90075969  1
  Na  Na91  1  0.41066410  0.62906342  0.89594452  1
  Na  Na92  1  0.40829422  0.93020205  0.83904195  1
  Na  Na93  1  0.39896621  0.24027267  0.81936133  1
  Na  Na94  1  0.00047720  0.58461932  0.82379864  1
  Na  Na95  1  0.86324819  0.86421727  0.77405873  1
  Na  Na96  1  0.84550268  0.29081273  0.87999886  1
  Na  Na97  1  0.87408826  0.37119789  0.76416460  1
  Na  Na98  1  0.86726272  0.79473600  0.90071039  1
  Na  Na99  1  0.99070215  0.07670586  0.82214597  1
  Na  Na100  1  0.90557564  0.85024881  0.99722864  1
  Na  Na101  1  0.35140545  0.45464590  0.92369529  1
  Na  Na102  1  0.50912645  0.17473217  0.97342079  1
  Na  Na103  1  0.35981068  0.98346864  0.91758295  1
  Na  Na104  1  0.40599487  0.35027060  0.99725281  1
  Na  Na105  1  0.00910782  0.67470133  0.97342917  1
  Na  Na106  1  0.85124456  0.95451901  0.92371158  1
  Na  Na107  1  0.85993293  0.48342606  0.91758307  1
  P  P108  1  0.96363953  0.61334399  0.04529287  1
  P  P109  1  0.99438145  0.90317361  0.09198904  1
  P  P110  1  0.49453397  0.40319498  0.09205135  1
  P  P111  1  0.46349913  0.11337191  0.04528438  1
  P  P112  1  0.98715194  0.50183573  0.19555318  1
  P  P113  1  0.98457700  0.19984933  0.15003193  1
  P  P114  1  0.99839494  0.79869553  0.24813003  1
  P  P115  1  0.49846243  0.29872027  0.24812403  1
  P  P116  1  0.48714775  0.00180392  0.19550941  1
  P  P117  1  0.48463593  0.69983388  0.15005086  1
  P  P118  1  0.99100674  0.39895008  0.34811244  1
  P  P119  1  0.99689613  0.09407661  0.30267705  1
  P  P120  1  0.98826184  0.69328907  0.40073266  1
  P  P121  1  0.48859810  0.19321515  0.40065056  1
  P  P122  1  0.49119568  0.89892810  0.34805152  1
  P  P123  1  0.49669416  0.59407781  0.30274942  1
  P  P124  1  0.05997055  0.96887230  0.46157357  1
  P  P125  1  0.55942649  0.46887365  0.46160179  1
  P  P126  1  0.43822000  0.21147062  0.54510476  1
  P  P127  1  0.40656347  0.92164547  0.59189160  1
  P  P128  1  0.90651063  0.42167045  0.59191332  1
  P  P129  1  0.93783521  0.71148429  0.54518067  1
  P  P130  1  0.41344184  0.32289704  0.69533132  1
  P  P131  1  0.41543316  0.62496900  0.64985049  1
  P  P132  1  0.40100832  0.02649449  0.74800505  1
  P  P133  1  0.90113504  0.52646880  0.74804348  1
  P  P134  1  0.91346024  0.82292914  0.69537062  1
  P  P135  1  0.91550040  0.12495858  0.64978896  1
  P  P136  1  0.40762122  0.42645423  0.84799458  1
  P  P137  1  0.40284319  0.73127212  0.80261592  1
  P  P138  1  0.41140165  0.13201730  0.90072056  1
  P  P139  1  0.91138467  0.63198847  0.90071717  1
  P  P140  1  0.90759878  0.92646227  0.84800877  1
  P  P141  1  0.90266070  0.23124527  0.80259307  1
  P  P142  1  0.33917127  0.85649869  0.96154391  1
  P  P143  1  0.83972377  0.35647729  0.96154979  1
  S  S144  1  0.81590805  0.58659742  0.00754285  1
  S  S145  1  0.79506345  0.17328291  0.11645097  1
  S  S146  1  0.80796018  0.86185487  0.06201076  1
  S  S147  1  0.14568055  0.97047188  0.07143126  1
  S  S148  1  0.14307938  0.68387258  0.03387179  1
  S  S149  1  0.77126635  0.64129254  0.07824996  1
  S  S150  1  0.12854102  0.54320658  0.06174951  1
  S  S151  1  0.18135596  0.83986382  0.10974842  1
  S  S152  1  0.30818036  0.36186828  0.06206428  1
  S  S153  1  0.31599306  0.08655960  0.00752483  1
  S  S154  1  0.29526585  0.67322087  0.11645945  1
  S  S155  1  0.64600375  0.47042532  0.07147384  1
  S  S156  1  0.64305981  0.18386645  0.03386196  1
  S  S157  1  0.27092089  0.14136916  0.07820251  1
  S  S158  1  0.68130714  0.33986757  0.10985471  1
  S  S159  1  0.62830792  0.04325076  0.06179229  1
  S  S160  1  0.83477037  0.47397885  0.15791991  1
  S  S161  1  0.80937694  0.06663692  0.26865940  1
  S  S162  1  0.82267856  0.75547744  0.21743753  1
  S  S163  1  0.15581274  0.26819213  0.13304360  1
  S  S164  1  0.15444986  0.86325141  0.22542067  1
  S  S165  1  0.15356382  0.57451847  0.18420914  1
  S  S166  1  0.83806393  0.23218838  0.18696686  1
  S  S167  1  0.83759136  0.93982667  0.12742189  1
  S  S168  1  0.80341888  0.52729944  0.23010572  1
  S  S169  1  0.15779955  0.43250868  0.21117540  1
  S  S170  1  0.14891129  0.12736651  0.16266922  1
  S  S171  1  0.17245315  0.73602367  0.26860662  1
  S  S172  1  0.32282186  0.25553764  0.21740504  1
  S  S173  1  0.33469504  0.97389083  0.15789543  1
  S  S174  1  0.30923551  0.56662999  0.26872040  1
  S  S175  1  0.65454493  0.36330453  0.22544523  1
  S  S176  1  0.65351764  0.07447111  0.18412058  1
  S  S177  1  0.65575144  0.76820374  0.13304615  1
  S  S178  1  0.33768673  0.43990041  0.12746284  1
  S  S179  1  0.30348003  0.02732592  0.23005987  1
  S  S180  1  0.33801654  0.73221112  0.18696665  1
  S  S181  1  0.67247701  0.23603210  0.26859472  1
  S  S182  1  0.65784810  0.93251668  0.21116045  1
  S  S183  1  0.64901539  0.62738824  0.16271473  1
  S  S184  1  0.84413228  0.37243140  0.30978574  1
  S  S185  1  0.87033626  0.95441163  0.42558667  1
  S  S186  1  0.82688871  0.64243418  0.37105997  1
  S  S187  1  0.16724675  0.16189057  0.28517771  1
  S  S188  1  0.14406919  0.75624938  0.37638522  1
  S  S189  1  0.16757179  0.47039545  0.33928681  1
  S  S190  1  0.84924713  0.12626919  0.33956413  1
  S  S191  1  0.83114596  0.83963425  0.28083364  1
  S  S192  1  0.80144372  0.42486084  0.38181647  1
  S  S193  1  0.15168733  0.32787756  0.36429285  1
  S  S194  1  0.15920961  0.02159304  0.31512220  1
  S  S195  1  0.17107560  0.64024902  0.42529213  1
  S  S196  1  0.32721175  0.14243885  0.37094472  1
  S  S197  1  0.34422081  0.87239719  0.30974265  1
  S  S198  1  0.36974985  0.45436221  0.42561940  1
  S  S199  1  0.64429871  0.25626205  0.37634338  1
  S  S200  1  0.66770220  0.97038933  0.33921257  1
  S  S201  1  0.66705527  0.66188422  0.28524143  1
  S  S202  1  0.33109987  0.33960681  0.28083572  1
  S  S203  1  0.30172076  0.92483906  0.38177133  1
  S  S204  1  0.34906435  0.62628398  0.33963065  1
  S  S205  1  0.67155656  0.14008756  0.42514151  1
  S  S206  1  0.65193564  0.82786761  0.36422201  1
  S  S207  1  0.65895430  0.52160610  0.31521659  1
  S  S208  1  0.23764978  0.03829555  0.45019668  1
  S  S209  1  0.91141974  0.98098801  0.50128011  1
  S  S210  1  0.80570971  0.73826018  0.42990274  1
  S  S211  1  0.23196000  0.89282227  0.46780028  1
  S  S212  1  0.73674620  0.53839250  0.45021028  1
  S  S213  1  0.30613201  0.23806997  0.42986684  1
  S  S214  1  0.41105751  0.48094395  0.50132216  1
  S  S215  1  0.73164659  0.39288128  0.46781179  1
  S  S216  1  0.58636734  0.23832332  0.50742035  1
  S  S217  1  0.60404536  0.65131979  0.61609881  1
  S  S218  1  0.59350714  0.96311844  0.56204697  1
  S  S219  1  0.25557325  0.85463047  0.57108398  1
  S  S220  1  0.25935717  0.14080911  0.53367829  1
  S  S221  1  0.63019592  0.18355878  0.57810540  1
  S  S222  1  0.27247412  0.28150871  0.56148865  1
  S  S223  1  0.21957281  0.98484140  0.60975360  1
  S  S224  1  0.09331291  0.46321368  0.56206862  1
  S  S225  1  0.08610846  0.73828503  0.50749887  1
  S  S226  1  0.10420645  0.15130140  0.61604880  1
  S  S227  1  0.75562233  0.35465497  0.57108929  1
  S  S228  1  0.75895141  0.64082525  0.53375086  1
  S  S229  1  0.12969272  0.68359464  0.57820353  1
  S  S230  1  0.71941435  0.48481421  0.60980035  1
  S  S231  1  0.77213681  0.78154328  0.56153692  1
  S  S232  1  0.56523689  0.35082356  0.65765100  1
  S  S233  1  0.59143721  0.75838614  0.76869006  1
  S  S234  1  0.57717235  0.06962301  0.71733583  1
  S  S235  1  0.24325611  0.55668189  0.63303187  1
  S  S236  1  0.24505729  0.96190147  0.72529719  1
  S  S237  1  0.24730001  0.25009192  0.68407051  1
  S  S238  1  0.56257426  0.59253084  0.68668960  1
  S  S239  1  0.56291160  0.88476719  0.62731816  1
  S  S240  1  0.59796745  0.29756793  0.72978886  1
  S  S241  1  0.24255069  0.39213843  0.71100720  1
  S  S242  1  0.25170167  0.69753578  0.66256299  1
  S  S243  1  0.22679593  0.08919287  0.76842842  1
  S  S244  1  0.07731730  0.56955195  0.71736319  1
  S  S245  1  0.06509497  0.85080956  0.65766086  1
  S  S246  1  0.09108762  0.25837978  0.76864253  1
  S  S247  1  0.74492698  0.46192495  0.72534947  1
  S  S248  1  0.74726627  0.75009875  0.68415877  1
  S  S249  1  0.74346451  0.05663493  0.63297396  1
  S  S250  1  0.06302126  0.38478852  0.62731396  1
  S  S251  1  0.09806662  0.79766049  0.72982534  1
  S  S252  1  0.06251542  0.09258397  0.68665492  1
  S  S253  1  0.72716308  0.58923266  0.76847266  1
  S  S254  1  0.74258667  0.89218522  0.71103567  1
  S  S255  1  0.75165976  0.19752563  0.66246954  1
  S  S256  1  0.55476025  0.45311439  0.80972960  1
  S  S257  1  0.52870955  0.87088064  0.92552713  1
  S  S258  1  0.57286805  0.18270860  0.87099217  1
  S  S259  1  0.23294652  0.66332070  0.78513480  1
  S  S260  1  0.25476656  0.06925799  0.87637712  1
  S  S261  1  0.23180251  0.35485240  0.83912132  1
  S  S262  1  0.54950062  0.69934673  0.83966580  1
  S  S263  1  0.56805913  0.98556076  0.78072870  1
  S  S264  1  0.59705309  0.40057329  0.88174357  1
  S  S265  1  0.24660689  0.49741745  0.86417444  1
  S  S266  1  0.24024900  0.80391371  0.81478644  1
  S  S267  1  0.22934453  0.18516489  0.92535654  1
  S  S268  1  0.07288836  0.68266781  0.87098546  1
  S  S269  1  0.05471714  0.95313405  0.80974404  1
  S  S270  1  0.02927979  0.37090879  0.92554121  1
  S  S271  1  0.75481645  0.56921037  0.87637305  1
  S  S272  1  0.73182598  0.85485043  0.83913022  1
  S  S273  1  0.73256929  0.16334535  0.78511804  1
  S  S274  1  0.06817314  0.48548735  0.78075081  1
  S  S275  1  0.09704207  0.90057237  0.88175320  1
  S  S276  1  0.04945320  0.19925239  0.83961630  1
  S  S277  1  0.72930562  0.68512507  0.92534763  1
  S  S278  1  0.74656461  0.99741336  0.86419303  1
  S  S279  1  0.74024380  0.30388393  0.81481726  1
  S  S280  1  0.16105101  0.78711955  0.95018305  1
  S  S281  1  0.48782425  0.84418758  0.00122038  1
  S  S282  1  0.59381241  0.08686092  0.92983971  1
  S  S283  1  0.16749759  0.93259581  0.96778520  1
  S  S284  1  0.66188233  0.28705252  0.95016211  1
  S  S285  1  0.09381541  0.58684852  0.92984012  1
  S  S286  1  0.98829789  0.34420642  0.00123982  1
  S  S287  1  0.66780663  0.43253212  0.96777576  1
