# generated using pymatgen
data_Na3PS4
_symmetry_space_group_name_H-M   'P 1'
_cell_length_a   7.04503328
_cell_length_b   25.44611506
_cell_length_c   56.37209057
_cell_angle_alpha   89.59141961
_cell_angle_beta   89.70042914
_cell_angle_gamma   90.01238051
_symmetry_Int_Tables_number   1
_chemical_formula_structural   Na3PS4
_chemical_formula_sum   'Na162 P54 S216'
_cell_volume   10105.35753970
_cell_formula_units_Z   54
loop_
 _symmetry_equiv_pos_site_id
 _symmetry_equiv_pos_as_xyz
  1  'x, y, z'
loop_
 _atom_site_type_symbol
 _atom_site_label
 _atom_site_symmetry_multiplicity
 _atom_site_fract_x
 _atom_site_fract_y
 _atom_site_fract_z
 _atom_site_occupancy
  Na  Na0  1  0.47915067  0.21896151  0.05867828  1
  Na  Na1  1  0.47085736  0.87063928  0.09632199  1
  Na  Na2  1  0.47518983  0.60924539  0.03887353  1
  Na  Na3  1  0.93394294  0.34945257  0.01704836  1
  Na  Na4  1  0.81749181  0.93437331  0.04361454  1
  Na  Na5  1  0.89297800  0.55404495  0.08425431  1
  Na  Na6  1  0.01740731  0.75348199  0.05353917  1
  Na  Na7  1  0.95393852  0.37566420  0.07682737  1
  Na  Na8  1  0.00686983  0.05911125  0.06352207  1
  Na  Na9  1  0.98082817  0.51099214  0.00439339  1
  Na  Na10  1  0.68459667  0.10320901  0.02107427  1
  Na  Na11  1  0.51995117  0.74091039  0.06781703  1
  Na  Na12  1  0.44597302  0.34660930  0.08752977  1
  Na  Na13  1  0.43385763  0.32034974  0.00425684  1
  Na  Na14  1  0.39197801  0.53779333  0.08851601  1
  Na  Na15  1  0.47863944  0.07452759  0.17233883  1
  Na  Na16  1  0.47395157  0.68090838  0.20335286  1
  Na  Na17  1  0.45078260  0.45081565  0.13528013  1
  Na  Na18  1  0.99218091  0.15900604  0.10526064  1
  Na  Na19  1  0.92270299  0.77949007  0.14725149  1
  Na  Na20  1  0.03777289  0.37870512  0.17870703  1
  Na  Na21  1  0.99227212  0.98169926  0.11600552  1
  Na  Na22  1  0.89695289  0.58238614  0.16161616  1
  Na  Na23  1  0.96350243  0.20804490  0.18723303  1
  Na  Na24  1  0.97866789  0.90584176  0.17044506  1
  Na  Na25  1  0.98587034  0.67576329  0.10858002  1
  Na  Na26  1  0.95399013  0.28682703  0.13047150  1
  Na  Na27  1  0.49424848  0.98445976  0.13049078  1
  Na  Na28  1  0.39402206  0.57479725  0.16450094  1
  Na  Na29  1  0.45231144  0.19786145  0.19637252  1
  Na  Na30  1  0.48669856  0.14866497  0.11767012  1
  Na  Na31  1  0.42628694  0.77121867  0.15213091  1
  Na  Na32  1  0.53641724  0.37750776  0.18355586  1
  Na  Na33  1  0.47021741  0.91155497  0.27159975  1
  Na  Na34  1  0.48330327  0.51780714  0.30919065  1
  Na  Na35  1  0.46797582  0.30374510  0.23757140  1
  Na  Na36  1  0.98878510  0.00256856  0.21438801  1
  Na  Na37  1  0.99764656  0.61644089  0.25043367  1
  Na  Na38  1  0.06165057  0.22575051  0.28421160  1
  Na  Na39  1  0.92766402  0.81911966  0.22390679  1
  Na  Na40  1  0.89323620  0.42320725  0.26548057  1
  Na  Na41  1  0.91599576  0.03941452  0.29897597  1
  Na  Na42  1  0.97334224  0.74295600  0.27691200  1
  Na  Na43  1  0.95822817  0.49849634  0.21126667  1
  Na  Na44  1  0.97732042  0.12627151  0.24294529  1
  Na  Na45  1  0.42008542  0.80494609  0.22925121  1
  Na  Na46  1  0.38689174  0.42088235  0.26750457  1
  Na  Na47  1  0.41194766  0.03476877  0.30070843  1
  Na  Na48  1  0.47973247  0.99194124  0.22285522  1
  Na  Na49  1  0.49039844  0.60272470  0.25643351  1
  Na  Na50  1  0.56065584  0.22707364  0.28640498  1
  Na  Na51  1  0.45778761  0.75833514  0.36485058  1
  Na  Na52  1  0.49656470  0.36148768  0.41541872  1
  Na  Na53  1  0.46961351  0.15133236  0.33641849  1
  Na  Na54  1  0.06709175  0.84209508  0.31863727  1
  Na  Na55  1  0.02390896  0.45499758  0.35398793  1
  Na  Na56  1  0.06673084  0.06990362  0.38744508  1
  Na  Na57  1  0.94745203  0.65968112  0.32854705  1
  Na  Na58  1  0.90053120  0.26619728  0.37183820  1
  Na  Na59  1  0.86834938  0.87494437  0.40689576  1
  Na  Na60  1  0.97578313  0.58076568  0.37975781  1
  Na  Na61  1  0.96670403  0.34147197  0.31607162  1
  Na  Na62  1  0.96787452  0.95520256  0.35340818  1
  Na  Na63  1  0.43879322  0.64239855  0.33261578  1
  Na  Na64  1  0.39410747  0.26420381  0.37238565  1
  Na  Na65  1  0.36512111  0.86631131  0.40643364  1
  Na  Na66  1  0.56867562  0.84326269  0.31984536  1
  Na  Na67  1  0.50965393  0.44506088  0.36362093  1
  Na  Na68  1  0.56317178  0.07797625  0.38730416  1
  Na  Na69  1  0.54818336  0.60505017  0.49901420  1
  Na  Na70  1  0.42569678  0.00028927  0.43026077  1
  Na  Na71  1  0.96786083  0.68609777  0.42217322  1
  Na  Na72  1  0.94557228  0.28771884  0.44951848  1
  Na  Na73  1  0.89171011  0.89076271  0.47827334  1
  Na  Na74  1  0.03783597  0.49870811  0.43814056  1
  Na  Na75  1  0.94011504  0.16648794  0.42298827  1
  Na  Na76  1  0.01495521  0.74339222  0.47621904  1
  Na  Na77  1  0.53577470  0.53708634  0.44466201  1
  Na  Na78  1  0.38338072  0.11526652  0.47938948  1
  Na  Na79  1  0.46890881  0.68818818  0.41928267  1
  Na  Na80  1  0.40732162  0.90587121  0.48296390  1
  Na  Na81  1  0.41717397  0.37532721  0.56258839  1
  Na  Na82  1  0.40010913  0.70278189  0.59216706  1
  Na  Na83  1  0.38851699  0.98029574  0.53794971  1
  Na  Na84  1  0.90527611  0.18175976  0.53862119  1
  Na  Na85  1  0.07524403  0.65010726  0.54125173  1
  Na  Na86  1  0.91095196  0.05969616  0.57145812  1
  Na  Na87  1  0.90669591  0.85095463  0.56269250  1
  Na  Na88  1  0.00359508  0.23538288  0.59363450  1
  Na  Na89  1  0.88152274  0.54108321  0.56855201  1
  Na  Na90  1  0.92461370  0.05997298  0.48918931  1
  Na  Na91  1  0.10011833  0.46687228  0.52310042  1
  Na  Na92  1  0.40466968  0.83980418  0.56750004  1
  Na  Na93  1  0.50106403  0.23649188  0.59208006  1
  Na  Na94  1  0.44445094  0.27965939  0.51920351  1
  Na  Na95  1  0.41301100  0.05014030  0.58856942  1
  Na  Na96  1  0.40278962  0.48251235  0.67001454  1
  Na  Na97  1  0.40007765  0.87273565  0.69391122  1
  Na  Na98  1  0.41448752  0.12662148  0.63646554  1
  Na  Na99  1  0.85917307  0.43456074  0.60549731  1
  Na  Na100  1  0.86368691  0.81983705  0.64006141  1
  Na  Na101  1  0.82947585  0.19954487  0.67988877  1
  Na  Na102  1  0.89106965  0.61035801  0.62271165  1
  Na  Na103  1  0.97138539  0.00373889  0.66626626  1
  Na  Na104  1  0.92754724  0.38326072  0.69924636  1
  Na  Na105  1  0.89224221  0.70474122  0.67425477  1
  Na  Na106  1  0.87982674  0.94525626  0.61109694  1
  Na  Na107  1  0.91337211  0.31798762  0.64272307  1
  Na  Na108  1  0.38620769  0.59518371  0.63337788  1
  Na  Na109  1  0.47282587  0.99781912  0.66631763  1
  Na  Na110  1  0.42329253  0.36806416  0.70372891  1
  Na  Na111  1  0.34765666  0.43151357  0.61580575  1
  Na  Na112  1  0.35844182  0.79711830  0.64065632  1
  Na  Na113  1  0.32434350  0.19961480  0.68387999  1
  Na  Na114  1  0.41456150  0.64057575  0.76765549  1
  Na  Na115  1  0.40001135  0.02577931  0.80353933  1
  Na  Na116  1  0.40475072  0.25501479  0.73952275  1
  Na  Na117  1  0.85954147  0.58995183  0.71007681  1
  Na  Na118  1  0.84490344  0.96044565  0.74920982  1
  Na  Na119  1  0.88019968  0.36134570  0.78127858  1
  Na  Na120  1  0.98444386  0.76642255  0.73061181  1
  Na  Na121  1  0.97316312  0.15223377  0.77093388  1
  Na  Na122  1  0.95021451  0.53539294  0.80397112  1
  Na  Na123  1  0.90790682  0.84126276  0.78412678  1
  Na  Na124  1  0.90126423  0.08722886  0.71654802  1
  Na  Na125  1  0.89990454  0.47789296  0.74569083  1
  Na  Na126  1  0.48366145  0.76417331  0.73164325  1
  Na  Na127  1  0.46923085  0.14319839  0.77122112  1
  Na  Na128  1  0.44705954  0.52373272  0.80614854  1
  Na  Na129  1  0.34685815  0.57400179  0.71480699  1
  Na  Na130  1  0.34614289  0.95508489  0.74710980  1
  Na  Na131  1  0.36568183  0.34531260  0.78680069  1
  Na  Na132  1  0.41923443  0.79143403  0.86126742  1
  Na  Na133  1  0.38645305  0.16383581  0.91393198  1
  Na  Na134  1  0.41526418  0.40098711  0.84272391  1
  Na  Na135  1  0.81764234  0.72182600  0.81705754  1
  Na  Na136  1  0.89153724  0.12976443  0.84818939  1
  Na  Na137  1  0.82142190  0.49579885  0.88933398  1
  Na  Na138  1  0.99859740  0.91642492  0.83521258  1
  Na  Na139  1  0.88639069  0.30395945  0.87712271  1
  Na  Na140  1  0.03025861  0.69128683  0.90829982  1
  Na  Na141  1  0.90603723  0.00948497  0.88042290  1
  Na  Na142  1  0.90606295  0.24742206  0.81665942  1
  Na  Na143  1  0.91627891  0.61806538  0.85687695  1
  Na  Na144  1  0.49838918  0.91424584  0.83558987  1
  Na  Na145  1  0.39314355  0.28344939  0.88101188  1
  Na  Na146  1  0.53830457  0.69843012  0.90676139  1
  Na  Na147  1  0.31699214  0.71968568  0.81534767  1
  Na  Na148  1  0.38070784  0.11531488  0.85666127  1
  Na  Na149  1  0.31832912  0.48592787  0.88918633  1
  Na  Na150  1  0.32596346  0.97010569  0.00599972  1
  Na  Na151  1  0.44683770  0.57074333  0.93145448  1
  Na  Na152  1  0.92847396  0.88307089  0.91672923  1
  Na  Na153  1  0.89424942  0.26255557  0.95294376  1
  Na  Na154  1  0.01458188  0.67604465  0.97699593  1
  Na  Na155  1  0.82992891  0.06226936  0.93794082  1
  Na  Na156  1  0.92765075  0.39781504  0.92974920  1
  Na  Na157  1  0.85512030  0.83717543  0.97392201  1
  Na  Na158  1  0.33145063  0.00662876  0.94522650  1
  Na  Na159  1  0.49891147  0.46523424  0.97743957  1
  Na  Na160  1  0.42878935  0.86980140  0.91258046  1
  Na  Na161  1  0.50745941  0.66777903  0.98230561  1
  P  P162  1  0.97497556  0.23909295  0.05073833  1
  P  P163  1  0.97136954  0.85337014  0.09029633  1
  P  P164  1  0.97669606  0.63095260  0.03367012  1
  P  P165  1  0.49213298  0.05019554  0.07453629  1
  P  P166  1  0.42836477  0.43524517  0.03633688  1
  P  P167  1  0.98176313  0.08219749  0.16197445  1
  P  P168  1  0.97162445  0.69416907  0.19841108  1
  P  P169  1  0.94613066  0.46067540  0.12861738  1
  P  P170  1  0.47464141  0.89399647  0.17903512  1
  P  P171  1  0.47338145  0.66062480  0.11618727  1
  P  P172  1  0.46127582  0.27376289  0.14257812  1
  P  P173  1  0.97078646  0.92005677  0.26683750  1
  P  P174  1  0.98024917  0.53471326  0.30178521  1
  P  P175  1  0.96864264  0.30527055  0.23302897  1
  P  P176  1  0.47564385  0.72963214  0.28318383  1
  P  P177  1  0.45839069  0.49715831  0.21552238  1
  P  P178  1  0.47814316  0.11678066  0.24945469  1
  P  P179  1  0.95626628  0.76421266  0.36967559  1
  P  P180  1  0.99043715  0.37974954  0.40675498  1
  P  P181  1  0.97163449  0.15100918  0.33703139  1
  P  P182  1  0.47572159  0.57256900  0.38724426  1
  P  P183  1  0.46675289  0.34194086  0.31994325  1
  P  P184  1  0.47198383  0.95682916  0.35365917  1
  P  P185  1  0.05906033  0.58356883  0.48573602  1
  P  P186  1  0.92718936  0.99321385  0.43775945  1
  P  P187  1  0.43512083  0.18530740  0.42678202  1
  P  P188  1  0.45739364  0.78494926  0.45967006  1
  P  P189  1  0.93597701  0.35069896  0.55534295  1
  P  P190  1  0.90369740  0.73238496  0.58933365  1
  P  P191  1  0.89756996  0.96075953  0.52976027  1
  P  P192  1  0.39111353  0.54002098  0.57630603  1
  P  P193  1  0.41755801  0.15516697  0.54109894  1
  P  P194  1  0.89864529  0.49816410  0.66387699  1
  P  P195  1  0.89951488  0.88296646  0.69748728  1
  P  P196  1  0.91514840  0.12075339  0.62917670  1
  P  P197  1  0.39224782  0.68929430  0.67876284  1
  P  P198  1  0.37891526  0.92495007  0.61466803  1
  P  P199  1  0.41527659  0.31064584  0.64611471  1
  P  P200  1  0.91435441  0.64927978  0.76570354  1
  P  P201  1  0.90120211  0.03327425  0.80239179  1
  P  P202  1  0.90300365  0.26674218  0.73496640  1
  P  P203  1  0.40683377  0.84060531  0.78330148  1
  P  P204  1  0.40139503  0.07863894  0.71628012  1
  P  P205  1  0.39900735  0.45900982  0.75085091  1
  P  P206  1  0.92295742  0.79867417  0.86738684  1
  P  P207  1  0.89247249  0.17844778  0.90686360  1
  P  P208  1  0.91618032  0.41716853  0.83878148  1
  P  P209  1  0.40729838  0.99332255  0.88712398  1
  P  P210  1  0.40670199  0.22929474  0.82086207  1
  P  P211  1  0.41376344  0.61023505  0.85464714  1
  P  P212  1  0.79891544  0.98580333  0.98679685  1
  P  P213  1  0.94938351  0.57017801  0.93955683  1
  P  P214  1  0.42822026  0.37249310  0.93047635  1
  P  P215  1  0.43125700  0.78420781  0.95750767  1
  S  S216  1  0.79666067  0.23648789  0.02120984  1
  S  S217  1  0.77050547  0.83380540  0.06446326  1
  S  S218  1  0.78866379  0.61385673  0.00705269  1
  S  S219  1  0.13004657  0.91476123  0.07742741  1
  S  S220  1  0.17929337  0.68531244  0.02176108  1
  S  S221  1  0.17953056  0.29724910  0.04592816  1
  S  S222  1  0.81889751  0.66004458  0.06167610  1
  S  S223  1  0.81551786  0.25874416  0.08051058  1
  S  S224  1  0.11688623  0.16987293  0.05521652  1
  S  S225  1  0.11062934  0.56309879  0.04374576  1
  S  S226  1  0.36699377  0.04329593  0.04230165  1
  S  S227  1  0.32871212  0.64942332  0.08491945  1
  S  S228  1  0.23975704  0.41929765  0.00849045  1
  S  S229  1  0.66304176  0.11657610  0.07274046  1
  S  S230  1  0.58374086  0.49987461  0.02624042  1
  S  S231  1  0.28289294  0.44414458  0.06759385  1
  S  S232  1  0.65811674  0.98607249  0.08319872  1
  S  S233  1  0.60697654  0.37104460  0.04109359  1
  S  S234  1  0.79440410  0.07386083  0.13419146  1
  S  S235  1  0.78829778  0.68763903  0.17048677  1
  S  S236  1  0.75258986  0.45806227  0.10117786  1
  S  S237  1  0.15355906  0.75752213  0.19233294  1
  S  S238  1  0.12025256  0.52653900  0.12537632  1
  S  S239  1  0.16517370  0.14360895  0.15482593  1
  S  S240  1  0.82775236  0.87330756  0.12095040  1
  S  S241  1  0.80428590  0.46706247  0.16064449  1
  S  S242  1  0.83288437  0.09790043  0.19283683  1
  S  S243  1  0.13787743  0.01382261  0.16556909  1
  S  S244  1  0.14966668  0.79019731  0.09708239  1
  S  S245  1  0.11236948  0.39425075  0.12782487  1
  S  S246  1  0.32827368  0.88224601  0.14782022  1
  S  S247  1  0.30489494  0.47669032  0.18563098  1
  S  S248  1  0.30975109  0.25255810  0.11277422  1
  S  S249  1  0.63605226  0.96164412  0.17688508  1
  S  S250  1  0.63635412  0.72811418  0.11365703  1
  S  S251  1  0.60829612  0.34184395  0.13550891  1
  S  S252  1  0.28851220  0.05949161  0.10104935  1
  S  S253  1  0.27919524  0.66923854  0.14312106  1
  S  S254  1  0.28248189  0.28562343  0.17141607  1
  S  S255  1  0.65145939  0.83001328  0.18490534  1
  S  S256  1  0.63757883  0.59430644  0.12196614  1
  S  S257  1  0.65379245  0.21499666  0.15076550  1
  S  S258  1  0.78705615  0.91677842  0.23852849  1
  S  S259  1  0.79512165  0.52964848  0.27360304  1
  S  S260  1  0.78601534  0.29944691  0.20450059  1
  S  S261  1  0.16959198  0.59587105  0.29621185  1
  S  S262  1  0.13605502  0.37111041  0.22876372  1
  S  S263  1  0.14974312  0.98413916  0.26245217  1
  S  S264  1  0.81644233  0.70840175  0.22880504  1
  S  S265  1  0.81524376  0.31179326  0.26433563  1
  S  S266  1  0.81918428  0.92843261  0.29805011  1
  S  S267  1  0.13070995  0.85186041  0.26810745  1
  S  S268  1  0.12318920  0.62496135  0.20252920  1
  S  S269  1  0.13711140  0.23888796  0.23418330  1
  S  S270  1  0.31229843  0.70815086  0.25453457  1
  S  S271  1  0.31500321  0.32188685  0.28988005  1
  S  S272  1  0.31797476  0.09725492  0.22007352  1
  S  S273  1  0.62289177  0.79735116  0.27478798  1
  S  S274  1  0.62150184  0.56325977  0.20844950  1
  S  S275  1  0.63436753  0.18296930  0.24168567  1
  S  S276  1  0.28300981  0.89998409  0.20675866  1
  S  S277  1  0.27311273  0.51295479  0.24285262  1
  S  S278  1  0.30022442  0.13079423  0.27806563  1
  S  S279  1  0.66189411  0.66890946  0.29068244  1
  S  S280  1  0.63211423  0.43490112  0.22482547  1
  S  S281  1  0.65594476  0.05460634  0.25765757  1
  S  S282  1  0.80938384  0.76044354  0.33809499  1
  S  S283  1  0.80067486  0.37385766  0.37892911  1
  S  S284  1  0.80285335  0.14509277  0.30738758  1
  S  S285  1  0.18444894  0.43910804  0.40130892  1
  S  S286  1  0.13756912  0.21757467  0.33427461  1
  S  S287  1  0.13212286  0.82938257  0.36850120  1
  S  S288  1  0.82639166  0.54818947  0.33239892  1
  S  S289  1  0.80348438  0.15728080  0.36732672  1
  S  S290  1  0.77114255  0.76993434  0.39780911  1
  S  S291  1  0.12111950  0.69711509  0.37341356  1
  S  S292  1  0.12599466  0.46448650  0.30500227  1
  S  S293  1  0.14009024  0.08476867  0.33913386  1
  S  S294  1  0.32585824  0.54785468  0.35785978  1
  S  S295  1  0.29388096  0.16821820  0.39555530  1
  S  S296  1  0.30731513  0.93777390  0.32453506  1
  S  S297  1  0.62631164  0.63987266  0.37898424  1
  S  S298  1  0.63228489  0.40731676  0.31276523  1
  S  S299  1  0.63833182  0.02071130  0.34459725  1
  S  S300  1  0.30181777  0.74258233  0.31237945  1
  S  S301  1  0.28311942  0.35770017  0.34745324  1
  S  S302  1  0.29661729  0.97486556  0.38203483  1
  S  S303  1  0.66371205  0.51547384  0.39827344  1
  S  S304  1  0.63830188  0.27939729  0.32953006  1
  S  S305  1  0.63271630  0.89243341  0.36308508  1
  S  S306  1  0.87888940  0.59297450  0.45676096  1
  S  S307  1  0.80415616  0.99250643  0.40483203  1
  S  S308  1  0.09006432  0.06045082  0.44191805  1
  S  S309  1  0.19904525  0.65265777  0.49190915  1
  S  S310  1  0.84585518  0.39283026  0.43823412  1
  S  S311  1  0.71471417  0.99013965  0.46300570  1
  S  S312  1  0.89587330  0.56310235  0.51467551  1
  S  S313  1  0.25273623  0.52304040  0.48009545  1
  S  S314  1  0.13587537  0.30942420  0.40889463  1
  S  S315  1  0.10744193  0.92859070  0.44046580  1
  S  S316  1  0.24725530  0.77106889  0.43459055  1
  S  S317  1  0.62380865  0.24675875  0.42005167  1
  S  S318  1  0.60089862  0.85213670  0.44818812  1
  S  S319  1  0.28311835  0.58859651  0.41430662  1
  S  S320  1  0.24108166  0.20286093  0.45332371  1
  S  S321  1  0.32905514  0.80050810  0.49172496  1
  S  S322  1  0.59078257  0.12018706  0.43663803  1
  S  S323  1  0.63879786  0.72137099  0.46199014  1
  S  S324  1  0.13028671  0.35471920  0.52745922  1
  S  S325  1  0.09802616  0.75407112  0.56281699  1
  S  S326  1  0.10615403  0.96533923  0.50386501  1
  S  S327  1  0.76576468  0.66607474  0.57882550  1
  S  S328  1  0.71939437  0.89695911  0.52362945  1
  S  S329  1  0.75595558  0.28637211  0.55253439  1
  S  S330  1  0.03878012  0.95281591  0.56154774  1
  S  S331  1  0.07954482  0.34284382  0.58737962  1
  S  S332  1  0.77576912  0.41793158  0.55462964  1
  S  S333  1  0.73752330  0.02800396  0.52968135  1
  S  S334  1  0.53280782  0.55574351  0.54604086  1
  S  S335  1  0.53690024  0.94086769  0.58443839  1
  S  S336  1  0.57783559  0.17545337  0.51147069  1
  S  S337  1  0.21554178  0.47541146  0.57258983  1
  S  S338  1  0.23488711  0.09475247  0.53258610  1
  S  S339  1  0.59809145  0.13763228  0.56887108  1
  S  S340  1  0.21723055  0.60248833  0.58597875  1
  S  S341  1  0.25881402  0.21934900  0.55150322  1
  S  S342  1  0.08379202  0.51050804  0.63589902  1
  S  S343  1  0.06491303  0.89538230  0.66800350  1
  S  S344  1  0.10884190  0.12791764  0.60169412  1
  S  S345  1  0.74567902  0.81418131  0.69295139  1
  S  S346  1  0.74166247  0.05562604  0.62445646  1
  S  S347  1  0.74968238  0.42996117  0.65808887  1
  S  S348  1  0.04779598  0.72137795  0.62088183  1
  S  S349  1  0.05849530  0.11302151  0.66092816  1
  S  S350  1  0.05136659  0.49169999  0.69527760  1
  S  S351  1  0.71301463  0.56060411  0.66610988  1
  S  S352  1  0.70219539  0.79138257  0.59476707  1
  S  S353  1  0.75059879  0.18775202  0.63021730  1
  S  S354  1  0.54886496  0.69947159  0.64785680  1
  S  S355  1  0.56467277  0.09900396  0.68690636  1
  S  S356  1  0.57307630  0.33226906  0.61661144  1
  S  S357  1  0.19910393  0.62943751  0.67430199  1
  S  S358  1  0.18862558  0.86530376  0.60773654  1
  S  S359  1  0.24682661  0.24695632  0.63799407  1
  S  S360  1  0.58088814  0.52409065  0.60388324  1
  S  S361  1  0.56294834  0.90214774  0.64118344  1
  S  S362  1  0.58988864  0.29079460  0.67422191  1
  S  S363  1  0.24630908  0.75791071  0.68643314  1
  S  S364  1  0.23747746  0.99234784  0.62466509  1
  S  S365  1  0.24471841  0.37261646  0.65667698  1
  S  S366  1  0.09421288  0.65963735  0.73717114  1
  S  S367  1  0.07398773  0.04292807  0.77301750  1
  S  S368  1  0.08137617  0.27856837  0.70604720  1
  S  S369  1  0.74500563  0.96515111  0.79852601  1
  S  S370  1  0.75051842  0.19823674  0.73061855  1
  S  S371  1  0.75212513  0.58244784  0.76123366  1
  S  S372  1  0.06932629  0.87576975  0.72718806  1
  S  S373  1  0.06193561  0.26191893  0.76568594  1
  S  S374  1  0.06944514  0.64082654  0.79669293  1
  S  S375  1  0.73769061  0.71376343  0.76845347  1
  S  S376  1  0.71775288  0.94621121  0.70207664  1
  S  S377  1  0.71916288  0.32956000  0.73748028  1
  S  S378  1  0.58042345  0.86056141  0.75517571  1
  S  S379  1  0.56042215  0.24488297  0.79035216  1
  S  S380  1  0.55152696  0.47211264  0.71998746  1
  S  S381  1  0.23637379  0.77853195  0.77369198  1
  S  S382  1  0.22237873  0.01743910  0.70779420  1
  S  S383  1  0.21147861  0.39758691  0.74572048  1
  S  S384  1  0.57301194  0.67213070  0.70655986  1
  S  S385  1  0.57435163  0.05492717  0.74374529  1
  S  S386  1  0.58489216  0.44090318  0.77807540  1
  S  S387  1  0.24608006  0.90580740  0.79229990  1
  S  S388  1  0.24494481  0.14330574  0.72690380  1
  S  S389  1  0.24997950  0.52563620  0.76005833  1
  S  S390  1  0.06655186  0.80530280  0.83555564  1
  S  S391  1  0.08702535  0.19968453  0.88071874  1
  S  S392  1  0.10282496  0.43106808  0.81113348  1
  S  S393  1  0.73798601  0.11442981  0.89567904  1
  S  S394  1  0.75983068  0.35039005  0.83225781  1
  S  S395  1  0.76035844  0.73100831  0.86723669  1
  S  S396  1  0.06729337  0.02823781  0.83243221  1
  S  S397  1  0.06473440  0.40686508  0.87035998  1
  S  S398  1  0.11080906  0.79528942  0.89509706  1
  S  S399  1  0.74774372  0.86355098  0.87155031  1
  S  S400  1  0.72337508  0.09752332  0.80560223  1
  S  S401  1  0.73140318  0.47971266  0.84197601  1
  S  S402  1  0.55095460  0.01403164  0.85670491  1
  S  S403  1  0.58482398  0.38172873  0.89932947  1
  S  S404  1  0.58103004  0.62400979  0.82491007  1
  S  S405  1  0.22731972  0.93084591  0.88027011  1
  S  S406  1  0.22644480  0.16620571  0.81468157  1
  S  S407  1  0.23208726  0.54878223  0.84764704  1
  S  S408  1  0.57002828  0.81796353  0.81214329  1
  S  S409  1  0.58910688  0.21126681  0.84825931  1
  S  S410  1  0.58407072  0.59137165  0.88332700  1
  S  S411  1  0.24420115  0.05455556  0.89986731  1
  S  S412  1  0.25008626  0.29404892  0.83063735  1
  S  S413  1  0.26384462  0.67749814  0.86270110  1
  S  S414  1  0.96981703  0.96725278  0.95790949  1
  S  S415  1  0.08217509  0.57373676  0.90693803  1
  S  S416  1  0.77324769  0.50517843  0.94123375  1
  S  S417  1  0.66680677  0.91843996  0.99808939  1
  S  S418  1  0.02848159  0.16175454  0.93837531  1
  S  S419  1  0.15392891  0.56896099  0.96546812  1
  S  S420  1  0.96792226  0.01738226  0.01280426  1
  S  S421  1  0.59682478  0.04262084  0.97819973  1
  S  S422  1  0.70271018  0.23890190  0.91261132  1
  S  S423  1  0.77734937  0.63683613  0.94205788  1
  S  S424  1  0.65308367  0.79514698  0.93339878  1
  S  S425  1  0.23100898  0.31326369  0.92695279  1
  S  S426  1  0.29811037  0.71439665  0.94691042  1
  S  S427  1  0.60219304  0.97164254  0.91292706  1
  S  S428  1  0.61704403  0.35622209  0.95853134  1
  S  S429  1  0.54504445  0.77365153  0.99054962  1
  S  S430  1  0.28973325  0.44207804  0.93687629  1
  S  S431  1  0.24617229  0.84680896  0.95688961  1
