# generated using pymatgen
data_Li2S
_symmetry_space_group_name_H-M   'P 1'
_cell_length_a   51.23702038
_cell_length_b   5.69300079
_cell_length_c   5.69300162
_cell_angle_alpha   90.00000028
_cell_angle_beta   90.00000361
_cell_angle_gamma   90.00000155
_symmetry_Int_Tables_number   1
_chemical_formula_structural   Li2S
_chemical_formula_sum   'Li72 S36'
_cell_volume   1660.60529282
_cell_formula_units_Z   36
loop_
 _symmetry_equiv_pos_site_id
 _symmetry_equiv_pos_as_xyz
  1  'x, y, z'
loop_
 _atom_site_type_symbol
 _atom_site_label
 _atom_site_symmetry_multiplicity
 _atom_site_fract_x
 _atom_site_fract_y
 _atom_site_fract_z
 _atom_site_occupancy
  Li  Li0  1  0.02777789  0.25000000  0.75000000  1
  Li  Li1  1  0.02777788  0.74999998  0.25000001  1
  Li  Li2  1  0.08333324  0.25000001  0.25000000  1
  Li  Li3  1  0.08333323  0.75000003  0.74999997  1
  Li  Li4  1  0.08333323  0.74999994  0.25000003  1
  Li  Li5  1  0.08333323  0.25000002  0.75000001  1
  Li  Li6  1  0.02777790  0.75000005  0.75000000  1
  Li  Li7  1  0.02777789  0.24999999  0.24999999  1
  Li  Li8  1  0.13888893  0.24999999  0.74999999  1
  Li  Li9  1  0.13888894  0.75000001  0.24999999  1
  Li  Li10  1  0.19444427  0.25000001  0.24999994  1
  Li  Li11  1  0.19444427  0.75000000  0.75000002  1
  Li  Li12  1  0.19444427  0.74999998  0.25000000  1
  Li  Li13  1  0.19444428  0.25000001  0.75000003  1
  Li  Li14  1  0.13888892  0.75000001  0.75000001  1
  Li  Li15  1  0.13888892  0.24999999  0.25000001  1
  Li  Li16  1  0.25000002  0.24999994  0.75000000  1
  Li  Li17  1  0.25000001  0.74999994  0.25000001  1
  Li  Li18  1  0.30555572  0.25000007  0.24999998  1
  Li  Li19  1  0.30555572  0.74999999  0.74999996  1
  Li  Li20  1  0.30555572  0.74999994  0.25000000  1
  Li  Li21  1  0.30555573  0.24999997  0.75000001  1
  Li  Li22  1  0.25000002  0.75000000  0.75000001  1
  Li  Li23  1  0.25000002  0.25000003  0.25000001  1
  Li  Li24  1  0.36111106  0.24999996  0.75000002  1
  Li  Li25  1  0.36111106  0.74999999  0.25000004  1
  Li  Li26  1  0.41666676  0.25000002  0.24999999  1
  Li  Li27  1  0.41666676  0.74999999  0.74999998  1
  Li  Li28  1  0.41666677  0.75000002  0.24999996  1
  Li  Li29  1  0.41666676  0.25000000  0.74999997  1
  Li  Li30  1  0.36111106  0.75000002  0.74999999  1
  Li  Li31  1  0.36111106  0.25000000  0.24999999  1
  Li  Li32  1  0.47222211  0.25000003  0.75000001  1
  Li  Li33  1  0.47222211  0.75000003  0.24999996  1
  Li  Li34  1  0.52777789  0.24999999  0.24999994  1
  Li  Li35  1  0.52777789  0.74999996  0.75000003  1
  Li  Li36  1  0.52777789  0.75000002  0.25000000  1
  Li  Li37  1  0.52777789  0.25000001  0.75000001  1
  Li  Li38  1  0.47222211  0.75000005  0.75000002  1
  Li  Li39  1  0.47222212  0.25000003  0.24999997  1
  Li  Li40  1  0.58333324  0.25000001  0.75000004  1
  Li  Li41  1  0.58333324  0.74999996  0.25000000  1
  Li  Li42  1  0.63888893  0.25000002  0.25000003  1
  Li  Li43  1  0.63888893  0.75000002  0.74999997  1
  Li  Li44  1  0.63888893  0.74999998  0.25000001  1
  Li  Li45  1  0.63888893  0.25000002  0.75000000  1
  Li  Li46  1  0.58333323  0.75000006  0.75000001  1
  Li  Li47  1  0.58333324  0.25000001  0.24999996  1
  Li  Li48  1  0.69444428  0.24999997  0.75000003  1
  Li  Li49  1  0.69444428  0.75000002  0.24999999  1
  Li  Li50  1  0.75000001  0.24999996  0.25000001  1
  Li  Li51  1  0.75000000  0.74999999  0.75000002  1
  Li  Li52  1  0.75000000  0.75000006  0.25000001  1
  Li  Li53  1  0.75000000  0.24999998  0.74999997  1
  Li  Li54  1  0.69444429  0.75000007  0.75000002  1
  Li  Li55  1  0.69444427  0.24999997  0.25000003  1
  Li  Li56  1  0.80555571  0.25000001  0.75000002  1
  Li  Li57  1  0.80555571  0.75000003  0.25000002  1
  Li  Li58  1  0.86111107  0.25000000  0.24999999  1
  Li  Li59  1  0.86111107  0.75000001  0.74999995  1
  Li  Li60  1  0.86111107  0.75000001  0.25000008  1
  Li  Li61  1  0.86111107  0.24999999  0.74999997  1
  Li  Li62  1  0.80555572  0.75000000  0.74999998  1
  Li  Li63  1  0.80555572  0.24999999  0.24999997  1
  Li  Li64  1  0.91666677  0.25000001  0.74999999  1
  Li  Li65  1  0.91666677  0.74999994  0.25000002  1
  Li  Li66  1  0.97222211  0.25000001  0.25000003  1
  Li  Li67  1  0.97222212  0.74999995  0.75000003  1
  Li  Li68  1  0.97222211  0.74999997  0.24999997  1
  Li  Li69  1  0.97222211  0.25000002  0.75000001  1
  Li  Li70  1  0.91666677  0.74999997  0.75000002  1
  Li  Li71  1  0.91666677  0.25000005  0.25000005  1
  S  S72  1  -0.00000001  -0.00000004  -0.00000002  1
  S  S73  1  -0.00000001  0.50000009  0.50000004  1
  S  S74  1  0.05555577  -0.00000002  0.50000008  1
  S  S75  1  0.05555576  0.50000001  -0.00000007  1
  S  S76  1  0.11111103  0.00000008  0.00000001  1
  S  S77  1  0.11111103  0.49999992  0.50000001  1
  S  S78  1  0.16666677  -0.00000001  0.49999983  1
  S  S79  1  0.16666677  0.49999995  0.00000010  1
  S  S80  1  0.22222203  0.00000000  0.00000008  1
  S  S81  1  0.22222202  0.50000003  0.49999988  1
  S  S82  1  0.27777799  0.00000003  0.50000001  1
  S  S83  1  0.27777799  0.49999996  0.00000002  1
  S  S84  1  0.33333319  0.00000010  0.00000006  1
  S  S85  1  0.33333319  0.49999991  0.49999995  1
  S  S86  1  0.38888900  0.00000004  0.50000003  1
  S  S87  1  0.38888900  0.49999995  0.00000001  1
  S  S88  1  0.44444422  -0.00000002  -0.00000007  1
  S  S89  1  0.44444422  0.50000005  0.50000008  1
  S  S90  1  0.50000001  0.00000004  0.49999993  1
  S  S91  1  0.50000001  0.49999995  0.00000009  1
  S  S92  1  0.55555576  0.00000008  0.00000008  1
  S  S93  1  0.55555575  0.49999989  0.49999988  1
  S  S94  1  0.61111103  0.00000001  0.49999997  1
  S  S95  1  0.61111103  0.49999996  0.00000005  1
  S  S96  1  0.66666678  0.00000001  -0.00000002  1
  S  S97  1  0.66666678  0.50000001  0.49999998  1
  S  S98  1  0.72222202  -0.00000009  0.50000002  1
  S  S99  1  0.72222203  0.50000008  -0.00000004  1
  S  S100  1  0.77777797  -0.00000005  -0.00000001  1
  S  S101  1  0.77777797  0.50000007  0.50000002  1
  S  S102  1  0.83333322  -0.00000008  0.49999996  1
  S  S103  1  0.83333322  0.50000005  0.00000005  1
  S  S104  1  0.88888897  -0.00000004  0.00000002  1
  S  S105  1  0.88888897  0.50000003  0.49999996  1
  S  S106  1  0.94444425  -0.00000003  0.49999997  1
  S  S107  1  0.94444425  0.50000005  0.00000002  1
