# generated using pymatgen
data_Li2S
_symmetry_space_group_name_H-M   'P 1'
_cell_length_a   5.70032500
_cell_length_b   8.06147700
_cell_length_c   56.39854445
_cell_angle_alpha   90.00000000
_cell_angle_beta   90.00000000
_cell_angle_gamma   90.00000000
_symmetry_Int_Tables_number   1
_chemical_formula_structural   Li2S
_chemical_formula_sum   'Li112 S56'
_cell_volume   2591.68450586
_cell_formula_units_Z   56
loop_
 _symmetry_equiv_pos_site_id
 _symmetry_equiv_pos_as_xyz
  1  'x, y, z'
loop_
 _atom_site_type_symbol
 _atom_site_label
 _atom_site_symmetry_multiplicity
 _atom_site_fract_x
 _atom_site_fract_y
 _atom_site_fract_z
 _atom_site_occupancy
  Li  Li0  1  0.75006166  0.62500116  0.01768439  1
  Li  Li1  1  0.24993834  0.12500115  0.01768438  1
  Li  Li2  1  0.74937865  0.37500109  0.05364982  1
  Li  Li3  1  0.25062132  0.87500114  0.05364980  1
  Li  Li4  1  0.75006164  0.12500115  0.01768439  1
  Li  Li5  1  0.24993833  0.62500116  0.01768437  1
  Li  Li6  1  0.74937865  0.87500113  0.05364981  1
  Li  Li7  1  0.25062131  0.37500110  0.05364981  1
  Li  Li8  1  0.75016163  0.12500116  0.08917427  1
  Li  Li9  1  0.24983840  0.62500114  0.08917425  1
  Li  Li10  1  0.74993934  0.87500111  0.12509510  1
  Li  Li11  1  0.25006063  0.37500112  0.12509511  1
  Li  Li12  1  0.75016163  0.62500117  0.08917427  1
  Li  Li13  1  0.24983842  0.12500116  0.08917425  1
  Li  Li14  1  0.74993932  0.37500113  0.12509510  1
  Li  Li15  1  0.25006062  0.87500112  0.12509511  1
  Li  Li16  1  0.75026630  0.62500115  0.16091403  1
  Li  Li17  1  0.24973373  0.12500116  0.16091402  1
  Li  Li18  1  0.74992419  0.37500111  0.19672615  1
  Li  Li19  1  0.25007583  0.87500112  0.19672617  1
  Li  Li20  1  0.75026629  0.12500115  0.16091403  1
  Li  Li21  1  0.24973372  0.62500114  0.16091402  1
  Li  Li22  1  0.74992419  0.87500111  0.19672615  1
  Li  Li23  1  0.25007583  0.37500110  0.19672617  1
  Li  Li24  1  0.75055236  0.12500112  0.23239911  1
  Li  Li25  1  0.24944765  0.62500112  0.23239911  1
  Li  Li26  1  0.74944766  0.87500114  0.26760111  1
  Li  Li27  1  0.25055231  0.37500113  0.26760111  1
  Li  Li28  1  0.75055237  0.62500112  0.23239911  1
  Li  Li29  1  0.24944766  0.12500114  0.23239911  1
  Li  Li30  1  0.74944768  0.37500114  0.26760111  1
  Li  Li31  1  0.25055232  0.87500114  0.26760111  1
  Li  Li32  1  0.75007578  0.62500115  0.30327404  1
  Li  Li33  1  0.24992423  0.12500111  0.30327402  1
  Li  Li34  1  0.74973391  0.37500118  0.33908617  1
  Li  Li35  1  0.25026616  0.87500123  0.33908617  1
  Li  Li36  1  0.75007576  0.12500110  0.30327404  1
  Li  Li37  1  0.24992419  0.62500115  0.30327402  1
  Li  Li38  1  0.74973387  0.87500122  0.33908617  1
  Li  Li39  1  0.25026609  0.37500118  0.33908618  1
  Li  Li40  1  0.75006138  0.12500096  0.37490502  1
  Li  Li41  1  0.24993885  0.62500081  0.37490504  1
  Li  Li42  1  0.74983610  0.87499916  0.41082536  1
  Li  Li43  1  0.25016372  0.37499879  0.41082538  1
  Li  Li44  1  0.75006116  0.62500081  0.37490506  1
  Li  Li45  1  0.24993864  0.12500096  0.37490501  1
  Li  Li46  1  0.74983636  0.37499881  0.41082537  1
  Li  Li47  1  0.25016399  0.87499916  0.41082535  1
  Li  Li48  1  0.75062144  0.62499331  0.44634971  1
  Li  Li49  1  0.24937913  0.12499330  0.44634970  1
  Li  Li50  1  0.74994084  0.37499888  0.48231532  1
  Li  Li51  1  0.25005887  0.87499920  0.48231530  1
  Li  Li52  1  0.75062095  0.12499325  0.44634971  1
  Li  Li53  1  0.24937867  0.62499326  0.44634971  1
  Li  Li54  1  0.74994108  0.87499919  0.48231528  1
  Li  Li55  1  0.25005922  0.37499886  0.48231533  1
  Li  Li56  1  0.24993897  0.12500081  0.51768428  1
  Li  Li57  1  0.75006083  0.62500098  0.51768428  1
  Li  Li58  1  0.25062152  0.37500112  0.55364979  1
  Li  Li59  1  0.74937855  0.87500120  0.55364978  1
  Li  Li60  1  0.24993919  0.62500100  0.51768426  1
  Li  Li61  1  0.75006106  0.12500084  0.51768430  1
  Li  Li62  1  0.25062148  0.87500121  0.55364978  1
  Li  Li63  1  0.74937849  0.37500111  0.55364980  1
  Li  Li64  1  0.24983844  0.62500115  0.58917424  1
  Li  Li65  1  0.75016155  0.12500120  0.58917424  1
  Li  Li66  1  0.25006064  0.87500112  0.62509510  1
  Li  Li67  1  0.74993933  0.37500113  0.62509509  1
  Li  Li68  1  0.24983845  0.12500119  0.58917423  1
  Li  Li69  1  0.75016159  0.62500116  0.58917424  1
  Li  Li70  1  0.25006065  0.37500115  0.62509510  1
  Li  Li71  1  0.74993933  0.87500113  0.62509509  1
  Li  Li72  1  0.24973360  0.12500119  0.66091402  1
  Li  Li73  1  0.75026638  0.62500113  0.66091403  1
  Li  Li74  1  0.25007577  0.37500106  0.69672614  1
  Li  Li75  1  0.74992431  0.87500117  0.69672614  1
  Li  Li76  1  0.24973363  0.62500112  0.66091402  1
  Li  Li77  1  0.75026638  0.12500119  0.66091403  1
  Li  Li78  1  0.25007571  0.87500117  0.69672616  1
  Li  Li79  1  0.74992424  0.37500106  0.69672611  1
  Li  Li80  1  0.24944767  0.62500121  0.73239913  1
  Li  Li81  1  0.75055255  0.12500108  0.73239912  1
  Li  Li82  1  0.25055203  0.87500118  0.76760112  1
  Li  Li83  1  0.74944749  0.37500128  0.76760108  1
  Li  Li84  1  0.24944742  0.12500109  0.73239911  1
  Li  Li85  1  0.75055225  0.62500123  0.73239913  1
  Li  Li86  1  0.25055256  0.37500127  0.76760107  1
  Li  Li87  1  0.74944777  0.87500117  0.76760111  1
  Li  Li88  1  0.24992411  0.12500088  0.80327408  1
  Li  Li89  1  0.75007581  0.62500085  0.80327409  1
  Li  Li90  1  0.25026626  0.37500125  0.83908622  1
  Li  Li91  1  0.74973320  0.87500118  0.83908625  1
  Li  Li92  1  0.24992410  0.62500095  0.80327407  1
  Li  Li93  1  0.75007607  0.12500098  0.80327409  1
  Li  Li94  1  0.25026670  0.87500127  0.83908625  1
  Li  Li95  1  0.74973387  0.37500132  0.83908620  1
  Li  Li96  1  0.24993933  0.62500107  0.87490511  1
  Li  Li97  1  0.75006077  0.12500120  0.87490517  1
  Li  Li98  1  0.25016145  0.87500123  0.91082608  1
  Li  Li99  1  0.74983844  0.37500111  0.91082608  1
  Li  Li100  1  0.24993925  0.12500121  0.87490514  1
  Li  Li101  1  0.75006044  0.62500110  0.87490512  1
  Li  Li102  1  0.25016146  0.37500110  0.91082608  1
  Li  Li103  1  0.74983843  0.87500122  0.91082608  1
  Li  Li104  1  0.24937866  0.12500107  0.94635048  1
  Li  Li105  1  0.75062134  0.62500117  0.94635048  1
  Li  Li106  1  0.25006157  0.37500117  0.98231598  1
  Li  Li107  1  0.74993847  0.87500116  0.98231596  1
  Li  Li108  1  0.24937866  0.62500116  0.94635049  1
  Li  Li109  1  0.75062136  0.12500107  0.94635048  1
  Li  Li110  1  0.25006153  0.87500115  0.98231598  1
  Li  Li111  1  0.74993845  0.37500116  0.98231596  1
  S  S112  1  0.50000006  0.62500141  0.05347476  1
  S  S113  1  0.99999994  0.87500146  0.01789385  1
  S  S114  1  0.99999993  0.37500146  0.01789385  1
  S  S115  1  0.50000005  0.12500149  0.05347476  1
  S  S116  1  0.49999997  0.12500146  0.12507856  1
  S  S117  1  0.00000008  0.37500142  0.08933668  1
  S  S118  1  0.00000007  0.87500141  0.08933668  1
  S  S119  1  0.49999996  0.62500147  0.12507855  1
  S  S120  1  0.49999996  0.62500145  0.19669444  1
  S  S121  1  0.00000000  0.87500144  0.16091334  1
  S  S122  1  0.00000003  0.37500142  0.16091334  1
  S  S123  1  0.50000000  0.12500145  0.19669444  1
  S  S124  1  0.50000003  0.12500143  0.26774740  1
  S  S125  1  0.99999999  0.37500143  0.23225270  1
  S  S126  1  0.99999998  0.87500143  0.23225270  1
  S  S127  1  0.50000003  0.62500140  0.26774739  1
  S  S128  1  0.50000006  0.62500163  0.33908678  1
  S  S129  1  0.00000003  0.87500148  0.30330566  1
  S  S130  1  0.00000002  0.37500146  0.30330565  1
  S  S131  1  0.50000000  0.12500146  0.33908681  1
  S  S132  1  0.49999991  0.12499763  0.41066364  1
  S  S133  1  0.00000010  0.37500136  0.37492143  1
  S  S134  1  1.00000000  0.87500136  0.37492143  1
  S  S135  1  0.49999995  0.62499754  0.41066376  1
  S  S136  1  0.49999998  0.62499758  0.48210637  1
  S  S137  1  0.99999984  0.87493045  0.44652148  1
  S  S138  1  0.00000006  0.37492921  0.44652151  1
  S  S139  1  0.49999997  0.12499745  0.48210648  1
  S  S140  1  0.50000005  0.12500165  0.55347472  1
  S  S141  1  0.99999998  0.87500139  0.51789377  1
  S  S142  1  0.00000009  0.37500134  0.51789378  1
  S  S143  1  0.50000003  0.62500144  0.55347475  1
  S  S144  1  0.49999998  0.62500149  0.62507855  1
  S  S145  1  0.00000004  0.37500141  0.58933664  1
  S  S146  1  0.00000003  0.87500146  0.58933666  1
  S  S147  1  0.50000002  0.12500143  0.62507854  1
  S  S148  1  0.49999999  0.12500154  0.69669450  1
  S  S149  1  0.99999999  0.87500140  0.66091334  1
  S  S150  1  0.00000002  0.37500143  0.66091337  1
  S  S151  1  0.49999999  0.62500129  0.69669448  1
  S  S152  1  0.49999996  0.62500178  0.76774740  1
  S  S153  1  0.99999990  0.37500137  0.73225272  1
  S  S154  1  0.99999995  0.87500159  0.73225273  1
  S  S155  1  0.50000004  0.12500153  0.76774736  1
  S  S156  1  0.50000007  0.12500176  0.83908679  1
  S  S157  1  0.99999994  0.87500167  0.80330565  1
  S  S158  1  0.00000010  0.37500084  0.80330560  1
  S  S159  1  0.49999999  0.62500156  0.83908676  1
  S  S160  1  0.49999993  0.62500146  0.91066335  1
  S  S161  1  0.99999997  0.37500139  0.87492153  1
  S  S162  1  0.00000000  0.87500162  0.87492153  1
  S  S163  1  0.49999994  0.12500131  0.91066331  1
  S  S164  1  0.49999999  0.12500147  0.98210603  1
  S  S165  1  0.00000004  0.87500139  0.94652514  1
  S  S166  1  0.00000002  0.37500148  0.94652516  1
  S  S167  1  0.49999998  0.62500143  0.98210602  1
