# generated using pymatgen
data_Li2S
_symmetry_space_group_name_H-M   'P 1'
_cell_length_a   8.06147700
_cell_length_b   8.06147736
_cell_length_c   52.71383157
_cell_angle_alpha   90.00000000
_cell_angle_beta   90.00000000
_cell_angle_gamma   59.99999737
_symmetry_Int_Tables_number   1
_chemical_formula_structural   Li2S
_chemical_formula_sum   'Li128 S64'
_cell_volume   2966.77398840
_cell_formula_units_Z   64
loop_
 _symmetry_equiv_pos_site_id
 _symmetry_equiv_pos_as_xyz
  1  'x, y, z'
loop_
 _atom_site_type_symbol
 _atom_site_label
 _atom_site_symmetry_multiplicity
 _atom_site_fract_x
 _atom_site_fract_y
 _atom_site_fract_z
 _atom_site_occupancy
  Li  Li0  1  0.99999902  0.99999901  0.04673887  1
  Li  Li1  1  0.66666632  0.66666630  0.01619670  1
  Li  Li2  1  0.16666632  0.16666631  0.01619669  1
  Li  Li3  1  0.49999902  0.49999902  0.04673887  1
  Li  Li4  1  0.49999902  0.99999901  0.04673887  1
  Li  Li5  1  0.16666631  0.66666632  0.01619670  1
  Li  Li6  1  0.66666631  0.16666631  0.01619670  1
  Li  Li7  1  0.99999901  0.49999902  0.04673887  1
  Li  Li8  1  0.66666307  0.66666306  0.10951181  1
  Li  Li9  1  0.33333135  0.33333135  0.07823942  1
  Li  Li10  1  0.83333134  0.83333134  0.07823941  1
  Li  Li11  1  0.16666307  0.16666308  0.10951180  1
  Li  Li12  1  0.16666307  0.66666307  0.10951179  1
  Li  Li13  1  0.83333134  0.33333135  0.07823941  1
  Li  Li14  1  0.33333136  0.83333134  0.07823941  1
  Li  Li15  1  0.66666307  0.16666308  0.10951179  1
  Li  Li16  1  0.33332457  0.33332458  0.17206504  1
  Li  Li17  1  0.99999044  0.99999044  0.14067062  1
  Li  Li18  1  0.49999045  0.49999045  0.14067062  1
  Li  Li19  1  0.83332457  0.83332456  0.17206504  1
  Li  Li20  1  0.83332457  0.33332460  0.17206505  1
  Li  Li21  1  0.49999045  0.99999045  0.14067061  1
  Li  Li22  1  0.99999045  0.49999045  0.14067062  1
  Li  Li23  1  0.33332459  0.83332458  0.17206505  1
  Li  Li24  1  0.00000039  0.00000040  0.23431195  1
  Li  Li25  1  0.66666551  0.66666550  0.20295016  1
  Li  Li26  1  0.16666552  0.16666551  0.20295014  1
  Li  Li27  1  0.50000039  0.50000039  0.23431195  1
  Li  Li28  1  0.50000040  0.00000041  0.23431195  1
  Li  Li29  1  0.16666550  0.66666551  0.20295013  1
  Li  Li30  1  0.66666551  0.16666550  0.20295013  1
  Li  Li31  1  0.00000041  0.50000040  0.23431195  1
  Li  Li32  1  0.66666998  0.66666997  0.29700197  1
  Li  Li33  1  0.33333356  0.33333357  0.26554611  1
  Li  Li34  1  0.83333358  0.83333356  0.26554611  1
  Li  Li35  1  0.16666996  0.16666999  0.29700196  1
  Li  Li36  1  0.16666997  0.66666996  0.29700196  1
  Li  Li37  1  0.83333358  0.33333358  0.26554611  1
  Li  Li38  1  0.33333357  0.83333357  0.26554611  1
  Li  Li39  1  0.66666996  0.16666998  0.29700198  1
  Li  Li40  1  0.33334501  0.33334501  0.35929226  1
  Li  Li41  1  0.00011235  0.00011235  0.32787834  1
  Li  Li42  1  0.50011233  0.50011234  0.32787834  1
  Li  Li43  1  0.83334502  0.83334500  0.35929226  1
  Li  Li44  1  0.83334501  0.33334500  0.35929226  1
  Li  Li45  1  0.50011233  0.00011233  0.32787834  1
  Li  Li46  1  0.00011235  0.50011231  0.32787835  1
  Li  Li47  1  0.33334500  0.83334500  0.35929227  1
  Li  Li48  1  0.00000346  0.00000347  0.42195776  1
  Li  Li49  1  0.66666916  0.66666916  0.39039246  1
  Li  Li50  1  0.16666917  0.16666916  0.39039246  1
  Li  Li51  1  0.50000347  0.50000347  0.42195776  1
  Li  Li52  1  0.50000348  0.00000346  0.42195776  1
  Li  Li53  1  0.16666917  0.66666915  0.39039246  1
  Li  Li54  1  0.66666916  0.16666916  0.39039246  1
  Li  Li55  1  0.00000346  0.50000347  0.42195776  1
  Li  Li56  1  0.66668053  0.66668053  0.48414740  1
  Li  Li57  1  0.33334574  0.33334573  0.45291943  1
  Li  Li58  1  0.83334573  0.83334574  0.45291943  1
  Li  Li59  1  0.16668053  0.16668054  0.48414740  1
  Li  Li60  1  0.16668053  0.66668053  0.48414740  1
  Li  Li61  1  0.83334574  0.33334573  0.45291943  1
  Li  Li62  1  0.33334573  0.83334574  0.45291943  1
  Li  Li63  1  0.66668053  0.16668054  0.48414740  1
  Li  Li64  1  0.00000215  0.50000216  0.54673838  1
  Li  Li65  1  0.33333426  0.83333427  0.51619530  1
  Li  Li66  1  0.83333426  0.33333427  0.51619530  1
  Li  Li67  1  0.50000215  0.00000216  0.54673838  1
  Li  Li68  1  0.50000215  0.50000217  0.54673838  1
  Li  Li69  1  0.83333426  0.83333427  0.51619530  1
  Li  Li70  1  0.33333426  0.33333427  0.51619531  1
  Li  Li71  1  0.00000217  0.00000215  0.54673838  1
  Li  Li72  1  0.33333627  0.83333626  0.60951182  1
  Li  Li73  1  0.66666960  0.16666960  0.57823924  1
  Li  Li74  1  0.16666960  0.66666960  0.57823925  1
  Li  Li75  1  0.83333626  0.33333627  0.60951182  1
  Li  Li76  1  0.83333627  0.83333625  0.60951182  1
  Li  Li77  1  0.16666960  0.16666961  0.57823925  1
  Li  Li78  1  0.66666961  0.66666960  0.57823925  1
  Li  Li79  1  0.33333627  0.33333626  0.60951183  1
  Li  Li80  1  0.66666733  0.16666733  0.67206486  1
  Li  Li81  1  0.00000083  0.50000086  0.64067040  1
  Li  Li82  1  0.50000085  0.00000084  0.64067040  1
  Li  Li83  1  0.16666732  0.66666734  0.67206485  1
  Li  Li84  1  0.16666732  0.16666733  0.67206485  1
  Li  Li85  1  0.50000086  0.50000087  0.64067040  1
  Li  Li86  1  0.00000085  0.00000086  0.64067041  1
  Li  Li87  1  0.66666733  0.66666734  0.67206487  1
  Li  Li88  1  0.00000057  0.50000057  0.73431195  1
  Li  Li89  1  0.33333407  0.83333410  0.70295003  1
  Li  Li90  1  0.83333410  0.33333408  0.70295003  1
  Li  Li91  1  0.50000057  0.00000058  0.73431195  1
  Li  Li92  1  0.50000056  0.50000057  0.73431195  1
  Li  Li93  1  0.83333410  0.83333409  0.70295003  1
  Li  Li94  1  0.33333408  0.33333409  0.70295003  1
  Li  Li95  1  0.00000057  0.00000056  0.73431195  1
  Li  Li96  1  0.33332903  0.83332905  0.79700237  1
  Li  Li97  1  0.66666729  0.16666727  0.76554610  1
  Li  Li98  1  0.16666728  0.66666728  0.76554611  1
  Li  Li99  1  0.83332905  0.33332905  0.79700237  1
  Li  Li100  1  0.83332906  0.83332905  0.79700237  1
  Li  Li101  1  0.16666727  0.16666728  0.76554611  1
  Li  Li102  1  0.66666729  0.66666728  0.76554611  1
  Li  Li103  1  0.33332905  0.33332905  0.79700237  1
  Li  Li104  1  0.66665431  0.16665432  0.85929216  1
  Li  Li105  1  0.99986336  0.49986336  0.82787350  1
  Li  Li106  1  0.49986334  0.99986336  0.82787350  1
  Li  Li107  1  0.16665430  0.66665431  0.85929216  1
  Li  Li108  1  0.16665430  0.16665431  0.85929216  1
  Li  Li109  1  0.49986334  0.49986337  0.82787350  1
  Li  Li110  1  0.99986336  0.99986336  0.82787351  1
  Li  Li111  1  0.66665431  0.66665431  0.85929215  1
  Li  Li112  1  0.00000017  0.50000018  0.92196452  1
  Li  Li113  1  0.33333181  0.83333181  0.89039312  1
  Li  Li114  1  0.83333180  0.33333182  0.89039312  1
  Li  Li115  1  0.50000019  0.00000017  0.92196452  1
  Li  Li116  1  0.50000017  0.50000017  0.92196452  1
  Li  Li117  1  0.83333181  0.83333183  0.89039312  1
  Li  Li118  1  0.33333182  0.33333182  0.89039312  1
  Li  Li119  1  0.00000016  0.00000017  0.92196452  1
  Li  Li120  1  0.33333359  0.83333359  0.98415720  1
  Li  Li121  1  0.66666677  0.16666677  0.95292753  1
  Li  Li122  1  0.16666676  0.66666678  0.95292753  1
  Li  Li123  1  0.83333359  0.33333359  0.98415719  1
  Li  Li124  1  0.83333360  0.83333360  0.98415720  1
  Li  Li125  1  0.16666678  0.16666677  0.95292753  1
  Li  Li126  1  0.66666677  0.66666676  0.95292754  1
  Li  Li127  1  0.33333358  0.33333359  0.98415719  1
  S  S128  1  0.83333233  0.33333228  0.03139787  1
  S  S129  1  0.83333233  0.83333231  0.03139787  1
  S  S130  1  0.33333231  0.83333230  0.03139787  1
  S  S131  1  0.33333231  0.33333232  0.03139786  1
  S  S132  1  0.49999619  0.99999620  0.09375289  1
  S  S133  1  0.49999621  0.49999620  0.09375289  1
  S  S134  1  0.99999619  0.49999619  0.09375289  1
  S  S135  1  0.99999622  0.99999621  0.09375290  1
  S  S136  1  0.16662255  0.66662256  0.15623969  1
  S  S137  1  0.16662255  0.16662256  0.15623969  1
  S  S138  1  0.66662256  0.16662253  0.15623968  1
  S  S139  1  0.66662255  0.66662253  0.15623969  1
  S  S140  1  0.83333258  0.33333258  0.21873037  1
  S  S141  1  0.83333257  0.83333257  0.21873037  1
  S  S142  1  0.33333256  0.83333259  0.21873037  1
  S  S143  1  0.33333259  0.33333256  0.21873037  1
  S  S144  1  0.50000222  0.00000221  0.28111152  1
  S  S145  1  0.50000222  0.50000222  0.28111153  1
  S  S146  1  0.00000224  0.50000223  0.28111152  1
  S  S147  1  0.00000224  0.00000222  0.28111152  1
  S  S148  1  0.16671725  0.66671725  0.34361139  1
  S  S149  1  0.16671723  0.16671728  0.34361138  1
  S  S150  1  0.66671728  0.16671720  0.34361139  1
  S  S151  1  0.66671731  0.66671721  0.34361138  1
  S  S152  1  0.83333785  0.33333785  0.40610707  1
  S  S153  1  0.83333784  0.83333785  0.40610708  1
  S  S154  1  0.33333787  0.83333785  0.40610708  1
  S  S155  1  0.33333785  0.33333784  0.40610707  1
  S  S156  1  0.50005107  0.00005108  0.46920058  1
  S  S157  1  0.50005106  0.50005109  0.46920058  1
  S  S158  1  0.00005109  0.50005108  0.46920057  1
  S  S159  1  0.00005109  0.00005106  0.46920058  1
  S  S160  1  0.16667040  0.16667041  0.53139506  1
  S  S161  1  0.16667039  0.66667041  0.53139506  1
  S  S162  1  0.66667038  0.66667041  0.53139505  1
  S  S163  1  0.66667040  0.16667042  0.53139506  1
  S  S164  1  0.50000415  0.50000410  0.59375296  1
  S  S165  1  0.50000412  0.00000412  0.59375295  1
  S  S166  1  0.00000414  0.00000410  0.59375295  1
  S  S167  1  0.00000414  0.50000408  0.59375295  1
  S  S168  1  0.83333427  0.83333425  0.65623938  1
  S  S169  1  0.83333424  0.33333428  0.65623939  1
  S  S170  1  0.33333425  0.33333426  0.65623937  1
  S  S171  1  0.33333426  0.83333427  0.65623938  1
  S  S172  1  0.16666760  0.16666762  0.71873035  1
  S  S173  1  0.16666759  0.66666762  0.71873035  1
  S  S174  1  0.66666761  0.66666765  0.71873035  1
  S  S175  1  0.66666762  0.16666759  0.71873035  1
  S  S176  1  0.49999734  0.49999739  0.78111000  1
  S  S177  1  0.49999736  0.99999736  0.78111000  1
  S  S178  1  0.99999737  0.99999734  0.78111000  1
  S  S179  1  0.99999737  0.49999735  0.78111000  1
  S  S180  1  0.83327718  0.83327713  0.84360986  1
  S  S181  1  0.83327712  0.33327715  0.84360986  1
  S  S182  1  0.33327714  0.33327715  0.84360986  1
  S  S183  1  0.33327709  0.83327714  0.84360986  1
  S  S184  1  0.16666542  0.16666540  0.90611023  1
  S  S185  1  0.16666542  0.66666540  0.90611023  1
  S  S186  1  0.66666541  0.66666542  0.90611023  1
  S  S187  1  0.66666539  0.16666541  0.90611023  1
  S  S188  1  0.49999974  0.49999973  0.96924205  1
  S  S189  1  0.49999973  -0.00000024  0.96924205  1
  S  S190  1  -0.00000026  -0.00000025  0.96924205  1
  S  S191  1  -0.00000026  0.49999973  0.96924205  1
