# generated using pymatgen
data_Li2S
_symmetry_space_group_name_H-M   'P 1'
_cell_length_a   5.70032500
_cell_length_b   12.74631500
_cell_length_c   50.25281554
_cell_angle_alpha   90.00000000
_cell_angle_beta   90.00000000
_cell_angle_gamma   90.00000000
_symmetry_Int_Tables_number   1
_chemical_formula_structural   Li2S
_chemical_formula_sum   'Li152 S76'
_cell_volume   3651.27600924
_cell_formula_units_Z   76
loop_
 _symmetry_equiv_pos_site_id
 _symmetry_equiv_pos_as_xyz
  1  'x, y, z'
loop_
 _atom_site_type_symbol
 _atom_site_label
 _atom_site_symmetry_multiplicity
 _atom_site_fract_x
 _atom_site_fract_y
 _atom_site_fract_z
 _atom_site_occupancy
  Li  Li0  1  0.75964163  0.74829960  0.06078001  1
  Li  Li1  1  0.25944660  0.04038055  0.02763209  1
  Li  Li2  1  0.25660756  0.44846808  0.08388404  1
  Li  Li3  1  0.74299554  0.24829447  0.06097827  1
  Li  Li4  1  0.24374766  0.94845095  0.08387110  1
  Li  Li5  1  0.24170669  0.54027634  0.02766665  1
  Li  Li6  1  0.77383406  0.05420624  0.03835133  1
  Li  Li7  1  0.75624343  0.44742018  0.08503808  1
  Li  Li8  1  0.80067736  0.36097166  0.01654577  1
  Li  Li9  1  0.24944329  0.74995002  0.05785097  1
  Li  Li10  1  0.74422090  0.94717769  0.08504546  1
  Li  Li11  1  0.72766082  0.55447113  0.03828748  1
  Li  Li12  1  0.25162422  0.25003077  0.05788446  1
  Li  Li13  1  0.69910132  0.86111725  0.01659922  1
  Li  Li14  1  0.75024144  0.14700406  0.10983990  1
  Li  Li15  1  0.75058094  0.54815530  0.16061676  1
  Li  Li16  1  0.25029927  0.84767462  0.13514535  1
  Li  Li17  1  0.25528157  0.24753442  0.18630601  1
  Li  Li18  1  0.75026320  0.04814467  0.16062749  1
  Li  Li19  1  0.75027894  0.64741761  0.10975768  1
  Li  Li20  1  0.25211713  0.74832078  0.18626111  1
  Li  Li21  1  0.25332065  0.34787135  0.13517469  1
  Li  Li22  1  0.74998512  0.84731887  0.13521234  1
  Li  Li23  1  0.75530135  0.24768253  0.18633195  1
  Li  Li24  1  0.25006795  0.14783577  0.10949916  1
  Li  Li25  1  0.25095817  0.54829956  0.16057159  1
  Li  Li26  1  0.75216279  0.74826752  0.18625984  1
  Li  Li27  1  0.75438531  0.34781852  0.13543291  1
  Li  Li28  1  0.25041771  0.04819921  0.16056057  1
  Li  Li29  1  0.25040578  0.64781496  0.10948741  1
  Li  Li30  1  0.75348174  0.94817623  0.21166061  1
  Li  Li31  1  0.75275576  0.34818154  0.26246798  1
  Li  Li32  1  0.25048203  0.64787103  0.23701869  1
  Li  Li33  1  0.25035059  0.04894623  0.28777587  1
  Li  Li34  1  0.75291208  0.84813514  0.26245975  1
  Li  Li35  1  0.75352892  0.44843337  0.21163493  1
  Li  Li36  1  0.25024634  0.54835248  0.28776310  1
  Li  Li37  1  0.25032593  0.14783948  0.23705483  1
  Li  Li38  1  0.75029890  0.64784589  0.23703298  1
  Li  Li39  1  0.75035259  0.04836264  0.28776733  1
  Li  Li40  1  0.25348115  0.94843960  0.21164433  1
  Li  Li41  1  0.25285585  0.34811090  0.26246889  1
  Li  Li42  1  0.75032765  0.54894706  0.28776336  1
  Li  Li43  1  0.75050288  0.14777343  0.23705136  1
  Li  Li44  1  0.25276294  0.84816185  0.26247087  1
  Li  Li45  1  0.25362207  0.44815457  0.21166528  1
  Li  Li46  1  0.75265047  0.74938950  0.31325794  1
  Li  Li47  1  0.75167621  0.15073736  0.36378784  1
  Li  Li48  1  0.25139430  0.44962348  0.33854804  1
  Li  Li49  1  0.25645348  0.84952195  0.38994426  1
  Li  Li50  1  0.75134388  0.65037427  0.36393107  1
  Li  Li51  1  0.75117345  0.24842806  0.31315480  1
  Li  Li52  1  0.24375390  0.34941440  0.38996672  1
  Li  Li53  1  0.25215249  0.94903259  0.33849278  1
  Li  Li54  1  0.75011674  0.45006195  0.33837769  1
  Li  Li55  1  0.75631573  0.85055932  0.38852087  1
  Li  Li56  1  0.25331772  0.74768772  0.31327840  1
  Li  Li57  1  0.25136248  0.14920462  0.36447038  1
  Li  Li58  1  0.74424154  0.35052539  0.38856033  1
  Li  Li59  1  0.75232305  0.94982525  0.33843976  1
  Li  Li60  1  0.25147686  0.64918609  0.36447594  1
  Li  Li61  1  0.25107177  0.24918215  0.31344824  1
  Li  Li62  1  0.75765552  0.54904476  0.41317491  1
  Li  Li63  1  0.80110085  0.93610870  0.45715563  1
  Li  Li64  1  0.26035133  0.25798707  0.44640823  1
  Li  Li65  1  0.69886067  0.43618450  0.45715984  1
  Li  Li66  1  0.74330543  0.04942988  0.41310430  1
  Li  Li67  1  0.23869851  0.75830003  0.44641156  1
  Li  Li68  1  0.77789123  0.24308683  0.43512989  1
  Li  Li69  1  0.69313607  0.67932957  0.48694214  1
  Li  Li70  1  0.24965235  0.54779003  0.41614682  1
  Li  Li71  1  0.16386945  0.00144654  0.48698505  1
  Li  Li72  1  0.80779112  0.17885986  0.48708167  1
  Li  Li73  1  0.71939001  0.74293885  0.43474164  1
  Li  Li74  1  0.33606148  0.50146734  0.48697025  1
  Li  Li75  1  0.25049613  0.04822301  0.41623472  1
  Li  Li76  1  0.73969186  0.05072647  0.56078861  1
  Li  Li77  1  0.24172512  0.75776312  0.52779505  1
  Li  Li78  1  0.24395159  0.35059677  0.58394749  1
  Li  Li79  1  0.75983488  0.55068837  0.56079909  1
  Li  Li80  1  0.25533491  0.85037015  0.58393999  1
  Li  Li81  1  0.25821284  0.25777773  0.52780115  1
  Li  Li82  1  0.72373520  0.74421290  0.53870528  1
  Li  Li83  1  0.74499741  0.35284422  0.58512919  1
  Li  Li84  1  0.69537770  0.43772638  0.51706220  1
  Li  Li85  1  0.25015318  0.04875095  0.55804264  1
  Li  Li86  1  0.75462705  0.85275771  0.58513615  1
  Li  Li87  1  0.77605412  0.24424180  0.53869333  1
  Li  Li88  1  0.24974166  0.54884575  0.55804204  1
  Li  Li89  1  0.80503224  0.93747562  0.51714952  1
  Li  Li90  1  0.74851059  0.65262043  0.60993294  1
  Li  Li91  1  0.74640945  0.25198332  0.66052439  1
  Li  Li92  1  0.24965760  0.95178557  0.63493831  1
  Li  Li93  1  0.24575403  0.55264131  0.68599818  1
  Li  Li94  1  0.74617760  0.75207709  0.66065952  1
  Li  Li95  1  0.75073515  0.15261858  0.60994130  1
  Li  Li96  1  0.24586593  0.05330966  0.68572220  1
  Li  Li97  1  0.24696227  0.45155323  0.63522244  1
  Li  Li98  1  0.74882604  0.95184206  0.63525695  1
  Li  Li99  1  0.74580262  0.55266047  0.68604374  1
  Li  Li100  1  0.24992471  0.65114186  0.60960661  1
  Li  Li101  1  0.24742238  0.25202802  0.66039558  1
  Li  Li102  1  0.74594981  0.05254397  0.68596805  1
  Li  Li103  1  0.74672390  0.45184684  0.63528608  1
  Li  Li104  1  0.24580912  0.75211654  0.66029939  1
  Li  Li105  1  0.24901094  0.15212960  0.60922167  1
  Li  Li106  1  0.74662373  0.85322284  0.71125772  1
  Li  Li107  1  0.74967976  0.45175306  0.76220614  1
  Li  Li108  1  0.24852690  0.15265102  0.73651547  1
  Li  Li109  1  0.24884774  0.75155079  0.78747290  1
  Li  Li110  1  0.74949129  0.95249442  0.76204007  1
  Li  Li111  1  0.74656834  0.35324256  0.71124471  1
  Li  Li112  1  0.24991513  0.25035845  0.78749181  1
  Li  Li113  1  0.24842845  0.65261489  0.73656230  1
  Li  Li114  1  0.74848837  0.15262164  0.73653462  1
  Li  Li115  1  0.74981255  0.75041177  0.78746760  1
  Li  Li116  1  0.24651494  0.85329394  0.71121997  1
  Li  Li117  1  0.24971317  0.45179784  0.76220258  1
  Li  Li118  1  0.74969940  0.25035958  0.78748278  1
  Li  Li119  1  0.74851377  0.65264452  0.73654270  1
  Li  Li120  1  0.24979685  0.95257806  0.76204750  1
  Li  Li121  1  0.24667927  0.35299058  0.71132272  1
  Li  Li122  1  0.74981750  0.05061463  0.81288850  1
  Li  Li123  1  0.74886736  0.64938633  0.86335995  1
  Li  Li124  1  0.24972224  0.35180134  0.83815063  1
  Li  Li125  1  0.24495451  0.95172204  0.88971084  1
  Li  Li126  1  0.74654777  0.15003408  0.86345113  1
  Li  Li127  1  0.74983844  0.55081651  0.81282588  1
  Li  Li128  1  0.25442299  0.45188162  0.88970634  1
  Li  Li129  1  0.24986719  0.85181904  0.83816486  1
  Li  Li130  1  0.75011807  0.35145096  0.83801151  1
  Li  Li131  1  0.74541373  0.94985884  0.88837877  1
  Li  Li132  1  0.24970854  0.05066151  0.81292197  1
  Li  Li133  1  0.25000783  0.65134329  0.86375495  1
  Li  Li134  1  0.75322162  0.44968013  0.88835409  1
  Li  Li135  1  0.74890655  0.85132152  0.83807687  1
  Li  Li136  1  0.24663613  0.15152271  0.86378927  1
  Li  Li137  1  0.24988050  0.55113436  0.81291150  1
  Li  Li138  1  0.74059403  0.25080056  0.91251840  1
  Li  Li139  1  0.70229770  0.86177509  0.95725580  1
  Li  Li140  1  0.23989747  0.54227608  0.94595647  1
  Li  Li141  1  0.80116461  0.36374106  0.95665717  1
  Li  Li142  1  0.75763697  0.75097575  0.91263668  1
  Li  Li143  1  0.25972723  0.04287990  0.94567410  1
  Li  Li144  1  0.72385748  0.55781779  0.93476864  1
  Li  Li145  1  0.81247635  0.11953965  0.98690560  1
  Li  Li146  1  0.24889364  0.25337867  0.91569882  1
  Li  Li147  1  0.33755011  0.79876222  0.98691130  1
  Li  Li148  1  0.68742825  0.61949012  0.98690697  1
  Li  Li149  1  0.77482824  0.05702064  0.93475058  1
  Li  Li150  1  0.16192940  0.29767258  0.98680834  1
  Li  Li151  1  0.24827647  0.75277644  0.91577266  1
  S  S152  1  0.50491342  0.40018659  0.04655861  1
  S  S153  1  0.49838701  0.79798501  0.09729883  1
  S  S154  1  0.00345989  0.29809960  0.09736622  1
  S  S155  1  0.99631343  0.89998505  0.04646921  1
  S  S156  1  0.99336816  0.19811643  0.02314876  1
  S  S157  1  0.00696674  0.59677405  0.07107601  1
  S  S158  1  0.49441958  0.09662179  0.07111762  1
  S  S159  1  0.50788058  0.69837781  0.02314698  1
  S  S160  1  0.50223196  0.19768899  0.14789403  1
  S  S161  1  0.50183181  0.59816342  0.19885366  1
  S  S162  1  0.00229797  0.09796793  0.19886929  1
  S  S163  1  0.00091823  0.69773836  0.14786134  1
  S  S164  1  0.99948000  0.99796306  0.12259212  1
  S  S165  1  0.00320319  0.39805060  0.17354376  1
  S  S166  1  0.50130901  0.89815560  0.17348382  1
  S  S167  1  0.50253187  0.49800090  0.12260820  1
  S  S168  1  0.50172147  0.99835194  0.24977507  1
  S  S169  1  0.50124930  0.39868555  0.30048669  1
  S  S170  1  0.00234722  0.89854930  0.30047132  1
  S  S171  1  0.00159911  0.49839936  0.24977668  1
  S  S172  1  0.00202441  0.79814396  0.22435226  1
  S  S173  1  0.00145249  0.19869186  0.27514438  1
  S  S174  1  0.50162378  0.69864882  0.27511877  1
  S  S175  1  0.50278457  0.29797181  0.22439932  1
  S  S176  1  0.50221375  0.79923273  0.35122250  1
  S  S177  1  0.49518702  0.20111163  0.40278234  1
  S  S178  1  0.00553390  0.70098017  0.40280074  1
  S  S179  1  0.99994457  0.29968994  0.35121185  1
  S  S180  1  0.00124256  0.59933345  0.32604966  1
  S  S181  1  0.00308976  0.99965873  0.37651732  1
  S  S182  1  0.49843588  0.49958394  0.37655043  1
  S  S183  1  0.50109897  0.09926829  0.32604177  1
  S  S184  1  0.50782495  0.59973780  0.45084258  1
  S  S185  1  0.99194199  0.09975596  0.45087551  1
  S  S186  1  0.99669694  0.39765841  0.42731207  1
  S  S187  1  0.98197292  0.81611327  0.48721178  1
  S  S188  1  0.51860539  0.31587599  0.48715141  1
  S  S189  1  0.50327270  0.89793776  0.42725976  1
  S  S190  1  0.99619052  0.39878699  0.54660507  1
  S  S191  1  0.00093083  0.00140431  0.59734912  1
  S  S192  1  0.49707264  0.50131118  0.59740098  1
  S  S193  1  0.50337327  0.89868761  0.54662566  1
  S  S194  1  0.50716618  0.60075657  0.52320571  1
  S  S195  1  0.49441170  0.20259408  0.57114308  1
  S  S196  1  0.00480634  0.70241652  0.57122550  1
  S  S197  1  0.99299605  0.10064800  0.52328284  1
  S  S198  1  0.99709112  0.60205364  0.64778323  1
  S  S199  1  0.99720675  0.20275008  0.69856893  1
  S  S200  1  0.49678362  0.70271341  0.69860833  1
  S  S201  1  0.49808245  0.10228789  0.64762399  1
  S  S202  1  0.49946805  0.80155355  0.62256829  1
  S  S203  1  0.49690835  0.40237232  0.67329378  1
  S  S204  1  0.99745075  0.90250571  0.67322061  1
  S  S205  1  0.99785926  0.30174934  0.62255957  1
  S  S206  1  0.99839490  0.80221322  0.74935862  1
  S  S207  1  0.99965882  0.40120843  0.80009501  1
  S  S208  1  0.49933216  0.90141700  0.80005729  1
  S  S209  1  0.49862662  0.30184773  0.74941008  1
  S  S210  1  0.49757047  0.00273940  0.72390699  1
  S  S211  1  0.49886907  0.60185787  0.77476957  1
  S  S212  1  0.99922000  0.10179414  0.77474411  1
  S  S213  1  0.99771943  0.50251413  0.72403342  1
  S  S214  1  0.99857384  0.00114940  0.85091431  1
  S  S215  1  0.00474760  0.59955088  0.90229272  1
  S  S216  1  0.49343287  0.09974080  0.90228536  1
  S  S217  1  0.49992311  0.50102660  0.85087536  1
  S  S218  1  0.49896076  0.20087178  0.82563382  1
  S  S219  1  0.49785891  0.80107539  0.87610271  1
  S  S220  1  0.00046776  0.30122162  0.87608877  1
  S  S221  1  0.99953621  0.70099219  0.82563692  1
  S  S222  1  0.99137019  0.20020544  0.95042382  1
  S  S223  1  0.50681941  0.70017415  0.95054430  1
  S  S224  1  0.50294642  0.40295131  0.92688265  1
  S  S225  1  0.52074069  0.98349585  0.98690189  1
  S  S226  1  0.97976056  0.48359651  0.98694033  1
  S  S227  1  0.99610537  0.90273397  0.92695381  1
