# generated using pymatgen
data_Li2S
_symmetry_space_group_name_H-M   'P 1'
_cell_length_a   8.06147700
_cell_length_b   12.74631494
_cell_length_c   54.33996254
_cell_angle_alpha   90.00000000
_cell_angle_beta   90.00000000
_cell_angle_gamma   71.56504976
_symmetry_Int_Tables_number   1
_chemical_formula_structural   Li2S
_chemical_formula_sum   'Li216 S108'
_cell_volume   5297.12047204
_cell_formula_units_Z   108
loop_
 _symmetry_equiv_pos_site_id
 _symmetry_equiv_pos_as_xyz
  1  'x, y, z'
loop_
 _atom_site_type_symbol
 _atom_site_label
 _atom_site_symmetry_multiplicity
 _atom_site_fract_x
 _atom_site_fract_y
 _atom_site_fract_z
 _atom_site_occupancy
  Li  Li0  1  0.99616369  0.07026064  0.05040580  1
  Li  Li1  1  0.37917450  0.30213254  0.06610600  1
  Li  Li2  1  0.60398911  0.85558672  0.03368178  1
  Li  Li3  1  0.21463828  0.13100502  0.01877868  1
  Li  Li4  1  0.98809123  0.58827081  0.05132021  1
  Li  Li5  1  0.60542423  0.34837896  0.02537291  1
  Li  Li6  1  0.38158921  0.80074181  0.06704332  1
  Li  Li7  1  0.49598103  0.07034924  0.05043372  1
  Li  Li8  1  0.87916371  0.30212355  0.06610221  1
  Li  Li9  1  0.10399707  0.85560375  0.03368170  1
  Li  Li10  1  0.71472753  0.13075633  0.01875732  1
  Li  Li11  1  0.48809607  0.58826330  0.05130609  1
  Li  Li12  1  0.10540680  0.34841694  0.02537541  1
  Li  Li13  1  0.88144218  0.80076604  0.06703295  1
  Li  Li14  1  0.55070543  0.96547222  0.11879809  1
  Li  Li15  1  0.77105652  0.52180232  0.08296229  1
  Li  Li16  1  0.93640168  0.18767091  0.13594895  1
  Li  Li17  1  0.16134087  0.74326853  0.10106877  1
  Li  Li18  1  0.77078731  0.02113598  0.08394617  1
  Li  Li19  1  0.54767967  0.46689628  0.11738442  1
  Li  Li20  1  0.15767406  0.24490881  0.10035877  1
  Li  Li21  1  0.93872292  0.68755630  0.13592541  1
  Li  Li22  1  0.05064334  0.96545378  0.11880287  1
  Li  Li23  1  0.27088561  0.52184028  0.08293505  1
  Li  Li24  1  0.43640712  0.18767430  0.13595001  1
  Li  Li25  1  0.66185329  0.74329208  0.10113006  1
  Li  Li26  1  0.27076772  0.02113591  0.08394589  1
  Li  Li27  1  0.04771907  0.46689419  0.11738507  1
  Li  Li28  1  0.65767617  0.24491089  0.10036100  1
  Li  Li29  1  0.43869525  0.68754600  0.13591802  1
  Li  Li30  1  0.10584940  0.85413445  0.18850711  1
  Li  Li31  1  0.32440365  0.41071825  0.15302842  1
  Li  Li32  1  0.49605877  0.07618459  0.20588119  1
  Li  Li33  1  0.71582783  0.63202695  0.17058137  1
  Li  Li34  1  0.32909958  0.90978299  0.15369275  1
  Li  Li35  1  0.10429165  0.35396875  0.18800485  1
  Li  Li36  1  0.71639447  0.13255529  0.17059505  1
  Li  Li37  1  0.49433834  0.57611101  0.20552526  1
  Li  Li38  1  0.60574229  0.85412716  0.18851282  1
  Li  Li39  1  0.82441660  0.41069538  0.15302686  1
  Li  Li40  1  0.99606275  0.07617924  0.20587951  1
  Li  Li41  1  0.21571406  0.63206227  0.17060120  1
  Li  Li42  1  0.82874532  0.90985987  0.15387030  1
  Li  Li43  1  0.60426031  0.35397637  0.18800678  1
  Li  Li44  1  0.21638847  0.13253674  0.17059651  1
  Li  Li45  1  0.99405773  0.57605517  0.20549970  1
  Li  Li46  1  0.66104995  0.74136221  0.25832228  1
  Li  Li47  1  0.88244650  0.29880281  0.22337767  1
  Li  Li48  1  0.04970458  0.96382888  0.27603523  1
  Li  Li49  1  0.27074909  0.51934276  0.24078211  1
  Li  Li50  1  0.88538259  0.79706725  0.22345606  1
  Li  Li51  1  0.66050233  0.24198996  0.25837293  1
  Li  Li52  1  0.27216650  0.02017074  0.24103878  1
  Li  Li53  1  0.04940656  0.46401310  0.27604795  1
  Li  Li54  1  0.16106587  0.74135779  0.25832351  1
  Li  Li55  1  0.38245028  0.29881175  0.22337582  1
  Li  Li56  1  0.54970180  0.96383285  0.27603502  1
  Li  Li57  1  0.77078023  0.51933503  0.24078618  1
  Li  Li58  1  0.38537089  0.79707394  0.22345338  1
  Li  Li59  1  0.16049464  0.24198311  0.25837224  1
  Li  Li60  1  0.77216821  0.02017176  0.24103914  1
  Li  Li61  1  0.54911763  0.46429582  0.27605087  1
  Li  Li62  1  0.21596660  0.63103809  0.32893062  1
  Li  Li63  1  0.43789171  0.18550582  0.29371522  1
  Li  Li64  1  0.60424765  0.85310139  0.34612117  1
  Li  Li65  1  0.82732847  0.40817694  0.31103611  1
  Li  Li66  1  0.43765154  0.68570875  0.29354486  1
  Li  Li67  1  0.21643719  0.13027326  0.32892751  1
  Li  Li68  1  0.82731836  0.90804376  0.31104394  1
  Li  Li69  1  0.60448355  0.35289489  0.34606488  1
  Li  Li70  1  0.71600574  0.63103641  0.32893340  1
  Li  Li71  1  0.93787787  0.18551018  0.29371429  1
  Li  Li72  1  0.10423301  0.85310067  0.34611932  1
  Li  Li73  1  0.32734640  0.40817044  0.31103736  1
  Li  Li74  1  0.93751353  0.68564717  0.29349153  1
  Li  Li75  1  0.71643354  0.13027233  0.32892738  1
  Li  Li76  1  0.32730477  0.90805298  0.31104364  1
  Li  Li77  1  0.10456208  0.35285369  0.34605074  1
  Li  Li78  1  0.77405478  0.52010658  0.39861360  1
  Li  Li79  1  0.99404011  0.07464483  0.36399661  1
  Li  Li80  1  0.16098464  0.74291669  0.41659083  1
  Li  Li81  1  0.38511285  0.29594726  0.38124949  1
  Li  Li82  1  0.99518574  0.57491981  0.36389934  1
  Li  Li83  1  0.77103497  0.01979799  0.39918299  1
  Li  Li84  1  0.38316700  0.79728932  0.38160405  1
  Li  Li85  1  0.16094678  0.24256291  0.41669649  1
  Li  Li86  1  0.27400992  0.52018581  0.39861757  1
  Li  Li87  1  0.49403562  0.07465589  0.36399564  1
  Li  Li88  1  0.66062030  0.74274315  0.41657702  1
  Li  Li89  1  0.88513563  0.29594691  0.38123948  1
  Li  Li90  1  0.49515489  0.57494385  0.36389593  1
  Li  Li91  1  0.27087353  0.01978363  0.39918350  1
  Li  Li92  1  0.88325173  0.79728925  0.38162123  1
  Li  Li93  1  0.66206699  0.24290638  0.41668145  1
  Li  Li94  1  0.33062625  0.40963686  0.46586152  1
  Li  Li95  1  0.54873850  0.96523172  0.43466948  1
  Li  Li96  1  0.93982641  0.18742361  0.45163992  1
  Li  Li97  1  0.55326543  0.46297356  0.43278941  1
  Li  Li98  1  0.31650565  0.92980487  0.46834754  1
  Li  Li99  1  0.94413779  0.67597719  0.44820124  1
  Li  Li100  1  0.71282644  0.13757248  0.48564908  1
  Li  Li101  1  0.83058559  0.40965941  0.46586324  1
  Li  Li102  1  0.04842406  0.96521726  0.43506613  1
  Li  Li103  1  0.43947488  0.18734500  0.45154235  1
  Li  Li104  1  0.05330070  0.46294089  0.43279005  1
  Li  Li105  1  0.81623315  0.92980046  0.46835976  1
  Li  Li106  1  0.44430864  0.67602851  0.44826561  1
  Li  Li107  1  0.21302535  0.13755988  0.48570481  1
  Li  Li108  1  0.10499330  0.35082709  0.55048232  1
  Li  Li109  1  0.72111860  0.11985319  0.56653583  1
  Li  Li110  1  0.49916984  0.56520854  0.53405492  1
  Li  Li111  1  0.88554498  0.28968149  0.51881293  1
  Li  Li112  1  0.11345072  0.83426208  0.55176018  1
  Li  Li113  1  0.49454593  0.07245372  0.52555299  1
  Li  Li114  1  0.72081210  0.62100518  0.56693626  1
  Li  Li115  1  0.60500313  0.35082055  0.55048061  1
  Li  Li116  1  0.22112550  0.11984188  0.56654066  1
  Li  Li117  1  0.99915894  0.56521056  0.53405827  1
  Li  Li118  1  0.38552049  0.28967347  0.51881804  1
  Li  Li119  1  0.61346878  0.83427664  0.55175306  1
  Li  Li120  1  0.99443824  0.07244711  0.52556479  1
  Li  Li121  1  0.22112518  0.62094280  0.56693011  1
  Li  Li122  1  0.55215291  0.45645648  0.61899123  1
  Li  Li123  1  0.33108958  0.89956925  0.58353967  1
  Li  Li124  1  0.16312119  0.23545124  0.63634290  1
  Li  Li125  1  0.94100002  0.67867320  0.60121270  1
  Li  Li126  1  0.33018537  0.40153316  0.58419224  1
  Li  Li127  1  0.55247861  0.95671874  0.61798819  1
  Li  Li128  1  0.94176694  0.17900357  0.60062319  1
  Li  Li129  1  0.16328022  0.73580786  0.63619401  1
  Li  Li130  1  0.05214895  0.45645785  0.61898722  1
  Li  Li131  1  0.83118524  0.89951297  0.58353034  1
  Li  Li132  1  0.66311482  0.23545823  0.63634488  1
  Li  Li133  1  0.44099498  0.67869110  0.60121602  1
  Li  Li134  1  0.83018805  0.40153305  0.58419209  1
  Li  Li135  1  0.05202161  0.95641747  0.61801257  1
  Li  Li136  1  0.44175050  0.17903050  0.60062189  1
  Li  Li137  1  0.66325035  0.73583271  0.63619230  1
  Li  Li138  1  0.99620880  0.57084604  0.68863819  1
  Li  Li139  1  0.77429806  0.01317625  0.65346485  1
  Li  Li140  1  0.60581350  0.34910923  0.70625753  1
  Li  Li141  1  0.38510867  0.79262797  0.67110219  1
  Li  Li142  1  0.77381799  0.51382030  0.65381146  1
  Li  Li143  1  0.99565216  0.07023008  0.68828169  1
  Li  Li144  1  0.38353881  0.29190335  0.67094316  1
  Li  Li145  1  0.60615520  0.84898117  0.70623302  1
  Li  Li146  1  0.49570720  0.57114639  0.68882343  1
  Li  Li147  1  0.27415103  0.01325427  0.65342379  1
  Li  Li148  1  0.10578831  0.34909056  0.70625445  1
  Li  Li149  1  0.88508211  0.79247741  0.67117292  1
  Li  Li150  1  0.27399497  0.51376761  0.65381661  1
  Li  Li151  1  0.49546206  0.07028379  0.68828770  1
  Li  Li152  1  0.88343137  0.29166067  0.67096272  1
  Li  Li153  1  0.10612805  0.84899391  0.70623040  1
  Li  Li154  1  0.43869006  0.68326147  0.75884902  1
  Li  Li155  1  0.21724034  0.12634974  0.72357139  1
  Li  Li156  1  0.05026509  0.46166552  0.77647635  1
  Li  Li157  1  0.82797290  0.90500685  0.74123044  1
  Li  Li158  1  0.21736967  0.62720473  0.72362294  1
  Li  Li159  1  0.43802828  0.18366687  0.75880243  1
  Li  Li160  1  0.82827470  0.40501605  0.74120874  1
  Li  Li161  1  0.04974678  0.96147489  0.77637500  1
  Li  Li162  1  0.93887571  0.68309115  0.75886444  1
  Li  Li163  1  0.71656464  0.12678359  0.72362225  1
  Li  Li164  1  0.55025096  0.46166427  0.77648216  1
  Li  Li165  1  0.32799439  0.90498604  0.74123139  1
  Li  Li166  1  0.71746970  0.62720388  0.72362215  1
  Li  Li167  1  0.93808700  0.18365581  0.75879949  1
  Li  Li168  1  0.32823386  0.40501891  0.74120833  1
  Li  Li169  1  0.54975474  0.96145475  0.77638014  1
  Li  Li170  1  0.88251964  0.79541099  0.82895277  1
  Li  Li171  1  0.66069343  0.23960941  0.79377164  1
  Li  Li172  1  0.49387144  0.57298416  0.84648461  1
  Li  Li173  1  0.27150387  0.01870069  0.81146033  1
  Li  Li174  1  0.66067891  0.73936325  0.79382111  1
  Li  Li175  1  0.88274585  0.29687822  0.82901010  1
  Li  Li176  1  0.27137693  0.51861352  0.81148930  1
  Li  Li177  1  0.49543944  0.07339691  0.84611786  1
  Li  Li178  1  0.38241010  0.79534459  0.82891603  1
  Li  Li179  1  0.16080478  0.23949204  0.79378151  1
  Li  Li180  1  0.99378734  0.57317830  0.84657964  1
  Li  Li181  1  0.77141720  0.01869793  0.81143618  1
  Li  Li182  1  0.16050993  0.73960156  0.79378908  1
  Li  Li183  1  0.38284763  0.29612983  0.82898732  1
  Li  Li184  1  0.77142184  0.51865606  0.81148489  1
  Li  Li185  1  0.99422245  0.07468507  0.84594458  1
  Li  Li186  1  0.32690962  0.90806980  0.89846468  1
  Li  Li187  1  0.10294730  0.35235631  0.86404434  1
  Li  Li188  1  0.93800138  0.68535652  0.91651790  1
  Li  Li189  1  0.71725430  0.13092638  0.88121965  1
  Li  Li190  1  0.10315566  0.85250103  0.86382635  1
  Li  Li191  1  0.32678937  0.40805553  0.89906021  1
  Li  Li192  1  0.71570040  0.62973289  0.88162459  1
  Li  Li193  1  0.93764717  0.18602732  0.91641795  1
  Li  Li194  1  0.82719766  0.90806979  0.89849288  1
  Li  Li195  1  0.60285638  0.35237190  0.86404390  1
  Li  Li196  1  0.43795917  0.68536512  0.91651546  1
  Li  Li197  1  0.21723259  0.13092923  0.88121812  1
  Li  Li198  1  0.60327695  0.85220672  0.86389644  1
  Li  Li199  1  0.82705585  0.40808448  0.89905422  1
  Li  Li200  1  0.21569923  0.62996226  0.88164205  1
  Li  Li201  1  0.43761185  0.18603737  0.91642234  1
  Li  Li202  1  0.77120064  0.01798953  0.96542744  1
  Li  Li203  1  0.54974400  0.46185009  0.93480509  1
  Li  Li204  1  0.15999524  0.24063433  0.95148418  1
  Li  Li205  1  0.54771825  0.96580002  0.93267890  1
  Li  Li206  1  0.78145550  0.49665548  0.96866494  1
  Li  Li207  1  0.15388917  0.75200954  0.94781375  1
  Li  Li208  1  0.38516036  0.28694600  0.98574749  1
  Li  Li209  1  0.27113211  0.01804382  0.96538870  1
  Li  Li210  1  0.04949355  0.46203159  0.93504889  1
  Li  Li211  1  0.66001135  0.24062530  0.95147798  1
  Li  Li212  1  0.04769999  0.96580758  0.93267402  1
  Li  Li213  1  0.28168190  0.49663061  0.96865175  1
  Li  Li214  1  0.65367709  0.75202413  0.94777056  1
  Li  Li215  1  0.88512550  0.28695388  0.98574435  1
  S  S216  1  0.91342526  0.23255169  0.02614909  1
  S  S217  1  0.68740817  0.68925763  0.05722274  1
  S  S218  1  0.80157548  0.95964289  0.03993664  1
  S  S219  1  0.57353049  0.41490873  0.07303260  1
  S  S220  1  0.30162990  0.95971145  0.03994205  1
  S  S221  1  0.07352837  0.41491457  0.07303016  1
  S  S222  1  0.41347109  0.23257003  0.02615733  1
  S  S223  1  0.18741119  0.68924385  0.05718680  1
  S  S224  1  0.46487568  0.13231779  0.09300881  1
  S  S225  1  0.24322481  0.57680834  0.12689817  1
  S  S226  1  0.35568428  0.85449603  0.11024082  1
  S  S227  1  0.13079207  0.30004757  0.14423514  1
  S  S228  1  0.85563280  0.85456825  0.11027682  1
  S  S229  1  0.63072276  0.30005472  0.14425154  1
  S  S230  1  0.96488618  0.13230877  0.09300260  1
  S  S231  1  0.74328743  0.57671159  0.12689920  1
  S  S232  1  0.02255472  0.02115768  0.16243581  1
  S  S233  1  0.79911062  0.46518139  0.19696375  1
  S  S234  1  0.91057154  0.74292835  0.17971175  1
  S  S235  1  0.68885893  0.18741550  0.21464215  1
  S  S236  1  0.41061364  0.74297731  0.17969279  1
  S  S237  1  0.18884812  0.18742597  0.21464210  1
  S  S238  1  0.52255395  0.02116734  0.16243382  1
  S  S239  1  0.29909530  0.46521963  0.19696809  1
  S  S240  1  0.57844576  0.90883858  0.23232107  1
  S  S241  1  0.35507751  0.35293110  0.26736826  1
  S  S242  1  0.46627449  0.63035982  0.24970856  1
  S  S243  1  0.24363984  0.07493152  0.28495477  1
  S  S244  1  0.96626917  0.63032274  0.24970390  1
  S  S245  1  0.74363746  0.07491149  0.28495455  1
  S  S246  1  0.07844895  0.90883479  0.23231942  1
  S  S247  1  0.85499078  0.35296273  0.26736778  1
  S  S248  1  0.13269147  0.79696340  0.30241252  1
  S  S249  1  0.91081171  0.24108552  0.33750931  1
  S  S250  1  0.02163301  0.51983453  0.32003078  1
  S  S251  1  0.79963449  0.96323845  0.35535907  1
  S  S252  1  0.52160267  0.51986297  0.32003694  1
  S  S253  1  0.29962437  0.96323816  0.35535742  1
  S  S254  1  0.63269835  0.79697928  0.30241408  1
  S  S255  1  0.41081476  0.24109397  0.33750653  1
  S  S256  1  0.68836381  0.68745036  0.37286512  1
  S  S257  1  0.46720380  0.12968543  0.40774938  1
  S  S258  1  0.57898791  0.40836220  0.38963248  1
  S  S259  1  0.35620130  0.85147489  0.42671248  1
  S  S260  1  0.07895845  0.40832448  0.38964167  1
  S  S261  1  0.85629651  0.85143261  0.42670957  1
  S  S262  1  0.18837606  0.68744857  0.37286549  1
  S  S263  1  0.96726248  0.12951463  0.40779080  1
  S  S264  1  0.24506993  0.57638936  0.44237954  1
  S  S265  1  0.02141883  0.02039856  0.47836648  1
  S  S266  1  0.13269088  0.30292444  0.45953914  1
  S  S267  1  0.63281525  0.30295480  0.45951019  1
  S  S268  1  0.74504353  0.57635656  0.44237517  1
  S  S269  1  0.52121819  0.02057562  0.47826518  1
  S  S270  1  0.18646974  0.18818338  0.52641674  1
  S  S271  1  0.41431398  0.73265545  0.55732877  1
  S  S272  1  0.30064540  0.46138244  0.54006125  1
  S  S273  1  0.52753452  0.00713380  0.57353366  1
  S  S274  1  0.80063066  0.46138313  0.54006237  1
  S  S275  1  0.02749657  0.00712363  0.57353788  1
  S  S276  1  0.68643989  0.18820349  0.52639822  1
  S  S277  1  0.91429898  0.73261635  0.55733658  1
  S  S278  1  0.63592676  0.29031284  0.59328194  1
  S  S279  1  0.85774579  0.84639610  0.62735587  1
  S  S280  1  0.74623623  0.56817449  0.61035028  1
  S  S281  1  0.96887884  0.12385162  0.64462501  1
  S  S282  1  0.24626596  0.56817220  0.61035136  1
  S  S283  1  0.46889932  0.12391246  0.64462866  1
  S  S284  1  0.13592690  0.29030554  0.59327950  1
  S  S285  1  0.35771906  0.84645996  0.62733965  1
  S  S286  1  0.07864919  0.40295480  0.66268644  1
  S  S287  1  0.30086686  0.95945946  0.69740307  1
  S  S288  1  0.19045993  0.68165200  0.68004717  1
  S  S289  1  0.41131861  0.23754848  0.71498191  1
  S  S290  1  0.69044315  0.68162547  0.68004920  1
  S  S291  1  0.91140778  0.23749649  0.71498876  1
  S  S292  1  0.57861943  0.40305521  0.66272547  1
  S  S293  1  0.80074505  0.95952806  0.69742674  1
  S  S294  1  0.52274756  0.51630918  0.73266152  1
  S  S295  1  0.74391275  0.07237374  0.76764700  1
  S  S296  1  0.63332480  0.79416315  0.75013379  1
  S  S297  1  0.85549674  0.35098100  0.78523366  1
  S  S298  1  0.13327257  0.79415349  0.75011161  1
  S  S299  1  0.35546575  0.35094036  0.78522390  1
  S  S300  1  0.02278521  0.51631688  0.73261118  1
  S  S301  1  0.24398398  0.07232151  0.76764423  1
  S  S302  1  0.96621456  0.62865710  0.80283076  1
  S  S303  1  0.18862048  0.18563792  0.83759581  1
  S  S304  1  0.07681063  0.90675873  0.82018852  1
  S  S305  1  0.29858479  0.46330408  0.85548066  1
  S  S306  1  0.57690085  0.90658907  0.82020961  1
  S  S307  1  0.79855031  0.46338372  0.85548391  1
  S  S308  1  0.46614930  0.62865162  0.80281779  1
  S  S309  1  0.68844437  0.18566907  0.83758174  1
  S  S310  1  0.41015666  0.73968563  0.87284358  1
  S  S311  1  0.63179036  0.29825700  0.90768488  1
  S  S312  1  0.52178496  0.01940133  0.88953413  1
  S  S313  1  0.74245954  0.57603345  0.92677234  1
  S  S314  1  0.02167451  0.01953266  0.88948218  1
  S  S315  1  0.24244710  0.57593926  0.92677130  1
  S  S316  1  0.91019981  0.73972695  0.87285689  1
  S  S317  1  0.13175529  0.29830942  0.90771273  1
  S  S318  1  0.85470808  0.85172674  0.94215372  1
  S  S319  1  0.07676207  0.40560324  0.97850969  1
  S  S320  1  0.96779142  0.12474336  0.95918826  1
  S  S321  1  0.46779697  0.12471988  0.95919313  1
  S  S322  1  0.35455130  0.85174909  0.94212765  1
  S  S323  1  0.57686584  0.40545613  0.97845444  1
