# generated using pymatgen
data_Na3PS4
_symmetry_space_group_name_H-M   'P 1'
_cell_length_a   7.00642000
_cell_length_b   7.00642000
_cell_length_c   49.74814882
_cell_angle_alpha   90.00000000
_cell_angle_beta   90.00000000
_cell_angle_gamma   89.99858527
_symmetry_Int_Tables_number   1
_chemical_formula_structural   Na3PS4
_chemical_formula_sum   'Na42 P14 S56'
_cell_volume   2442.13270643
_cell_formula_units_Z   14
loop_
 _symmetry_equiv_pos_site_id
 _symmetry_equiv_pos_as_xyz
  1  'x, y, z'
loop_
 _atom_site_type_symbol
 _atom_site_label
 _atom_site_symmetry_multiplicity
 _atom_site_fract_x
 _atom_site_fract_y
 _atom_site_fract_z
 _atom_site_occupancy
  Na  Na0  1  0.49088937  0.49168633  0.02991000  1
  Na  Na1  1  0.48976964  0.46171407  0.09904962  1
  Na  Na2  1  0.48424794  0.95402895  0.10680533  1
  Na  Na3  1  0.99035430  0.55443811  0.03577978  1
  Na  Na4  1  0.98687304  0.04802719  0.03937171  1
  Na  Na5  1  0.47956685  0.49328631  0.16836969  1
  Na  Na6  1  0.48925126  0.48623356  0.23970544  1
  Na  Na7  1  0.49552278  0.98115440  0.24994268  1
  Na  Na8  1  0.97782083  0.51820301  0.17851066  1
  Na  Na9  1  0.98771200  0.01228166  0.18827550  1
  Na  Na10  1  0.98253106  0.99931787  0.11511893  1
  Na  Na11  1  0.48148116  0.48840756  0.31246640  1
  Na  Na12  1  0.48967976  0.44363067  0.38765172  1
  Na  Na13  1  0.49958709  0.93836609  0.39257441  1
  Na  Na14  1  0.98007533  0.51593948  0.32164997  1
  Na  Na15  1  0.99614054  0.00751991  0.33101098  1
  Na  Na16  1  0.99233586  0.99504139  0.26042204  1
  Na  Na17  1  0.48939798  0.50301788  0.46192415  1
  Na  Na18  1  0.99249924  0.58769370  0.46403576  1
  Na  Na19  1  0.00045224  0.09553505  0.46689216  1
  Na  Na20  1  0.00056140  0.99703603  0.40092045  1
  Na  Na21  1  0.11213461  0.01138288  0.53284703  1
  Na  Na22  1  0.01699240  0.01176698  0.59852784  1
  Na  Na23  1  0.95364026  0.51368615  0.60707124  1
  Na  Na24  1  0.60615703  0.00930347  0.53481325  1
  Na  Na25  1  0.52517535  0.50244187  0.54025217  1
  Na  Na26  1  0.02504041  0.00988920  0.66879504  1
  Na  Na27  1  0.00835849  0.02618497  0.74033942  1
  Na  Na28  1  0.99329664  0.53141781  0.75001789  1
  Na  Na29  1  0.53441577  0.00217551  0.67824851  1
  Na  Na30  1  0.50167050  0.50738916  0.68799768  1
  Na  Na31  1  0.46246906  0.51587598  0.61313230  1
  Na  Na32  1  0.00911406  0.00503721  0.81319083  1
  Na  Na33  1  0.00543707  0.04845297  0.88895767  1
  Na  Na34  1  0.99732687  0.55544687  0.89284935  1
  Na  Na35  1  0.50954331  0.96093669  0.82178196  1
  Na  Na36  1  0.50096488  0.46957997  0.83011682  1
  Na  Na37  1  0.49629876  0.50545960  0.76020840  1
  Na  Na38  1  0.99747127  0.98675092  0.96410886  1
  Na  Na39  1  0.49673886  0.89718343  0.96439176  1
  Na  Na40  1  0.49616135  0.38867903  0.96452257  1
  Na  Na41  1  0.49598661  0.49285384  0.89949444  1
  P  P42  1  0.48695014  0.99102415  0.03502887  1
  P  P43  1  0.99130555  0.49963000  0.10680832  1
  P  P44  1  0.48734030  0.99379931  0.17823225  1
  P  P45  1  0.98945970  0.49587172  0.25002082  1
  P  P46  1  0.49725112  0.98785734  0.32165964  1
  P  P47  1  0.98984667  0.49732071  0.39367740  1
  P  P48  1  0.50314572  0.00261557  0.46389961  1
  P  P49  1  0.02727502  0.51203505  0.53564604  1
  P  P50  1  0.51662082  0.01537126  0.60593411  1
  P  P51  1  0.00026713  0.50878318  0.67824556  1
  P  P52  1  0.50769412  0.00617259  0.75020394  1
  P  P53  1  0.99895534  0.50512885  0.82180352  1
  P  P54  1  0.50496246  0.99175717  0.89377656  1
  P  P55  1  0.99611620  0.48546532  0.96432405  1
  S  S56  1  0.65353507  0.14651017  0.00859146  1
  S  S57  1  0.15696498  0.68618212  0.08473774  1
  S  S58  1  0.34057229  0.17313300  0.06038286  1
  S  S59  1  0.66157466  0.81525104  0.05761274  1
  S  S60  1  0.29393602  0.82873837  0.01344221  1
  S  S61  1  0.84399914  0.31954200  0.08122551  1
  S  S62  1  0.66722373  0.14742697  0.15339512  1
  S  S63  1  0.14513095  0.68304908  0.22654714  1
  S  S64  1  0.34112484  0.17980664  0.20298846  1
  S  S65  1  0.16406582  0.34020986  0.13189016  1
  S  S66  1  0.64645704  0.80572502  0.20121415  1
  S  S67  1  0.79574842  0.65151281  0.12960941  1
  S  S68  1  0.29305850  0.84190514  0.15544355  1
  S  S69  1  0.83973139  0.30784291  0.22585827  1
  S  S70  1  0.67625448  0.14876481  0.29767899  1
  S  S71  1  0.16064117  0.67341581  0.37058681  1
  S  S72  1  0.34738037  0.16711993  0.34710871  1
  S  S73  1  0.17262168  0.34334003  0.27458723  1
  S  S74  1  0.65651605  0.79614565  0.34379746  1
  S  S75  1  0.79754812  0.64859546  0.27310581  1
  S  S76  1  0.30386070  0.84019754  0.29805933  1
  S  S77  1  0.84698417  0.30830721  0.36896639  1
  S  S78  1  0.65712938  0.16857063  0.43746653  1
  S  S79  1  0.36264888  0.17633586  0.49100174  1
  S  S80  1  0.15973087  0.34812450  0.42048961  1
  S  S81  1  0.68725567  0.82810484  0.48512358  1
  S  S82  1  0.79440498  0.65886923  0.41487632  1
  S  S83  1  0.30687199  0.84332400  0.44225104  1
  S  S84  1  0.85341657  0.33855560  0.51229537  1
  S  S85  1  0.36681872  0.84544147  0.57944962  1
  S  S86  1  0.17797791  0.34866456  0.56287273  1
  S  S87  1  0.86043898  0.70433138  0.55694229  1
  S  S88  1  0.21187255  0.65806126  0.51106559  1
  S  S89  1  0.67573419  0.21219160  0.58438897  1
  S  S90  1  0.81256601  0.34823070  0.65570112  1
  S  S91  1  0.34992986  0.82398354  0.72618470  1
  S  S92  1  0.15614469  0.33057157  0.70306182  1
  S  S93  1  0.33029571  0.15668618  0.63124631  1
  S  S94  1  0.84914227  0.70396974  0.70113585  1
  S  S95  1  0.69675045  0.84598338  0.62869043  1
  S  S96  1  0.18537396  0.65645275  0.65331666  1
  S  S97  1  0.65482781  0.19901042  0.72656802  1
  S  S98  1  0.82403298  0.34631558  0.79704518  1
  S  S99  1  0.33161218  0.81694992  0.87088704  1
  S  S100  1  0.14675999  0.32507114  0.84740367  1
  S  S101  1  0.32546990  0.15315335  0.77548967  1
  S  S102  1  0.83557754  0.69350243  0.84389550  1
  S  S103  1  0.69999285  0.84847436  0.77265234  1
  S  S104  1  0.19366806  0.65660985  0.79873497  1
  S  S105  1  0.65030319  0.17687270  0.86875503  1
  S  S106  1  0.84556106  0.31884426  0.93754479  1
  S  S107  1  0.14568714  0.31851306  0.99119893  1
  S  S108  1  0.33701023  0.14475123  0.92032578  1
  S  S109  1  0.80762115  0.65415843  0.98585537  1
  S  S110  1  0.69819680  0.82910868  0.91526563  1
  S  S111  1  0.18591243  0.65220422  0.94267525  1
