# generated using pymatgen
data_Na3PS4
_symmetry_space_group_name_H-M   'P 1'
_cell_length_a   7.00642000
_cell_length_b   7.16981502
_cell_length_c   49.08790993
_cell_angle_alpha   90.00000000
_cell_angle_beta   90.00000000
_cell_angle_gamma   90.00432327
_symmetry_Int_Tables_number   1
_chemical_formula_structural   Na3PS4
_chemical_formula_sum   'Na42 P14 S56'
_cell_volume   2465.91815731
_cell_formula_units_Z   14
loop_
 _symmetry_equiv_pos_site_id
 _symmetry_equiv_pos_as_xyz
  1  'x, y, z'
loop_
 _atom_site_type_symbol
 _atom_site_label
 _atom_site_symmetry_multiplicity
 _atom_site_fract_x
 _atom_site_fract_y
 _atom_site_fract_z
 _atom_site_occupancy
  Na  Na0  1  0.50353962  0.40278381  0.03543890  1
  Na  Na1  1  0.50389229  0.90257678  0.03567919  1
  Na  Na2  1  0.00470102  0.98768072  0.03616178  1
  Na  Na3  1  0.50400778  0.48794453  0.10674831  1
  Na  Na4  1  0.00322806  0.57321018  0.10716513  1
  Na  Na5  1  0.00265752  0.07305879  0.10732386  1
  Na  Na6  1  0.50037409  0.40462934  0.17845712  1
  Na  Na7  1  0.50049407  0.90441569  0.17854205  1
  Na  Na8  1  0.00026955  0.98888579  0.17879156  1
  Na  Na9  1  0.49913366  0.48876884  0.24996033  1
  Na  Na10  1  0.99940024  0.57399522  0.25001196  1
  Na  Na11  1  0.00001110  0.07414346  0.25000782  1
  Na  Na12  1  0.49869030  0.40430740  0.32153217  1
  Na  Na13  1  0.49843850  0.90410679  0.32142329  1
  Na  Na14  1  0.99839074  0.98859145  0.32124476  1
  Na  Na15  1  0.49590359  0.48784375  0.39322061  1
  Na  Na16  1  0.99647651  0.57337254  0.39282274  1
  Na  Na17  1  0.99719950  0.07318265  0.39268361  1
  Na  Na18  1  0.49651252  0.40310910  0.46450906  1
  Na  Na19  1  0.49623886  0.90283726  0.46431031  1
  Na  Na20  1  0.99530673  0.98760843  0.46383482  1
  Na  Na21  1  0.99667115  0.07190118  0.53549936  1
  Na  Na22  1  0.99631577  0.57219296  0.53570734  1
  Na  Na23  1  0.49522173  0.48711107  0.53614341  1
  Na  Na24  1  0.99694477  0.98692543  0.60686296  1
  Na  Na25  1  0.49741940  0.90195889  0.60717331  1
  Na  Na26  1  0.49775261  0.40196473  0.60732402  1
  Na  Na27  1  0.99954244  0.07061248  0.67850768  1
  Na  Na28  1  0.99940476  0.57089902  0.67856725  1
  Na  Na29  1  0.49944611  0.48628354  0.67876867  1
  Na  Na30  1  0.00044335  0.98650285  0.75001062  1
  Na  Na31  1  0.50040514  0.90112537  0.74999659  1
  Na  Na32  1  0.49998864  0.40105470  0.75000715  1
  Na  Na33  1  0.00119266  0.07091077  0.82153753  1
  Na  Na34  1  0.00096208  0.57107112  0.82143090  1
  Na  Na35  1  0.50097388  0.48645972  0.82123242  1
  Na  Na36  1  0.00354201  0.98707312  0.89317931  1
  Na  Na37  1  0.50297120  0.90168768  0.89280666  1
  Na  Na38  1  0.50264815  0.40181009  0.89267404  1
  Na  Na39  1  0.00355621  0.07169213  0.96448683  1
  Na  Na40  1  0.00371666  0.57216509  0.96431370  1
  Na  Na41  1  0.50480348  0.48713461  0.96379306  1
  P  P42  1  0.00362535  0.48759344  0.03576374  1
  P  P43  1  0.50289129  0.98832832  0.10709843  1
  P  P44  1  0.00034841  0.48915026  0.17859187  1
  P  P45  1  0.49977523  0.98900359  0.24999050  1
  P  P46  1  0.99871042  0.48873574  0.32142278  1
  P  P47  1  0.49691295  0.98818830  0.39288922  1
  P  P48  1  0.99644136  0.48755841  0.46422949  1
  P  P49  1  0.49656283  0.98713714  0.53578523  1
  P  P50  1  0.99769275  0.48657724  0.60715100  1
  P  P51  1  0.49964577  0.98600781  0.67859228  1
  P  P52  1  0.00002310  0.48619547  0.75000046  1
  P  P53  1  0.50115624  0.98633929  0.82141308  1
  P  P54  1  0.00296461  0.48674004  0.89288844  1
  P  P55  1  0.50361621  0.98720122  0.96419747  1
  S  S56  1  0.15460379  0.32368298  0.06288166  1
  S  S57  1  0.69126935  0.82333253  0.12871024  1
  S  S58  1  0.19222920  0.65288820  0.01423011  1
  S  S59  1  0.81335489  0.65197956  0.05722005  1
  S  S60  1  0.65407019  0.15217103  0.07998106  1
  S  S61  1  0.85355139  0.32209577  0.00873957  1
  S  S62  1  0.31324355  0.82346252  0.08561864  1
  S  S63  1  0.15106566  0.32474017  0.20569896  1
  S  S64  1  0.68878648  0.82363408  0.27149417  1
  S  S65  1  0.19000029  0.65389654  0.15712720  1
  S  S66  1  0.35208257  0.15381421  0.13405232  1
  S  S67  1  0.81025513  0.65335706  0.20006999  1
  S  S68  1  0.65061769  0.15344420  0.22293354  1
  S  S69  1  0.85058143  0.32364923  0.15152355  1
  S  S70  1  0.31002625  0.82455284  0.22845535  1
  S  S71  1  0.14868842  0.32354339  0.34849890  1
  S  S72  1  0.68671705  0.82342550  0.41436217  1
  S  S73  1  0.18888338  0.65303030  0.29996362  1
  S  S74  1  0.34924985  0.15355828  0.27707623  1
  S  S75  1  0.80912372  0.65362425  0.34287310  1
  S  S76  1  0.64755355  0.15372311  0.36592242  1
  S  S77  1  0.84831321  0.32420271  0.29431775  1
  S  S78  1  0.30846675  0.82300454  0.37130610  1
  S  S79  1  0.14664897  0.32213177  0.49125509  1
  S  S80  1  0.18663900  0.65208695  0.44276806  1
  S  S81  1  0.34583004  0.15200766  0.42001359  1
  S  S82  1  0.80784673  0.65281062  0.48577191  1
  S  S83  1  0.84530031  0.32357047  0.43711634  1
  S  S84  1  0.34558003  0.15112453  0.56290170  1
  S  S85  1  0.80905663  0.65176862  0.62871310  1
  S  S86  1  0.30794537  0.82198904  0.51423414  1
  S  S87  1  0.68679758  0.82270276  0.55722442  1
  S  S88  1  0.84653122  0.32245299  0.58006983  1
  S  S89  1  0.64674584  0.15264496  0.50877188  1
  S  S90  1  0.18734128  0.65131790  0.58564066  1
  S  S91  1  0.34886974  0.15042838  0.70570287  1
  S  S92  1  0.81048167  0.65108554  0.77150052  1
  S  S93  1  0.31004904  0.82128042  0.65710563  1
  S  S94  1  0.14859502  0.32155087  0.63414713  1
  S  S95  1  0.68968641  0.82167778  0.70006286  1
  S  S96  1  0.84948437  0.32165632  0.72292318  1
  S  S97  1  0.64957222  0.15146475  0.65153003  1
  S  S98  1  0.18941629  0.65127206  0.72849965  1
  S  S99  1  0.35106058  0.15151442  0.84848351  1
  S  S100  1  0.81314805  0.65149216  0.91435789  1
  S  S101  1  0.31099881  0.82200017  0.79995651  1
  S  S102  1  0.15067429  0.32174345  0.77708021  1
  S  S103  1  0.69062686  0.82154175  0.84288924  1
  S  S104  1  0.85224473  0.32117646  0.86592975  1
  S  S105  1  0.65166287  0.15085779  0.79431266  1
  S  S106  1  0.19140801  0.65180637  0.87128480  1
  S  S107  1  0.35340689  0.15298588  0.99118490  1
  S  S108  1  0.31338953  0.82269034  0.94275910  1
  S  S109  1  0.15408838  0.32298389  0.92001474  1
  S  S110  1  0.69222757  0.82209008  0.98575520  1
  S  S111  1  0.65475691  0.15093551  0.93707704  1
