# generated using pymatgen
data_Na3PS4
_symmetry_space_group_name_H-M   'P 1'
_cell_length_a   7.00642000
_cell_length_b   7.16981502
_cell_length_c   49.08373801
_cell_angle_alpha   90.00000000
_cell_angle_beta   90.00000000
_cell_angle_gamma   90.00432327
_symmetry_Int_Tables_number   1
_chemical_formula_structural   Na3PS4
_chemical_formula_sum   'Na42 P14 S56'
_cell_volume   2465.70858199
_cell_formula_units_Z   14
loop_
 _symmetry_equiv_pos_site_id
 _symmetry_equiv_pos_as_xyz
  1  'x, y, z'
loop_
 _atom_site_type_symbol
 _atom_site_label
 _atom_site_symmetry_multiplicity
 _atom_site_fract_x
 _atom_site_fract_y
 _atom_site_fract_z
 _atom_site_occupancy
  Na  Na0  1  0.50328826  0.40235205  0.03537542  1
  Na  Na1  1  0.50395702  0.90247196  0.03565596  1
  Na  Na2  1  0.00490834  0.98749776  0.03633287  1
  Na  Na3  1  0.50190351  0.48844651  0.10651741  1
  Na  Na4  1  0.00186884  0.57291482  0.10717843  1
  Na  Na5  1  0.00226965  0.07304645  0.10746771  1
  Na  Na6  1  0.50049994  0.40498697  0.17835391  1
  Na  Na7  1  0.50194849  0.90480986  0.17850247  1
  Na  Na8  1  0.00265291  0.98914173  0.17906382  1
  Na  Na9  1  0.49888377  0.49023966  0.24994546  1
  Na  Na10  1  0.99916808  0.57664920  0.24999445  1
  Na  Na11  1  0.99973335  0.07751547  0.25002403  1
  Na  Na12  1  0.49883349  0.40537824  0.32161350  1
  Na  Na13  1  0.49775951  0.90499395  0.32147916  1
  Na  Na14  1  0.99727285  0.98917012  0.32096594  1
  Na  Na15  1  0.49793927  0.48846252  0.39348499  1
  Na  Na16  1  0.99795180  0.57312947  0.39282354  1
  Na  Na17  1  0.99756265  0.07327448  0.39252929  1
  Na  Na18  1  0.49686230  0.40240924  0.46464593  1
  Na  Na19  1  0.49639940  0.90259075  0.46435318  1
  Na  Na20  1  0.99557712  0.98752349  0.46365497  1
  Na  Na21  1  0.99722119  0.07244978  0.53540185  1
  Na  Na22  1  0.99712072  0.57228096  0.53567523  1
  Na  Na23  1  0.49661266  0.48741827  0.53638128  1
  Na  Na24  1  0.99840940  0.98639365  0.60659746  1
  Na  Na25  1  0.49866987  0.90184225  0.60720032  1
  Na  Na26  1  0.49835243  0.40176788  0.60750885  1
  Na  Na27  1  0.99977488  0.06986150  0.67839993  1
  Na  Na28  1  0.99948660  0.57008261  0.67853283  1
  Na  Na29  1  0.49952427  0.48602813  0.67903663  1
  Na  Na30  1  0.00043678  0.98525428  0.74998362  1
  Na  Na31  1  0.50026161  0.89949038  0.74999634  1
  Na  Na32  1  0.50005571  0.39874913  0.75000911  1
  Na  Na33  1  0.00044767  0.06959491  0.82159348  1
  Na  Na34  1  0.00064457  0.56987684  0.82146187  1
  Na  Na35  1  0.50065440  0.48600085  0.82097094  1
  Na  Na36  1  0.00172208  0.98622600  0.89343537  1
  Na  Na37  1  0.50157499  0.90175319  0.89279423  1
  Na  Na38  1  0.50198111  0.40165258  0.89249266  1
  Na  Na39  1  0.00319955  0.07247081  0.96460484  1
  Na  Na40  1  0.00338311  0.57223840  0.96432186  1
  Na  Na41  1  0.50402389  0.48735686  0.96363776  1
  P  P42  1  0.00349739  0.48772928  0.03579592  1
  P  P43  1  0.50251622  0.98845770  0.10706365  1
  P  P44  1  0.00039877  0.48966813  0.17860535  1
  P  P45  1  0.49973128  0.99037372  0.24998919  1
  P  P46  1  0.99891387  0.48951657  0.32137145  1
  P  P47  1  0.49730488  0.98843336  0.39294481  1
  P  P48  1  0.99659097  0.48768628  0.46422021  1
  P  P49  1  0.49696906  0.98718764  0.53582675  1
  P  P50  1  0.99824910  0.48618386  0.60711650  1
  P  P51  1  0.49973793  0.98558815  0.67859798  1
  P  P52  1  0.00001365  0.48509326  0.74999964  1
  P  P53  1  0.50042928  0.98554959  0.82138786  1
  P  P54  1  0.00212481  0.48604762  0.89288241  1
  P  P55  1  0.50345528  0.98716479  0.96418980  1
  S  S56  1  0.15467383  0.32415608  0.06294653  1
  S  S57  1  0.19203474  0.65286286  0.01422682  1
  S  S58  1  0.81292250  0.65203475  0.05721096  1
  S  S59  1  0.65411279  0.15229272  0.07998670  1
  S  S60  1  0.85360056  0.32166440  0.00880859  1
  S  S61  1  0.31216161  0.82442667  0.08554680  1
  S  S62  1  0.15148241  0.32591573  0.20574884  1
  S  S63  1  0.69071804  0.82286501  0.12861925  1
  S  S64  1  0.18974902  0.65434317  0.15707654  1
  S  S65  1  0.35227323  0.15403160  0.13407058  1
  S  S66  1  0.81005193  0.65387902  0.20003798  1
  S  S67  1  0.65048364  0.15477536  0.22292266  1
  S  S68  1  0.85070000  0.32353516  0.15162879  1
  S  S69  1  0.31004673  0.82601315  0.22842828  1
  S  S70  1  0.14873755  0.32361640  0.34837323  1
  S  S71  1  0.68897610  0.82549717  0.27154176  1
  S  S72  1  0.18921847  0.65373499  0.29990930  1
  S  S73  1  0.34913345  0.15483029  0.27707269  1
  S  S74  1  0.80977323  0.65434865  0.34289906  1
  S  S75  1  0.64752306  0.15406529  0.36593311  1
  S  S76  1  0.84785771  0.32554886  0.29426791  1
  S  S77  1  0.30914804  0.82279250  0.37138862  1
  S  S78  1  0.14649162  0.32170682  0.49120972  1
  S  S79  1  0.68771538  0.82434403  0.41444575  1
  S  S80  1  0.18717159  0.65200970  0.44279258  1
  S  S81  1  0.34582635  0.15218935  0.42003287  1
  S  S82  1  0.80808706  0.65288407  0.48578152  1
  S  S83  1  0.84540831  0.32412475  0.43706972  1
  S  S84  1  0.34596578  0.15088459  0.56296827  1
  S  S85  1  0.30831494  0.82201043  0.51428601  1
  S  S86  1  0.68776077  0.82290824  0.55724195  1
  S  S87  1  0.84666185  0.32243288  0.58003393  1
  S  S88  1  0.64690685  0.15290183  0.50880882  1
  S  S89  1  0.18835907  0.65046651  0.58559971  1
  S  S90  1  0.34860481  0.14972519  0.70570761  1
  S  S91  1  0.80977808  0.65168326  0.62867404  1
  S  S92  1  0.31049740  0.82069131  0.65707983  1
  S  S93  1  0.14850106  0.32073537  0.63412106  1
  S  S94  1  0.68998095  0.82142268  0.70006660  1
  S  S95  1  0.84950967  0.32059219  0.72290873  1
  S  S96  1  0.64966517  0.15156668  0.65162857  1
  S  S97  1  0.18974159  0.64985797  0.72849784  1
  S  S98  1  0.35044361  0.15146478  0.84837048  1
  S  S99  1  0.81030404  0.64979626  0.77150967  1
  S  S100  1  0.31014958  0.82142586  0.79991436  1
  S  S101  1  0.15055831  0.32061626  0.77708920  1
  S  S102  1  0.68960080  0.82062116  0.84290986  1
  S  S103  1  0.85188220  0.32049089  0.86588880  1
  S  S104  1  0.65152404  0.14971166  0.79429196  1
  S  S105  1  0.19036188  0.65173368  0.87131713  1
  S  S106  1  0.35343235  0.15295571  0.99119300  1
  S  S107  1  0.81179771  0.65013380  0.91440290  1
  S  S108  1  0.31274179  0.82290373  0.94276737  1
  S  S109  1  0.15374633  0.32248884  0.91997534  1
  S  S110  1  0.69199241  0.82197556  0.98573651  1
  S  S111  1  0.65440744  0.15084017  0.93704388  1
