# generated using pymatgen
data_Na3PS4
_symmetry_space_group_name_H-M   'P 1'
_cell_length_a   7.00642000
_cell_length_b   10.02515603
_cell_length_c   40.69438824
_cell_angle_alpha   90.00000000
_cell_angle_beta   90.00000000
_cell_angle_gamma   90.00408065
_symmetry_Int_Tables_number   1
_chemical_formula_structural   Na3PS4
_chemical_formula_sum   'Na48 P16 S64'
_cell_volume   2858.39228468
_cell_formula_units_Z   16
loop_
 _symmetry_equiv_pos_site_id
 _symmetry_equiv_pos_as_xyz
  1  'x, y, z'
loop_
 _atom_site_type_symbol
 _atom_site_label
 _atom_site_symmetry_multiplicity
 _atom_site_fract_x
 _atom_site_fract_y
 _atom_site_fract_z
 _atom_site_occupancy
  Na  Na0  1  0.40070922  0.11421398  0.05513490  1
  Na  Na1  1  0.04274839  0.92955058  0.00486337  1
  Na  Na2  1  0.01760058  0.36805509  0.00180206  1
  Na  Na3  1  0.90005072  0.67972988  0.06967582  1
  Na  Na4  1  0.39147583  0.63266326  0.17542376  1
  Na  Na5  1  0.39322119  0.36829181  0.11611052  1
  Na  Na6  1  0.89386577  0.40086341  0.12867647  1
  Na  Na7  1  0.36954008  0.91494857  0.12548180  1
  Na  Na8  1  0.87510734  0.94153846  0.13685250  1
  Na  Na9  1  0.89272082  0.18757462  0.19936022  1
  Na  Na10  1  0.39229088  0.17706329  0.30034227  1
  Na  Na11  1  0.39362248  0.88630166  0.24208891  1
  Na  Na12  1  0.89416058  0.89248965  0.25629520  1
  Na  Na13  1  0.38453932  0.44180327  0.24326234  1
  Na  Na14  1  0.88491055  0.44655948  0.25787597  1
  Na  Na15  1  0.89056772  0.64955493  0.32416938  1
  Na  Na16  1  0.40151776  0.68056211  0.43080038  1
  Na  Na17  1  0.39561789  0.40191879  0.36971036  1
  Na  Na18  1  0.89398764  0.37815916  0.38271305  1
  Na  Na19  1  0.37366404  0.94219874  0.36425090  1
  Na  Na20  1  0.86944404  0.92695870  0.37601281  1
  Na  Na21  1  0.90433610  0.12527518  0.44515268  1
  Na  Na22  1  0.54085642  0.93736541  0.49562884  1
  Na  Na23  1  0.54234867  0.37136908  0.49895280  1
  Na  Na24  1  0.67402776  0.66119437  0.55518787  1
  Na  Na25  1  0.03352609  0.84481153  0.50442198  1
  Na  Na26  1  0.06184252  0.40787371  0.50151607  1
  Na  Na27  1  0.17325857  0.09477264  0.56977838  1
  Na  Na28  1  0.68222642  0.14336172  0.67551928  1
  Na  Na29  1  0.68291972  0.40751981  0.61617458  1
  Na  Na30  1  0.18208407  0.37398996  0.62843190  1
  Na  Na31  1  0.70121737  0.86040761  0.62562771  1
  Na  Na32  1  0.19613335  0.83310771  0.63717170  1
  Na  Na33  1  0.18210104  0.58464902  0.69943474  1
  Na  Na34  1  0.68316178  0.59867323  0.80030244  1
  Na  Na35  1  0.68177752  0.88957177  0.74204376  1
  Na  Na36  1  0.18153750  0.88162972  0.75612436  1
  Na  Na37  1  0.68930013  0.33351301  0.74345501  1
  Na  Na38  1  0.18822862  0.32746788  0.75834927  1
  Na  Na39  1  0.18420570  0.12395544  0.82442906  1
  Na  Na40  1  0.67389232  0.09414356  0.93052545  1
  Na  Na41  1  0.68134187  0.37378287  0.86953948  1
  Na  Na42  1  0.18201440  0.39554894  0.88289034  1
  Na  Na43  1  0.69940078  0.83143886  0.86405322  1
  Na  Na44  1  0.20239612  0.84690331  0.87660610  1
  Na  Na45  1  0.17331104  0.64823410  0.94547116  1
  Na  Na46  1  0.53525281  0.83784276  0.99542167  1
  Na  Na47  1  0.53880627  0.40008813  0.99847897  1
  P  P48  1  0.89892107  0.14800153  0.06628719  1
  P  P49  1  0.40316107  0.65191992  0.06347028  1
  P  P50  1  0.89252095  0.66179905  0.18826603  1
  P  P51  1  0.39281733  0.16774506  0.18776617  1
  P  P52  1  0.89299683  0.16961346  0.31217593  1
  P  P53  1  0.39199991  0.66564601  0.31126424  1
  P  P54  1  0.90383449  0.66192690  0.43620099  1
  P  P55  1  0.40255474  0.15685127  0.43377314  1
  P  P56  1  0.17576695  0.62842733  0.56621032  1
  P  P57  1  0.67048674  0.12318941  0.56386391  1
  P  P58  1  0.18114537  0.11412428  0.68841118  1
  P  P59  1  0.68182165  0.60809771  0.68786536  1
  P  P60  1  0.18291900  0.60462922  0.81232528  1
  P  P61  1  0.68259115  0.10893038  0.81134534  1
  P  P62  1  0.17127203  0.11366824  0.93668550  1
  P  P63  1  0.67500642  0.61792472  0.93370359  1
  S  S64  1  0.05602992  0.97437679  0.07218588  1
  S  S65  1  0.58763475  0.49244000  0.06274286  1
  S  S66  1  0.08293300  0.30862778  0.06722442  1
  S  S67  1  0.23738335  0.64281478  0.10546122  1
  S  S68  1  0.70203545  0.16130230  0.10376378  1
  S  S69  1  0.55647717  0.82782859  0.06379684  1
  S  S70  1  0.76314970  0.14315073  0.02106963  1
  S  S71  1  0.22675936  0.64823745  0.02200419  1
  S  S72  1  0.05003139  0.48761167  0.19167459  1
  S  S73  1  0.56997465  0.00305093  0.18591101  1
  S  S74  1  0.07524980  0.82356979  0.19075095  1
  S  S75  1  0.24811931  0.16707333  0.23198515  1
  S  S76  1  0.69804337  0.66873411  0.22654795  1
  S  S77  1  0.55443907  0.33945512  0.18330725  1
  S  S78  1  0.74775684  0.66646711  0.14408552  1
  S  S79  1  0.19700922  0.15903564  0.14979498  1
  S  S80  1  0.06444458  0.00194564  0.31460779  1
  S  S81  1  0.55556660  0.49403567  0.30814185  1
  S  S82  1  0.05919669  0.33919416  0.31625460  1
  S  S83  1  0.24916523  0.66821831  0.35559106  1
  S  S84  1  0.69615745  0.16503733  0.35006589  1
  S  S85  1  0.56800474  0.83068630  0.30819727  1
  S  S86  1  0.74924122  0.16979796  0.26786225  1
  S  S87  1  0.19572375  0.66786466  0.27312402  1
  S  S88  1  0.08399469  0.50008333  0.43673130  1
  S  S89  1  0.55963859  0.98314802  0.42838461  1
  S  S90  1  0.06210536  0.83598115  0.43620651  1
  S  S91  1  0.26775086  0.15366820  0.47914972  1
  S  S92  1  0.72763848  0.65899062  0.47774546  1
  S  S93  1  0.58530989  0.31818123  0.43237928  1
  S  S94  1  0.73819903  0.65556429  0.39418353  1
  S  S95  1  0.20449252  0.16836651  0.39638909  1
  S  S96  1  0.01777232  0.80159831  0.57199216  1
  S  S97  1  0.48575373  0.28270306  0.56333175  1
  S  S98  1  0.99190738  0.46744283  0.56702294  1
  S  S99  1  0.83637003  0.13162859  0.60582314  1
  S  S100  1  0.37205705  0.61480127  0.60379200  1
  S  S101  1  0.51709256  0.94735147  0.56395418  1
  S  S102  1  0.31280441  0.63287307  0.52105358  1
  S  S103  1  0.84631971  0.12789187  0.52229502  1
  S  S104  1  0.02384118  0.28854257  0.69170673  1
  S  S105  1  0.50296190  0.77192586  0.68613166  1
  S  S106  1  0.99835235  0.95255187  0.69109085  1
  S  S107  1  0.82702529  0.60902461  0.73203024  1
  S  S108  1  0.37616876  0.10752052  0.72661818  1
  S  S109  1  0.52209772  0.43553394  0.68329835  1
  S  S110  1  0.32534844  0.10860867  0.64420749  1
  S  S111  1  0.87698085  0.61781481  0.64982557  1
  S  S112  1  0.01163179  0.77241955  0.81458061  1
  S  S113  1  0.51919491  0.28051969  0.80836062  1
  S  S114  1  0.01574352  0.43550931  0.81662597  1
  S  S115  1  0.82520503  0.10535676  0.85572753  1
  S  S116  1  0.37951457  0.60987485  0.85021716  1
  S  S117  1  0.50641780  0.94403523  0.80805124  1
  S  S118  1  0.32623112  0.60326219  0.76797030  1
  S  S119  1  0.87918386  0.10718500  0.77325358  1
  S  S120  1  0.99125820  0.27550990  0.93725756  1
  S  S121  1  0.51649015  0.79100883  0.92823700  1
  S  S122  1  0.01330609  0.93962011  0.93691358  1
  S  S123  1  0.80896367  0.62172217  0.97912149  1
  S  S124  1  0.34933051  0.11637930  0.97797741  1
  S  S125  1  0.49340932  0.45600418  0.93215958  1
  S  S126  1  0.33554094  0.12002227  0.89448792  1
  S  S127  1  0.87338533  0.60723261  0.89636389  1
