# generated using pymatgen
data_Na3PS4
_symmetry_space_group_name_H-M   'P 1'
_cell_length_a   7.00642000
_cell_length_b   10.02515603
_cell_length_c   40.70935944
_cell_angle_alpha   90.00000000
_cell_angle_beta   90.00000000
_cell_angle_gamma   90.00408065
_symmetry_Int_Tables_number   1
_chemical_formula_structural   Na3PS4
_chemical_formula_sum   'Na48 P16 S64'
_cell_volume   2859.44386874
_cell_formula_units_Z   16
loop_
 _symmetry_equiv_pos_site_id
 _symmetry_equiv_pos_as_xyz
  1  'x, y, z'
loop_
 _atom_site_type_symbol
 _atom_site_label
 _atom_site_symmetry_multiplicity
 _atom_site_fract_x
 _atom_site_fract_y
 _atom_site_fract_z
 _atom_site_occupancy
  Na  Na0  1  0.40122131  0.08889695  0.05512740  1
  Na  Na1  1  0.04194475  0.90439176  0.00462582  1
  Na  Na2  1  0.01206741  0.34183661  0.00161683  1
  Na  Na3  1  0.90280401  0.65708699  0.06996661  1
  Na  Na4  1  0.39377502  0.60754275  0.17549226  1
  Na  Na5  1  0.39224654  0.34337773  0.11609275  1
  Na  Na6  1  0.89234187  0.37739146  0.12821638  1
  Na  Na7  1  0.37605821  0.89066915  0.12558227  1
  Na  Na8  1  0.88071216  0.91856568  0.13732526  1
  Na  Na9  1  0.89426771  0.16788286  0.19932895  1
  Na  Na10  1  0.39456152  0.15245112  0.30010173  1
  Na  Na11  1  0.39415163  0.86256061  0.24200659  1
  Na  Na12  1  0.89439686  0.87110570  0.25581420  1
  Na  Na13  1  0.38918377  0.41800977  0.24349771  1
  Na  Na14  1  0.88978570  0.42540024  0.25825542  1
  Na  Na15  1  0.89376407  0.62826869  0.32435052  1
  Na  Na16  1  0.40207086  0.65533892  0.43028164  1
  Na  Na17  1  0.39296418  0.37672054  0.36914691  1
  Na  Na18  1  0.89288167  0.35611930  0.38275344  1
  Na  Na19  1  0.37914318  0.91999182  0.36391224  1
  Na  Na20  1  0.87672053  0.90503501  0.37655321  1
  Na  Na21  1  0.90293391  0.10326492  0.44544683  1
  Na  Na22  1  0.54094702  0.91149752  0.49496042  1
  Na  Na23  1  0.53742832  0.34821195  0.49849912  1
  Na  Na24  1  0.67397446  0.63439122  0.55500673  1
  Na  Na25  1  0.03260291  0.81986184  0.50492935  1
  Na  Na26  1  0.05894728  0.38185760  0.50173142  1
  Na  Na27  1  0.17461699  0.06868734  0.56976595  1
  Na  Na28  1  0.68208796  0.11641150  0.67540958  1
  Na  Na29  1  0.68222829  0.38037123  0.61611395  1
  Na  Na30  1  0.18181593  0.34768054  0.62865145  1
  Na  Na31  1  0.69891993  0.83285677  0.62515878  1
  Na  Na32  1  0.19413626  0.80612654  0.63719680  1
  Na  Na33  1  0.18107850  0.55979175  0.69950567  1
  Na  Na34  1  0.68008597  0.57324463  0.80030433  1
  Na  Na35  1  0.68060594  0.86331667  0.74196723  1
  Na  Na36  1  0.18027978  0.85569765  0.75626897  1
  Na  Na37  1  0.68739748  0.30712570  0.74353871  1
  Na  Na38  1  0.18671179  0.30110054  0.75822697  1
  Na  Na39  1  0.18170980  0.09772573  0.82443333  1
  Na  Na40  1  0.67186292  0.06929271  0.93072757  1
  Na  Na41  1  0.67920984  0.34786034  0.86953305  1
  Na  Na42  1  0.18011241  0.36923490  0.88278903  1
  Na  Na43  1  0.69785645  0.80587018  0.86429443  1
  Na  Na44  1  0.20106575  0.82124896  0.87634270  1
  Na  Na45  1  0.17048947  0.62336731  0.94525950  1
  Na  Na46  1  0.53454254  0.81268349  0.99551667  1
  Na  Na47  1  0.53186581  0.38029258  0.99920614  1
  P  P48  1  0.89939668  0.12195886  0.06620633  1
  P  P49  1  0.40564260  0.62737683  0.06389592  1
  P  P50  1  0.89501090  0.63758652  0.18835820  1
  P  P51  1  0.39422179  0.14346725  0.18780386  1
  P  P52  1  0.89527124  0.14748480  0.31215117  1
  P  P53  1  0.39549083  0.64312616  0.31127182  1
  P  P54  1  0.90488096  0.63750369  0.43668052  1
  P  P55  1  0.40124025  0.13314170  0.43350343  1
  P  P56  1  0.17568534  0.60103662  0.56635681  1
  P  P57  1  0.67156213  0.09702352  0.56333578  1
  P  P58  1  0.18086179  0.08678293  0.68844160  1
  P  P59  1  0.68085784  0.58109172  0.68779051  1
  P  P60  1  0.17919068  0.57862035  0.81230453  1
  P  P61  1  0.68020002  0.08231764  0.81145683  1
  P  P62  1  0.16949197  0.08711586  0.93650503  1
  P  P63  1  0.67223852  0.59243030  0.93380883  1
  S  S64  1  0.05750188  0.94878334  0.07208576  1
  S  S65  1  0.59151534  0.46842830  0.06351118  1
  S  S66  1  0.08344868  0.28288571  0.06699647  1
  S  S67  1  0.70319555  0.13588582  0.10378569  1
  S  S68  1  0.55833775  0.80351275  0.06381395  1
  S  S69  1  0.76230576  0.11724556  0.02109055  1
  S  S70  1  0.22982935  0.62170941  0.02234213  1
  S  S71  1  0.05202466  0.46312970  0.19152782  1
  S  S72  1  0.57316839  0.97963563  0.18616076  1
  S  S73  1  0.07844619  0.79882390  0.19107742  1
  S  S74  1  0.23952764  0.61906577  0.10582609  1
  S  S75  1  0.70015597  0.64445292  0.22657600  1
  S  S76  1  0.55419881  0.31594750  0.18308935  1
  S  S77  1  0.75041881  0.64356750  0.14420709  1
  S  S78  1  0.19890234  0.13331964  0.14980517  1
  S  S79  1  0.06598887  0.97935969  0.31429402  1
  S  S80  1  0.55959693  0.47190959  0.30835100  1
  S  S81  1  0.06249507  0.31657834  0.31647153  1
  S  S82  1  0.24952946  0.14310422  0.23197903  1
  S  S83  1  0.69848455  0.14213362  0.35000250  1
  S  S84  1  0.57081017  0.80856300  0.30800526  1
  S  S85  1  0.75158850  0.14948303  0.26783167  1
  S  S86  1  0.19921621  0.64469028  0.27316914  1
  S  S87  1  0.08388019  0.47507957  0.43716993  1
  S  S88  1  0.56053223  0.96045654  0.42796518  1
  S  S89  1  0.06349119  0.81125310  0.43710550  1
  S  S90  1  0.25229873  0.64617680  0.35559575  1
  S  S91  1  0.72618547  0.63436767  0.47788282  1
  S  S92  1  0.58171112  0.29565546  0.43188068  1
  S  S93  1  0.74161990  0.63234485  0.39439372  1
  S  S94  1  0.20214766  0.14306398  0.39626307  1
  S  S95  1  0.26821045  0.12919953  0.47896969  1
  S  S96  1  0.01822221  0.77456305  0.57216576  1
  S  S97  1  0.48706013  0.25655618  0.56283060  1
  S  S98  1  0.99178403  0.44026158  0.56722610  1
  S  S99  1  0.37215256  0.58801696  0.60389482  1
  S  S100  1  0.51802754  0.92111748  0.56318961  1
  S  S101  1  0.31197740  0.60559632  0.52119786  1
  S  S102  1  0.84860634  0.10173451  0.52194992  1
  S  S103  1  0.02351003  0.26109607  0.69166894  1
  S  S104  1  0.50283965  0.74542012  0.68602181  1
  S  S105  1  0.99796225  0.92516936  0.69120493  1
  S  S106  1  0.83641752  0.10468564  0.60542336  1
  S  S107  1  0.37587764  0.08064253  0.72663801  1
  S  S108  1  0.52020501  0.40887859  0.68323171  1
  S  S109  1  0.32507665  0.08106436  0.64423512  1
  S  S110  1  0.87657722  0.59027001  0.64982887  1
  S  S111  1  0.00847304  0.74669332  0.81456717  1
  S  S112  1  0.51625607  0.25366602  0.80838046  1
  S  S113  1  0.01196092  0.40949840  0.81643024  1
  S  S114  1  0.82527105  0.58152317  0.73200818  1
  S  S115  1  0.37582509  0.58322226  0.85020010  1
  S  S116  1  0.50474808  0.91691250  0.80825636  1
  S  S117  1  0.32342183  0.57747449  0.76803159  1
  S  S118  1  0.87669798  0.08066955  0.77336692  1
  S  S119  1  0.98989145  0.24926303  0.93698632  1
  S  S120  1  0.51437563  0.76578787  0.92840880  1
  S  S121  1  0.01072724  0.91339034  0.93660355  1
  S  S122  1  0.82317470  0.07987007  0.85577934  1
  S  S123  1  0.34645473  0.09001623  0.97790906  1
  S  S124  1  0.49008545  0.43077552  0.93241920  1
  S  S125  1  0.33446828  0.09337418  0.89442632  1
  S  S126  1  0.87027884  0.58124723  0.89642058  1
  S  S127  1  0.80700840  0.59595085  0.97917448  1
