# generated using pymatgen
data_Na3PS4
_symmetry_space_group_name_H-M   'P 1'
_cell_length_a   7.00642000
_cell_length_b   10.02515603
_cell_length_c   40.67005341
_cell_angle_alpha   90.00000000
_cell_angle_beta   90.00000000
_cell_angle_gamma   90.00408065
_symmetry_Int_Tables_number   1
_chemical_formula_structural   Na3PS4
_chemical_formula_sum   'Na48 P16 S64'
_cell_volume   2856.68299557
_cell_formula_units_Z   16
loop_
 _symmetry_equiv_pos_site_id
 _symmetry_equiv_pos_as_xyz
  1  'x, y, z'
loop_
 _atom_site_type_symbol
 _atom_site_label
 _atom_site_symmetry_multiplicity
 _atom_site_fract_x
 _atom_site_fract_y
 _atom_site_fract_z
 _atom_site_occupancy
  Na  Na0  1  0.40110456  0.93813459  0.05547784  1
  Na  Na1  1  0.04197565  0.75771903  0.00400802  1
  Na  Na2  1  0.01320945  0.19469896  0.00154847  1
  Na  Na3  1  0.39186617  0.45539282  0.17563181  1
  Na  Na4  1  0.39411635  0.19225676  0.11623807  1
  Na  Na5  1  0.89605889  0.22744977  0.12797162  1
  Na  Na6  1  0.36810302  0.73770250  0.12601846  1
  Na  Na7  1  0.87483536  0.76599672  0.13677262  1
  Na  Na8  1  0.90094811  0.50743245  0.06946181  1
  Na  Na9  1  0.39168195  0.99912936  0.30038111  1
  Na  Na10  1  0.39313066  0.70915357  0.24202114  1
  Na  Na11  1  0.89333694  0.71679413  0.25601282  1
  Na  Na12  1  0.38416904  0.26438762  0.24354185  1
  Na  Na13  1  0.88484627  0.26998609  0.25796068  1
  Na  Na14  1  0.89255243  0.01254694  0.19910037  1
  Na  Na15  1  0.39986714  0.50444141  0.43080764  1
  Na  Na16  1  0.39309204  0.22456357  0.36977043  1
  Na  Na17  1  0.89147264  0.20222697  0.38269278  1
  Na  Na18  1  0.37104008  0.76529295  0.36431969  1
  Na  Na19  1  0.86657769  0.74926739  0.37583414  1
  Na  Na20  1  0.89016384  0.47306734  0.32409425  1
  Na  Na21  1  0.53934356  0.76073218  0.49585862  1
  Na  Na22  1  0.53776076  0.19466807  0.49906118  1
  Na  Na23  1  0.90045809  0.94879158  0.44498858  1
  Na  Na24  1  0.67455396  0.48590454  0.55518562  1
  Na  Na25  1  0.03310745  0.66907073  0.50393752  1
  Na  Na26  1  0.05703201  0.23202226  0.50144186  1
  Na  Na27  1  0.68479075  0.96756734  0.67560469  1
  Na  Na28  1  0.68347382  0.23244955  0.61633563  1
  Na  Na29  1  0.18248576  0.19848727  0.62826915  1
  Na  Na30  1  0.70601755  0.68594976  0.62562001  1
  Na  Na31  1  0.19966895  0.65961030  0.63682048  1
  Na  Na32  1  0.17369633  0.91919741  0.56931743  1
  Na  Na33  1  0.68345154  0.42094479  0.80065720  1
  Na  Na34  1  0.68140097  0.71396628  0.74244955  1
  Na  Na35  1  0.18130544  0.70930180  0.75653237  1
  Na  Na36  1  0.69358534  0.15950206  0.74317150  1
  Na  Na37  1  0.19285112  0.15534320  0.75778433  1
  Na  Na38  1  0.18433909  0.41298666  0.69927620  1
  Na  Na39  1  0.67490039  0.91937957  0.93109357  1
  Na  Na40  1  0.67981169  0.19798237  0.87044930  1
  Na  Na41  1  0.18153152  0.22402153  0.88290503  1
  Na  Na42  1  0.70193412  0.65898922  0.86419203  1
  Na  Na43  1  0.20740701  0.67780132  0.87550510  1
  Na  Na44  1  0.18516471  0.95586929  0.82424345  1
  Na  Na45  1  0.53471295  0.66269672  0.99603953  1
  Na  Na46  1  0.53198765  0.23015670  0.99916499  1
  Na  Na47  1  0.17215906  0.47712048  0.94486536  1
  P  P48  1  0.89943196  0.97223565  0.06602914  1
  P  P49  1  0.40342253  0.47694487  0.06402256  1
  P  P50  1  0.89239812  0.48578122  0.18827418  1
  P  P51  1  0.39283058  0.99106848  0.18779382  1
  P  P52  1  0.89212155  0.99301518  0.31227658  1
  P  P53  1  0.39165412  0.48894750  0.31134890  1
  P  P54  1  0.90216769  0.48483172  0.43609090  1
  P  P55  1  0.39857311  0.97913539  0.43389803  1
  P  P56  1  0.17633315  0.45348996  0.56600436  1
  P  P57  1  0.67104583  0.94842115  0.56400640  1
  P  P58  1  0.18381283  0.93912536  0.68843175  1
  P  P59  1  0.68425688  0.43367163  0.68775083  1
  P  P60  1  0.18320199  0.43196716  0.81231294  1
  P  P61  1  0.68372352  0.93673911  0.81143486  1
  P  P62  1  0.17275819  0.94023552  0.93631309  1
  P  P63  1  0.67418719  0.44481891  0.93398944  1
  S  S64  1  0.05565350  0.79809930  0.07168372  1
  S  S65  1  0.59003146  0.31857657  0.06342205  1
  S  S66  1  0.08519171  0.13211520  0.06671471  1
  S  S67  1  0.55534807  0.65342021  0.06451489  1
  S  S68  1  0.76092718  0.96823584  0.02099776  1
  S  S69  1  0.22921754  0.47257550  0.02227452  1
  S  S70  1  0.05000658  0.31151865  0.19152185  1
  S  S71  1  0.57074295  0.82676074  0.18595314  1
  S  S72  1  0.07482927  0.64778285  0.19083083  1
  S  S73  1  0.23609573  0.46658443  0.10581214  1
  S  S74  1  0.70451595  0.98689586  0.10379012  1
  S  S75  1  0.55365934  0.16318566  0.18344129  1
  S  S76  1  0.74774040  0.49107057  0.14410219  1
  S  S77  1  0.19779302  0.98221527  0.14967992  1
  S  S78  1  0.06322521  0.82508001  0.31455029  1
  S  S79  1  0.55511346  0.31729354  0.30825838  1
  S  S80  1  0.05908384  0.16219604  0.31647946  1
  S  S81  1  0.24723385  0.99011448  0.23195820  1
  S  S82  1  0.69808272  0.49175583  0.22661911  1
  S  S83  1  0.56768026  0.65416689  0.30834053  1
  S  S84  1  0.74851773  0.99421345  0.26791375  1
  S  S85  1  0.19587823  0.49121729  0.27309424  1
  S  S86  1  0.08265679  0.32311924  0.43670840  1
  S  S87  1  0.55641205  0.80574138  0.42848755  1
  S  S88  1  0.05998781  0.65897193  0.43583494  1
  S  S89  1  0.24805154  0.49133747  0.35563437  1
  S  S90  1  0.69517119  0.98812670  0.35016893  1
  S  S91  1  0.58147263  0.14042759  0.43254536  1
  S  S92  1  0.73597400  0.47763753  0.39411647  1
  S  S93  1  0.20126060  0.99088564  0.39640883  1
  S  S94  1  0.26317530  0.97529037  0.47925415  1
  S  S95  1  0.72662190  0.48263021  0.47771502  1
  S  S96  1  0.01888708  0.62711779  0.57160450  1
  S  S97  1  0.48522918  0.10729062  0.56356450  1
  S  S98  1  0.99170584  0.29305430  0.56689584  1
  S  S99  1  0.51854146  0.77218743  0.56431122  1
  S  S100  1  0.31351295  0.45709484  0.52083396  1
  S  S101  1  0.84501406  0.95327930  0.52220326  1
  S  S102  1  0.02611082  0.11346789  0.69166291  1
  S  S103  1  0.50630205  0.59796939  0.68579534  1
  S  S104  1  0.00135964  0.77726461  0.69115383  1
  S  S105  1  0.83887075  0.95788072  0.60578788  1
  S  S106  1  0.37222168  0.43968563  0.60364784  1
  S  S107  1  0.52341138  0.26145341  0.68331431  1
  S  S108  1  0.32792982  0.93396902  0.64419719  1
  S  S109  1  0.87991657  0.44239413  0.64975323  1
  S  S110  1  0.00908889  0.59840678  0.81451238  1
  S  S111  1  0.52150569  0.10908177  0.80832445  1
  S  S112  1  0.01850440  0.26160861  0.81647807  1
  S  S113  1  0.82862715  0.43465842  0.73202257  1
  S  S114  1  0.37877097  0.93305419  0.72670520  1
  S  S115  1  0.50560822  0.77264679  0.80856705  1
  S  S116  1  0.32762602  0.43213287  0.76802426  1
  S  S117  1  0.87919065  0.93344114  0.77318084  1
  S  S118  1  0.99174481  0.10157202  0.93695457  1
  S  S119  1  0.51752990  0.61874159  0.92867164  1
  S  S120  1  0.01520724  0.76589593  0.93586362  1
  S  S121  1  0.82747179  0.93333864  0.85569929  1
  S  S122  1  0.37905936  0.43776174  0.85033487  1
  S  S123  1  0.49055919  0.28402412  0.93266993  1
  S  S124  1  0.33921598  0.94835380  0.89435179  1
  S  S125  1  0.87112105  0.43317773  0.89643052  1
  S  S126  1  0.80977640  0.44819488  0.97933155  1
  S  S127  1  0.34802807  0.94197491  0.97791685  1
