# generated using pymatgen
data_Na3PS4
_symmetry_space_group_name_H-M   'P 1'
_cell_length_a   7.00642000
_cell_length_b   10.02515603
_cell_length_c   40.70630650
_cell_angle_alpha   90.00000000
_cell_angle_beta   90.00000000
_cell_angle_gamma   90.00408065
_symmetry_Int_Tables_number   1
_chemical_formula_structural   Na3PS4
_chemical_formula_sum   'Na48 P16 S64'
_cell_volume   2859.22942911
_cell_formula_units_Z   16
loop_
 _symmetry_equiv_pos_site_id
 _symmetry_equiv_pos_as_xyz
  1  'x, y, z'
loop_
 _atom_site_type_symbol
 _atom_site_label
 _atom_site_symmetry_multiplicity
 _atom_site_fract_x
 _atom_site_fract_y
 _atom_site_fract_z
 _atom_site_occupancy
  Na  Na0  1  0.40190286  0.02634750  0.05506127  1
  Na  Na1  1  0.04334789  0.84216085  0.00477045  1
  Na  Na2  1  0.01147701  0.28088460  0.00187726  1
  Na  Na3  1  0.90280046  0.59545545  0.06988777  1
  Na  Na4  1  0.39440142  0.54446483  0.17543466  1
  Na  Na5  1  0.39507957  0.28110469  0.11594693  1
  Na  Na6  1  0.89550731  0.31523099  0.12829264  1
  Na  Na7  1  0.37904258  0.82831048  0.12540356  1
  Na  Na8  1  0.88321848  0.85652186  0.13734558  1
  Na  Na9  1  0.89518206  0.10487666  0.19934477  1
  Na  Na10  1  0.39533495  0.08746095  0.30027139  1
  Na  Na11  1  0.39707049  0.79804286  0.24190234  1
  Na  Na12  1  0.89752484  0.80765427  0.25582899  1
  Na  Na13  1  0.38903819  0.35453051  0.24370603  1
  Na  Na14  1  0.88982515  0.36142281  0.25847266  1
  Na  Na15  1  0.89302435  0.56803622  0.32428995  1
  Na  Na16  1  0.40066079  0.59408566  0.43077919  1
  Na  Na17  1  0.39457812  0.31461985  0.36942679  1
  Na  Na18  1  0.89323275  0.29468954  0.38237638  1
  Na  Na19  1  0.37731942  0.85651138  0.36446543  1
  Na  Na20  1  0.87432671  0.84249108  0.37658928  1
  Na  Na21  1  0.90208547  0.04204027  0.44518882  1
  Na  Na22  1  0.53874927  0.85191060  0.49556521  1
  Na  Na23  1  0.53463375  0.28624948  0.49891387  1
  Na  Na24  1  0.67176162  0.57395194  0.55510559  1
  Na  Na25  1  0.03066381  0.75864917  0.50466286  1
  Na  Na26  1  0.05538669  0.32201792  0.50143172  1
  Na  Na27  1  0.17167979  0.00718588  0.56984426  1
  Na  Na28  1  0.68126510  0.05525441  0.67552890  1
  Na  Na29  1  0.68112485  0.31970854  0.61615127  1
  Na  Na30  1  0.18053616  0.28527055  0.62830018  1
  Na  Na31  1  0.70012672  0.77239173  0.62558107  1
  Na  Na32  1  0.19488253  0.74456499  0.63714237  1
  Na  Na33  1  0.18092919  0.49486078  0.69937006  1
  Na  Na34  1  0.68116778  0.51295323  0.80013121  1
  Na  Na35  1  0.67996089  0.80154223  0.74171429  1
  Na  Na36  1  0.17958099  0.79093107  0.75566871  1
  Na  Na37  1  0.68840493  0.24559813  0.74377201  1
  Na  Na38  1  0.18740883  0.23705717  0.75845932  1
  Na  Na39  1  0.18228417  0.03002826  0.82424304  1
  Na  Na40  1  0.67252739  0.00840438  0.93040648  1
  Na  Na41  1  0.68061978  0.28566000  0.86882314  1
  Na  Na42  1  0.18138460  0.30440782  0.88243521  1
  Na  Na43  1  0.69773430  0.74269863  0.86437343  1
  Na  Na44  1  0.20019337  0.75567179  0.87686039  1
  Na  Na45  1  0.17146095  0.55664628  0.94536062  1
  Na  Na46  1  0.53495068  0.74976985  0.99498084  1
  Na  Na47  1  0.53274676  0.31429175  0.99878722  1
  P  P48  1  0.90019294  0.06025601  0.06627876  1
  P  P49  1  0.40572641  0.56465129  0.06344465  1
  P  P50  1  0.89564977  0.57513681  0.18848606  1
  P  P51  1  0.39525341  0.08087647  0.18776691  1
  P  P52  1  0.89601526  0.08273653  0.31224098  1
  P  P53  1  0.39519885  0.57972137  0.31154069  1
  P  P54  1  0.90300824  0.57709348  0.43647701  1
  P  P55  1  0.40037419  0.07222656  0.43380504  1
  P  P56  1  0.17389120  0.54083508  0.56613748  1
  P  P57  1  0.66926052  0.03566989  0.56380402  1
  P  P58  1  0.18023479  0.02549998  0.68834609  1
  P  P59  1  0.68081488  0.51962231  0.68785949  1
  P  P60  1  0.18067864  0.51501141  0.81220497  1
  P  P61  1  0.68053308  0.01848720  0.81135493  1
  P  P62  1  0.16986572  0.02406639  0.93669665  1
  P  P63  1  0.67345631  0.52758147  0.93352431  1
  S  S64  1  0.05758939  0.88670232  0.07211756  1
  S  S65  1  0.59182839  0.40605503  0.06295786  1
  S  S66  1  0.08495870  0.22068604  0.06700994  1
  S  S67  1  0.55781768  0.74103106  0.06328200  1
  S  S68  1  0.76287561  0.05554325  0.02121598  1
  S  S69  1  0.22867149  0.55924052  0.02205190  1
  S  S70  1  0.05238503  0.40055597  0.19167931  1
  S  S71  1  0.57463394  0.91732841  0.18604520  1
  S  S72  1  0.07927147  0.73631578  0.19111475  1
  S  S73  1  0.24058912  0.55626289  0.10550466  1
  S  S74  1  0.70439589  0.07409345  0.10390924  1
  S  S75  1  0.55478004  0.25365599  0.18328707  1
  S  S76  1  0.75110220  0.58097448  0.14431057  1
  S  S77  1  0.20040121  0.07122246  0.14967706  1
  S  S78  1  0.06610956  0.91440430  0.31459298  1
  S  S79  1  0.55998744  0.40872896  0.30861973  1
  S  S80  1  0.06381173  0.25150759  0.31635348  1
  S  S81  1  0.25026618  0.07976141  0.23193822  1
  S  S82  1  0.70133955  0.58159717  0.22680225  1
  S  S83  1  0.56991852  0.74539649  0.30826882  1
  S  S84  1  0.75203219  0.08422055  0.26794508  1
  S  S85  1  0.19927331  0.58081230  0.27335538  1
  S  S86  1  0.08167161  0.41435645  0.43688942  1
  S  S87  1  0.55868877  0.89896210  0.42856325  1
  S  S88  1  0.06264496  0.75047258  0.43666340  1
  S  S89  1  0.25139344  0.58239858  0.35578938  1
  S  S90  1  0.69909971  0.07869172  0.35011942  1
  S  S91  1  0.58258804  0.23388073  0.43232652  1
  S  S92  1  0.73808541  0.57161584  0.39438244  1
  S  S93  1  0.20282391  0.08233871  0.39631749  1
  S  S94  1  0.26504983  0.06888378  0.47910614  1
  S  S95  1  0.72608393  0.57418620  0.47786884  1
  S  S96  1  0.01617206  0.71415468  0.57199574  1
  S  S97  1  0.48440077  0.19499043  0.56325147  1
  S  S98  1  0.98968395  0.38005908  0.56696161  1
  S  S99  1  0.51599976  0.85970662  0.56385991  1
  S  S100  1  0.31061425  0.54546060  0.52097953  1
  S  S101  1  0.84543269  0.04033233  0.52233431  1
  S  S102  1  0.02301076  0.19983078  0.69170844  1
  S  S103  1  0.50134147  0.68308917  0.68606287  1
  S  S104  1  0.99719755  0.86392901  0.69093851  1
  S  S105  1  0.83456506  0.04419067  0.60582871  1
  S  S106  1  0.37030795  0.52663553  0.60367419  1
  S  S107  1  0.52165763  0.34678908  0.68337871  1
  S  S108  1  0.32465227  0.02013513  0.64418550  1
  S  S109  1  0.87596855  0.52916086  0.64983213  1
  S  S110  1  0.01071225  0.68339066  0.81457877  1
  S  S111  1  0.51535677  0.18917542  0.80835347  1
  S  S112  1  0.01252702  0.34644157  0.81642373  1
  S  S113  1  0.82598881  0.52102631  0.73200575  1
  S  S114  1  0.37509236  0.01840112  0.72655848  1
  S  S115  1  0.50607021  0.85255076  0.80805603  1
  S  S116  1  0.32406583  0.51340352  0.76786582  1
  S  S117  1  0.87715315  0.01749723  0.77329308  1
  S  S118  1  0.99232322  0.18718120  0.93731190  1
  S  S119  1  0.51380125  0.70018018  0.92811768  1
  S  S120  1  0.00974727  0.85094054  0.93693447  1
  S  S121  1  0.82356378  0.01615614  0.85569094  1
  S  S122  1  0.37773547  0.51934235  0.85003916  1
  S  S123  1  0.49328408  0.36493321  0.93189945  1
  S  S124  1  0.33328495  0.02903482  0.89441666  1
  S  S125  1  0.87254995  0.51803631  0.89626025  1
  S  S126  1  0.80660338  0.53176404  0.97900053  1
  S  S127  1  0.34866726  0.02612642  0.97789941  1
