# generated using pymatgen
data_Na3PS4
_symmetry_space_group_name_H-M   'P 1'
_cell_length_a   7.00642000
_cell_length_b   10.02515603
_cell_length_c   40.67391925
_cell_angle_alpha   90.00000000
_cell_angle_beta   90.00000000
_cell_angle_gamma   90.00408065
_symmetry_Int_Tables_number   1
_chemical_formula_structural   Na3PS4
_chemical_formula_sum   'Na48 P16 S64'
_cell_volume   2856.95453363
_cell_formula_units_Z   16
loop_
 _symmetry_equiv_pos_site_id
 _symmetry_equiv_pos_as_xyz
  1  'x, y, z'
loop_
 _atom_site_type_symbol
 _atom_site_label
 _atom_site_symmetry_multiplicity
 _atom_site_fract_x
 _atom_site_fract_y
 _atom_site_fract_z
 _atom_site_occupancy
  Na  Na0  1  0.40058101  0.15033345  0.05536526  1
  Na  Na1  1  0.39414082  0.40478033  0.11611870  1
  Na  Na2  1  0.04084990  0.96804155  0.00447441  1
  Na  Na3  1  0.01048481  0.40796003  0.00199752  1
  Na  Na4  1  0.89980625  0.71902106  0.06981587  1
  Na  Na5  1  0.39185625  0.66797949  0.17563937  1
  Na  Na6  1  0.39309666  0.92156659  0.24188021  1
  Na  Na7  1  0.89540613  0.43875932  0.12835443  1
  Na  Na8  1  0.36826503  0.95042103  0.12579502  1
  Na  Na9  1  0.87493116  0.97876173  0.13693923  1
  Na  Na10  1  0.89232113  0.22456678  0.19927899  1
  Na  Na11  1  0.39167788  0.20858852  0.30046139  1
  Na  Na12  1  0.39464468  0.43740828  0.36957963  1
  Na  Na13  1  0.89381582  0.92931600  0.25597063  1
  Na  Na14  1  0.38470294  0.47626636  0.24374971  1
  Na  Na15  1  0.88509549  0.48265366  0.25797466  1
  Na  Na16  1  0.89051713  0.68772668  0.32401417  1
  Na  Na17  1  0.40043680  0.71620618  0.43093114  1
  Na  Na18  1  0.53972838  0.97439223  0.49592808  1
  Na  Na19  1  0.89290851  0.41579918  0.38242630  1
  Na  Na20  1  0.37129108  0.97700093  0.36461759  1
  Na  Na21  1  0.86652597  0.96295778  0.37604560  1
  Na  Na22  1  0.90210071  0.16273098  0.44490816  1
  Na  Na23  1  0.54135769  0.40837587  0.49900035  1
  Na  Na24  1  0.67314337  0.70065233  0.55531565  1
  Na  Na25  1  0.68148066  0.44696998  0.61616445  1
  Na  Na26  1  0.03324986  0.88270965  0.50394009  1
  Na  Na27  1  0.05978130  0.44525346  0.50151550  1
  Na  Na28  1  0.17332186  0.13270011  0.56941519  1
  Na  Na29  1  0.68316054  0.18362678  0.67557414  1
  Na  Na30  1  0.68202332  0.92873366  0.74199573  1
  Na  Na31  1  0.17955675  0.41198436  0.62811863  1
  Na  Na32  1  0.70718265  0.90125157  0.62590732  1
  Na  Na33  1  0.20017577  0.87308764  0.63680935  1
  Na  Na34  1  0.18412156  0.62460104  0.69920819  1
  Na  Na35  1  0.68465839  0.63816731  0.80044345  1
  Na  Na36  1  0.68064508  0.41165388  0.86960054  1
  Na  Na37  1  0.18162613  0.91973051  0.75603935  1
  Na  Na38  1  0.69092584  0.37370872  0.74366793  1
  Na  Na39  1  0.18993056  0.36598799  0.75824768  1
  Na  Na40  1  0.18536552  0.16225278  0.82434169  1
  Na  Na41  1  0.67491962  0.13289483  0.93087253  1
  Na  Na42  1  0.53365952  0.87495367  0.99552290  1
  Na  Na43  1  0.18207601  0.43385875  0.88294500  1
  Na  Na44  1  0.70332556  0.87074656  0.86444176  1
  Na  Na45  1  0.20733101  0.88573949  0.87626495  1
  Na  Na46  1  0.17259310  0.68678860  0.94528616  1
  Na  Na47  1  0.53083236  0.43888786  0.99888995  1
  P  P48  1  0.89908930  0.18464844  0.06627764  1
  P  P49  1  0.40302056  0.68883528  0.06363907  1
  P  P50  1  0.89263315  0.69838721  0.18825545  1
  P  P51  1  0.39274431  0.20416691  0.18781994  1
  P  P52  1  0.89243999  0.20530877  0.31220949  1
  P  P53  1  0.39183579  0.70201186  0.31128504  1
  P  P54  1  0.90252944  0.69819624  0.43607528  1
  P  P55  1  0.40022499  0.19229639  0.43386719  1
  P  P56  1  0.17476048  0.66705831  0.56599849  1
  P  P57  1  0.67082810  0.16241401  0.56395350  1
  P  P58  1  0.18274866  0.15288883  0.68832995  1
  P  P59  1  0.68417740  0.64765514  0.68772145  1
  P  P60  1  0.18423736  0.64272189  0.81232660  1
  P  P61  1  0.68363509  0.14756360  0.81149267  1
  P  P62  1  0.17242633  0.15099799  0.93660260  1
  P  P63  1  0.67479576  0.65526877  0.93378197  1
  S  S64  1  0.05538724  0.01055489  0.07203049  1
  S  S65  1  0.58910894  0.53021167  0.06305146  1
  S  S66  1  0.08467085  0.34447258  0.06701346  1
  S  S67  1  0.23696758  0.67916244  0.10559927  1
  S  S68  1  0.70363720  0.19896445  0.10396082  1
  S  S69  1  0.55493618  0.86532686  0.06395325  1
  S  S70  1  0.76121703  0.18033499  0.02121461  1
  S  S71  1  0.22731117  0.68428393  0.02206283  1
  S  S72  1  0.05019670  0.52423784  0.19158434  1
  S  S73  1  0.57041612  0.03968212  0.18597342  1
  S  S74  1  0.07533026  0.86017797  0.19073722  1
  S  S75  1  0.24727177  0.20289552  0.23198932  1
  S  S76  1  0.69825412  0.70472346  0.22659113  1
  S  S77  1  0.55386196  0.37618428  0.18346867  1
  S  S78  1  0.74759281  0.70347392  0.14408916  1
  S  S79  1  0.19760385  0.19541915  0.14973553  1
  S  S80  1  0.06267272  0.03696973  0.31464296  1
  S  S81  1  0.55624369  0.53082579  0.30827340  1
  S  S82  1  0.05992242  0.37426515  0.31623229  1
  S  S83  1  0.24829713  0.70404114  0.35556899  1
  S  S84  1  0.69547339  0.20135296  0.35011190  1
  S  S85  1  0.56686693  0.86760940  0.30821673  1
  S  S86  1  0.74871002  0.20591776  0.26786752  1
  S  S87  1  0.19592026  0.70368168  0.27305282  1
  S  S88  1  0.08263611  0.53623081  0.43667507  1
  S  S89  1  0.55816256  0.01888826  0.42860992  1
  S  S90  1  0.06097487  0.87206879  0.43585433  1
  S  S91  1  0.26484695  0.18889394  0.47921328  1
  S  S92  1  0.72693262  0.69592871  0.47768017  1
  S  S93  1  0.58268605  0.35385153  0.43241125  1
  S  S94  1  0.73645782  0.69122374  0.39408434  1
  S  S95  1  0.20297696  0.20381720  0.39635858  1
  S  S96  1  0.01839621  0.84112652  0.57162493  1
  S  S97  1  0.48483027  0.32112313  0.56343203  1
  S  S98  1  0.98916785  0.50719931  0.56674331  1
  S  S99  1  0.83820881  0.17224594  0.60577145  1
  S  S100  1  0.37025154  0.65248753  0.60367266  1
  S  S101  1  0.51849101  0.98607001  0.56433344  1
  S  S102  1  0.31285466  0.67065665  0.52091307  1
  S  S103  1  0.84515731  0.16700320  0.52220651  1
  S  S104  1  0.02527540  0.32720355  0.69172367  1
  S  S105  1  0.50546956  0.81158672  0.68580503  1
  S  S106  1  0.99998174  0.99121108  0.69086466  1
  S  S107  1  0.82925229  0.64926037  0.73192671  1
  S  S108  1  0.37755156  0.14594565  0.72659762  1
  S  S109  1  0.52367392  0.47528417  0.68337393  1
  S  S110  1  0.32708141  0.14833024  0.64411777  1
  S  S111  1  0.87923915  0.65624268  0.64964406  1
  S  S112  1  0.01312410  0.81065757  0.81466280  1
  S  S113  1  0.51975669  0.31891257  0.80841353  1
  S  S114  1  0.01696961  0.47367813  0.81656315  1
  S  S115  1  0.82678478  0.14482569  0.85582315  1
  S  S116  1  0.38072632  0.64766237  0.85024432  1
  S  S117  1  0.50819972  0.98210717  0.80834286  1
  S  S118  1  0.32761783  0.64170303  0.76795530  1
  S  S119  1  0.87979058  0.14574436  0.77331877  1
  S  S120  1  0.99274287  0.31300200  0.93737451  1
  S  S121  1  0.51712791  0.82872895  0.92830937  1
  S  S122  1  0.01371408  0.97725477  0.93638143  1
  S  S123  1  0.80837517  0.65969957  0.97924695  1
  S  S124  1  0.34935799  0.15237010  0.97802551  1
  S  S125  1  0.49269481  0.49374571  0.93231685  1
  S  S126  1  0.33754436  0.15815088  0.89449066  1
  S  S127  1  0.87329097  0.64413353  0.89644659  1
