# generated using pymatgen
data_Na3PS4
_symmetry_space_group_name_H-M   'P 1'
_cell_length_a   7.00642000
_cell_length_b   15.74106402
_cell_length_c   44.44311287
_cell_angle_alpha   90.00000000
_cell_angle_beta   90.00000000
_cell_angle_gamma   90.00322858
_symmetry_Int_Tables_number   1
_chemical_formula_structural   Na3PS4
_chemical_formula_sum   'Na72 P24 S96'
_cell_volume   4901.56450413
_cell_formula_units_Z   24
loop_
 _symmetry_equiv_pos_site_id
 _symmetry_equiv_pos_as_xyz
  1  'x, y, z'
loop_
 _atom_site_type_symbol
 _atom_site_label
 _atom_site_symmetry_multiplicity
 _atom_site_fract_x
 _atom_site_fract_y
 _atom_site_fract_z
 _atom_site_occupancy
  Na  Na0  1  0.50203655  0.86615577  0.07472426  1
  Na  Na1  1  0.49200451  0.38052024  0.07409274  1
  Na  Na2  1  0.00371304  0.41963043  0.09398188  1
  Na  Na3  1  0.91771613  0.79273651  0.02199390  1
  Na  Na4  1  0.50350630  0.69195859  0.12405739  1
  Na  Na5  1  0.99797911  0.10484390  0.06893298  1
  Na  Na6  1  0.02749609  0.60571811  0.05598972  1
  Na  Na7  1  0.47885310  0.48541111  0.14750833  1
  Na  Na8  1  0.48446532  0.08937373  0.21607510  1
  Na  Na9  1  0.48553958  0.59139082  0.22105267  1
  Na  Na10  1  0.51822795  0.98735532  0.14329869  1
  Na  Na11  1  0.98666690  0.60874950  0.23390217  1
  Na  Na12  1  0.03045165  0.99874293  0.15829242  1
  Na  Na13  1  0.46231780  0.30844954  0.19463578  1
  Na  Na14  1  0.48829508  0.91636544  0.26511324  1
  Na  Na15  1  0.00003604  0.71451111  0.13399793  1
  Na  Na16  1  0.96885269  0.32397997  0.21015691  1
  Na  Na17  1  0.98842851  0.82069740  0.20561768  1
  Na  Na18  1  0.96721783  0.22469464  0.13675730  1
  Na  Na19  1  0.48266559  0.70194286  0.29153778  1
  Na  Na20  1  0.46919466  0.30581778  0.36413066  1
  Na  Na21  1  0.45826714  0.80124242  0.36410552  1
  Na  Na22  1  0.46372130  0.19318691  0.28910521  1
  Na  Na23  1  0.94669665  0.82010777  0.37503260  1
  Na  Na24  1  0.95491391  0.21119543  0.30222105  1
  Na  Na25  1  0.49267668  0.52739160  0.33974619  1
  Na  Na26  1  0.52904833  0.12480361  0.40208416  1
  Na  Na27  1  0.98465315  0.92487138  0.27885569  1
  Na  Na28  1  0.99168526  0.52362749  0.35614270  1
  Na  Na29  1  0.98650385  0.03650807  0.35296468  1
  Na  Na30  1  0.98720984  0.43011028  0.28167020  1
  Na  Na31  1  0.46685298  0.92846719  0.43514868  1
  Na  Na32  1  0.48533359  0.41351016  0.43727191  1
  Na  Na33  1  0.44580510  0.75283087  0.47104026  1
  Na  Na34  1  0.99289986  0.13717399  0.43161450  1
  Na  Na35  1  0.99300387  0.63920019  0.42556548  1
  Na  Na36  1  0.39808697  0.91003596  0.57449864  1
  Na  Na37  1  0.40710835  0.39576961  0.57436003  1
  Na  Na38  1  0.89525683  0.35485905  0.59416841  1
  Na  Na39  1  0.98006975  0.98252623  0.52181495  1
  Na  Na40  1  0.39446458  0.08416014  0.62405607  1
  Na  Na41  1  0.90250214  0.67044985  0.56884880  1
  Na  Na42  1  0.87134219  0.17020213  0.55585522  1
  Na  Na43  1  0.41940587  0.29029312  0.64779136  1
  Na  Na44  1  0.41730962  0.68666263  0.71611876  1
  Na  Na45  1  0.41153004  0.18329847  0.72129765  1
  Na  Na46  1  0.38226631  0.78830002  0.64304488  1
  Na  Na47  1  0.90784347  0.16425534  0.73376807  1
  Na  Na48  1  0.86959463  0.77559704  0.65793518  1
  Na  Na49  1  0.44268309  0.46853808  0.69512686  1
  Na  Na50  1  0.41190721  0.85927901  0.76522886  1
  Na  Na51  1  0.89777342  0.06046641  0.63402879  1
  Na  Na52  1  0.93415516  0.45086578  0.71021579  1
  Na  Na53  1  0.91366516  0.95308494  0.70543842  1
  Na  Na54  1  0.93256353  0.55017231  0.63697976  1
  Na  Na55  1  0.42005462  0.07322733  0.79165976  1
  Na  Na56  1  0.43022770  0.46908128  0.86409330  1
  Na  Na57  1  0.44458479  0.97312004  0.86408970  1
  Na  Na58  1  0.43775874  0.58149537  0.78899285  1
  Na  Na59  1  0.95698529  0.95455169  0.87506707  1
  Na  Na60  1  0.94641740  0.56276197  0.80193204  1
  Na  Na61  1  0.40642220  0.24802704  0.83993795  1
  Na  Na62  1  0.36914759  0.64960406  0.90191426  1
  Na  Na63  1  0.91665926  0.84975655  0.77890038  1
  Na  Na64  1  0.90836729  0.25139482  0.85612614  1
  Na  Na65  1  0.91264998  0.73760981  0.85303046  1
  Na  Na66  1  0.91333559  0.34385321  0.78130500  1
  Na  Na67  1  0.43083016  0.84538135  0.93510622  1
  Na  Na68  1  0.41478580  0.36116628  0.93729294  1
  Na  Na69  1  0.45241988  0.02125458  0.97086724  1
  Na  Na70  1  0.90562980  0.63714282  0.93201471  1
  Na  Na71  1  0.90579313  0.13514654  0.92557061  1
  P  P72  1  0.99780391  0.89653480  0.08767647  1
  P  P73  1  0.46537181  0.20951741  0.11908741  1
  P  P74  1  0.52045552  0.57843834  0.05137602  1
  P  P75  1  0.98090573  0.50537719  0.16420441  1
  P  P76  1  0.98376236  0.10574833  0.22969849  1
  P  P77  1  0.48665891  0.40985060  0.27045229  1
  P  P78  1  0.49056707  0.80700619  0.19535288  1
  P  P79  1  0.98361793  0.71015347  0.30494101  1
  P  P80  1  0.97492250  0.30634820  0.38366265  1
  P  P81  1  0.48753220  0.62112568  0.41206295  1
  P  P82  1  0.48531135  0.01597359  0.33689879  1
  P  P83  1  0.96360883  0.92438252  0.44797699  1
  P  P84  1  0.90285110  0.87908323  0.58743475  1
  P  P85  1  0.43530552  0.56650229  0.61928169  1
  P  P86  1  0.37830365  0.19823635  0.55137251  1
  P  P87  1  0.91672303  0.26910682  0.66453004  1
  P  P88  1  0.91835267  0.66902472  0.72956048  1
  P  P89  1  0.41435414  0.36492262  0.77055892  1
  P  P90  1  0.41143471  0.96777646  0.69526856  1
  P  P91  1  0.92007643  0.06485458  0.80491127  1
  P  P92  1  0.92379975  0.46874947  0.88383295  1
  P  P93  1  0.41157621  0.15357946  0.91197379  1
  P  P94  1  0.41428088  0.75853010  0.83669981  1
  P  P95  1  0.93362645  0.85002057  0.94797779  1
  S  S96  1  0.14115999  0.78619893  0.07635997  1
  S  S97  1  0.72757058  0.48566412  0.04319138  1
  S  S98  1  0.64867382  0.11989494  0.10273723  1
  S  S99  1  0.20203301  0.98576485  0.09893824  1
  S  S100  1  0.34668099  0.54245839  0.08848778  1
  S  S101  1  0.81607040  0.87241038  0.12345524  1
  S  S102  1  0.66518535  0.68806101  0.06447831  1
  S  S103  1  0.83648682  0.54764556  0.12686180  1
  S  S104  1  0.84025023  0.94420244  0.05235114  1
  S  S105  1  0.25532727  0.24274245  0.08738463  1
  S  S106  1  0.34858848  0.59368783  0.01557233  1
  S  S107  1  0.12816092  0.39411430  0.15463050  1
  S  S108  1  0.13991508  0.99762348  0.22055447  1
  S  S109  1  0.67793451  0.71145606  0.18371965  1
  S  S110  1  0.67611695  0.31495287  0.25808105  1
  S  S111  1  0.17554387  0.59796865  0.17621881  1
  S  S112  1  0.16942307  0.20145483  0.24270829  1
  S  S113  1  0.33622547  0.76969380  0.23298638  1
  S  S114  1  0.32894754  0.16372925  0.15708558  1
  S  S115  1  0.78956832  0.47963204  0.19837450  1
  S  S116  1  0.79209099  0.08060632  0.26378092  1
  S  S117  1  0.62257100  0.31698470  0.13003961  1
  S  S118  1  0.64261461  0.91628385  0.20467812  1
  S  S119  1  0.83794274  0.75033310  0.26704285  1
  S  S120  1  0.83430745  0.14523442  0.19203592  1
  S  S121  1  0.29867577  0.43360743  0.23582081  1
  S  S122  1  0.30595745  0.83095015  0.16017046  1
  S  S123  1  0.14191437  0.60253130  0.29546318  1
  S  S124  1  0.13886319  0.19852667  0.37620022  1
  S  S125  1  0.66925779  0.91901679  0.32545982  1
  S  S126  1  0.67401428  0.52569411  0.40008676  1
  S  S127  1  0.16600842  0.80664968  0.31805199  1
  S  S128  1  0.15190340  0.40094096  0.39836921  1
  S  S129  1  0.34074271  0.98213035  0.37561407  1
  S  S130  1  0.33106269  0.37066313  0.30767329  1
  S  S131  1  0.79168809  0.68306215  0.33886509  1
  S  S132  1  0.76050049  0.27637307  0.41508140  1
  S  S133  1  0.63761473  0.51895662  0.28017983  1
  S  S134  1  0.63930008  0.12738795  0.34314917  1
  S  S135  1  0.82615845  0.97670461  0.41056671  1
  S  S136  1  0.84401632  0.34565921  0.34429206  1
  S  S137  1  0.28539485  0.64098239  0.37889662  1
  S  S138  1  0.28671857  0.03827535  0.30352486  1
  S  S139  1  0.12797444  0.82214469  0.43372386  1
  S  S140  1  0.15201768  0.01172433  0.46618636  1
  S  S141  1  0.35703873  0.58711853  0.45207532  1
  S  S142  1  0.75803577  0.89286365  0.47875335  1
  S  S143  1  0.64091051  0.73207746  0.41801100  1
  S  S144  1  0.75946650  0.98949487  0.57617614  1
  S  S145  1  0.17085377  0.29104788  0.54337740  1
  S  S146  1  0.25158751  0.65553234  0.60263738  1
  S  S147  1  0.69852766  0.78982679  0.59858734  1
  S  S148  1  0.55211416  0.23369899  0.58852500  1
  S  S149  1  0.08412422  0.90314166  0.62326532  1
  S  S150  1  0.23405686  0.08843005  0.56432786  1
  S  S151  1  0.06192900  0.22704703  0.62720159  1
  S  S152  1  0.06050709  0.83146207  0.55212650  1
  S  S153  1  0.64542453  0.53262229  0.58769356  1
  S  S154  1  0.55020293  0.18370478  0.51551873  1
  S  S155  1  0.77147115  0.38085126  0.65491533  1
  S  S156  1  0.76310983  0.77738087  0.72038602  1
  S  S157  1  0.22312402  0.06297593  0.68370630  1
  S  S158  1  0.22440686  0.45973357  0.75824235  1
  S  S159  1  0.72060378  0.17676299  0.67615735  1
  S  S160  1  0.73107605  0.57362343  0.74243712  1
  S  S161  1  0.56644294  0.00502831  0.73287038  1
  S  S162  1  0.57191519  0.61324960  0.65712445  1
  S  S163  1  0.10700596  0.29386088  0.69889331  1
  S  S164  1  0.10897301  0.69382685  0.76378967  1
  S  S165  1  0.27873997  0.45910273  0.63059057  1
  S  S166  1  0.25979722  0.85843122  0.70466589  1
  S  S167  1  0.06449070  0.02483428  0.76687841  1
  S  S168  1  0.06868057  0.62914737  0.69205090  1
  S  S169  1  0.60142183  0.34098332  0.73582298  1
  S  S170  1  0.59511588  0.94391545  0.65998861  1
  S  S171  1  0.76090558  0.17235919  0.79562268  1
  S  S172  1  0.76015583  0.57672572  0.87650696  1
  S  S173  1  0.23038501  0.85567987  0.82544193  1
  S  S174  1  0.22488180  0.24918149  0.90023335  1
  S  S175  1  0.73791023  0.96843560  0.81815483  1
  S  S176  1  0.74652952  0.37402030  0.89841955  1
  S  S177  1  0.55800548  0.79214648  0.87551261  1
  S  S178  1  0.57054444  0.40431119  0.80770569  1
  S  S179  1  0.11267884  0.09167083  0.83873320  1
  S  S180  1  0.13827649  0.49844295  0.91526559  1
  S  S181  1  0.26372503  0.25584324  0.78037600  1
  S  S182  1  0.26035692  0.64702254  0.84280585  1
  S  S183  1  0.07146063  0.79763232  0.91061260  1
  S  S184  1  0.05457694  0.42948499  0.84444800  1
  S  S185  1  0.61348222  0.13421661  0.87873200  1
  S  S186  1  0.61338706  0.73675356  0.80335972  1
  S  S187  1  0.76964912  0.95225710  0.93358740  1
  S  S188  1  0.74504380  0.76296237  0.96630017  1
  S  S189  1  0.54214976  0.18705932  0.95203562  1
  S  S190  1  0.13949392  0.88126908  0.97873863  1
  S  S191  1  0.25833780  0.04246241  0.91778861  1
