# generated using pymatgen
data_Na3PS4
_symmetry_space_group_name_H-M   'P 1'
_cell_length_a   7.00642000
_cell_length_b   15.74106402
_cell_length_c   41.38089649
_cell_angle_alpha   90.00000000
_cell_angle_beta   90.00000000
_cell_angle_gamma   90.00322858
_symmetry_Int_Tables_number   1
_chemical_formula_structural   Na3PS4
_chemical_formula_sum   'Na72 P24 S96'
_cell_volume   4563.83723543
_cell_formula_units_Z   24
loop_
 _symmetry_equiv_pos_site_id
 _symmetry_equiv_pos_as_xyz
  1  'x, y, z'
loop_
 _atom_site_type_symbol
 _atom_site_label
 _atom_site_symmetry_multiplicity
 _atom_site_fract_x
 _atom_site_fract_y
 _atom_site_fract_z
 _atom_site_occupancy
  Na  Na0  1  0.42717023  0.42570898  0.10051737  1
  Na  Na1  1  0.47337563  0.90644558  0.02697700  1
  Na  Na2  1  0.44303014  0.93733615  0.10613104  1
  Na  Na3  1  0.86801394  0.32229427  0.04660594  1
  Na  Na4  1  0.94219889  0.94391260  0.11714252  1
  Na  Na5  1  0.42009536  0.70078702  0.07223346  1
  Na  Na6  1  0.92700675  0.66195422  0.08608691  1
  Na  Na7  1  0.94970062  0.06220381  0.01332091  1
  Na  Na8  1  0.92770336  0.15546965  0.09186384  1
  Na  Na9  1  0.41279965  0.63959239  0.25679829  1
  Na  Na10  1  0.41499378  0.03702816  0.18093720  1
  Na  Na11  1  0.43286897  0.53746661  0.17708043  1
  Na  Na12  1  0.39937000  0.14328407  0.25582131  1
  Na  Na13  1  0.94994818  0.55191651  0.19211019  1
  Na  Na14  1  0.89937152  0.16419360  0.26709649  1
  Na  Na15  1  0.38582271  0.25002237  0.15334529  1
  Na  Na16  1  0.39247726  0.85306726  0.23192564  1
  Na  Na17  1  0.89554257  0.87182516  0.24394963  1
  Na  Na18  1  0.89272135  0.27080485  0.16563035  1
  Na  Na19  1  0.90978745  0.76569181  0.16752901  1
  Na  Na20  1  0.91036180  0.37721112  0.24373914  1
  Na  Na21  1  0.40835921  0.86041258  0.40879737  1
  Na  Na22  1  0.40697148  0.24782676  0.33238058  1
  Na  Na23  1  0.39125695  0.74413793  0.33497360  1
  Na  Na24  1  0.41877618  0.35167794  0.41279029  1
  Na  Na25  1  0.88893065  0.77136563  0.34599682  1
  Na  Na26  1  0.91844637  0.32354681  0.42453516  1
  Na  Na27  1  0.42174628  0.46234018  0.30830319  1
  Na  Na28  1  0.45107889  0.06806308  0.38219242  1
  Na  Na29  1  0.94790076  0.07670721  0.39361679  1
  Na  Na30  1  0.91292394  0.47874674  0.32352910  1
  Na  Na31  1  0.90829637  0.98034246  0.31839138  1
  Na  Na32  1  0.90714258  0.59432560  0.39918042  1
  Na  Na33  1  0.43691287  0.95448601  0.48661734  1
  Na  Na34  1  0.33582583  0.69182692  0.45547831  1
  Na  Na35  1  0.95407937  0.11973824  0.47242519  1
  Na  Na36  1  0.95743584  0.08153983  0.60129043  1
  Na  Na37  1  0.92402493  0.60468291  0.52737477  1
  Na  Na38  1  0.90967055  0.56531364  0.60681340  1
  Na  Na39  1  0.54669557  0.18309798  0.54654530  1
  Na  Na40  1  0.40464841  0.55592875  0.61813984  1
  Na  Na41  1  0.95602193  0.81010384  0.57443967  1
  Na  Na42  1  0.45354810  0.83792286  0.58613454  1
  Na  Na43  1  0.44398669  0.43925988  0.51231268  1
  Na  Na44  1  0.45882443  0.35203283  0.59116391  1
  Na  Na45  1  0.95863599  0.86602901  0.75674594  1
  Na  Na46  1  0.95757943  0.46835546  0.68214369  1
  Na  Na47  1  0.95005264  0.96522519  0.67625672  1
  Na  Na48  1  0.95498134  0.35861253  0.75601702  1
  Na  Na49  1  0.43683555  0.94758024  0.69104052  1
  Na  Na50  1  0.44647114  0.34008807  0.76781424  1
  Na  Na51  1  0.99396970  0.26042110  0.65405790  1
  Na  Na52  1  0.97957822  0.65325821  0.73367872  1
  Na  Na53  1  0.47354303  0.62668830  0.74551592  1
  Na  Na54  1  0.48515906  0.23121865  0.66373434  1
  Na  Na55  1  0.46340145  0.73346666  0.66815195  1
  Na  Na56  1  0.46242014  0.12742132  0.74218142  1
  Na  Na57  1  0.95636931  0.64607409  0.90861528  1
  Na  Na58  1  0.94964546  0.25868129  0.83355139  1
  Na  Na59  1  0.97599726  0.75773896  0.83471986  1
  Na  Na60  1  0.92394992  0.14929207  0.91565345  1
  Na  Na61  1  0.47647977  0.71669881  0.84357058  1
  Na  Na62  1  0.40913628  0.12980620  0.91395981  1
  Na  Na63  1  0.96648952  0.04725203  0.80769282  1
  Na  Na64  1  0.92615284  0.44095250  0.88568998  1
  Na  Na65  1  0.42945743  0.40932389  0.90469725  1
  Na  Na66  1  0.46625906  0.02255618  0.82080426  1
  Na  Na67  1  0.45672643  0.51311515  0.82263509  1
  Na  Na68  1  0.46859741  0.89864899  0.89475139  1
  Na  Na69  1  0.92581321  0.54186061  0.98411858  1
  Na  Na70  1  0.06685433  0.81003265  0.95579312  1
  Na  Na71  1  0.42963201  0.28914436  0.98846273  1
  P  P72  1  0.92381110  0.45184839  0.11351091  1
  P  P73  1  0.94621229  0.84642882  0.03644606  1
  P  P74  1  0.42854576  0.14652403  0.07507326  1
  P  P75  1  0.91065997  0.65668687  0.27010993  1
  P  P76  1  0.91428589  0.05307519  0.19246346  1
  P  P77  1  0.40848874  0.35913156  0.23006181  1
  P  P78  1  0.41099986  0.75382691  0.15420810  1
  P  P79  1  0.90051364  0.86954456  0.42506203  1
  P  P80  1  0.90774245  0.26076835  0.34466392  1
  P  P81  1  0.40203962  0.56223497  0.38670362  1
  P  P82  1  0.40761136  0.96230029  0.30709807  1
  P  P83  1  0.43304151  0.17003278  0.46241633  1
  P  P84  1  0.46160862  0.04871684  0.61207422  1
  P  P85  1  0.44510104  0.65602325  0.53631808  1
  P  P86  1  0.96812098  0.35922683  0.57540658  1
  P  P87  1  0.46073387  0.84349717  0.77009771  1
  P  P88  1  0.45779372  0.44893720  0.69282349  1
  P  P89  1  0.96366034  0.14450092  0.72863865  1
  P  P90  1  0.96306856  0.74840466  0.65509981  1
  P  P91  1  0.46365607  0.62895909  0.92450861  1
  P  P92  1  0.44824150  0.23759383  0.84389682  1
  P  P93  1  0.97398024  0.93980161  0.88673090  1
  P  P94  1  0.95934037  0.53925067  0.80814398  1
  P  P95  1  0.95923356  0.32452101  0.96565991  1
  S  S96  1  0.07016368  0.33958047  0.10535588  1
  S  S97  1  0.10596684  0.74019878  0.02473815  1
  S  S98  1  0.62478486  0.05452402  0.06151780  1
  S  S99  1  0.12021161  0.94052798  0.05496025  1
  S  S100  1  0.27788880  0.10264958  0.11525203  1
  S  S101  1  0.74257158  0.81659698  0.07162050  1
  S  S102  1  0.58230927  0.25237668  0.08942605  1
  S  S103  1  0.77349419  0.48999233  0.07294528  1
  S  S104  1  0.81604283  0.89377724  0.99597940  1
  S  S105  1  0.24048563  0.17635925  0.03902256  1
  S  S106  1  0.21464055  0.78769170  0.11905720  1
  S  S107  1  0.06519965  0.54787713  0.26056152  1
  S  S108  1  0.06782346  0.94329512  0.18376025  1
  S  S109  1  0.59430641  0.66326502  0.13630821  1
  S  S110  1  0.59357923  0.26357717  0.21576565  1
  S  S111  1  0.12275965  0.54444492  0.12446667  1
  S  S112  1  0.10041495  0.15036561  0.20451716  1
  S  S113  1  0.26390353  0.70704426  0.19375034  1
  S  S114  1  0.25880309  0.31846364  0.27023909  1
  S  S115  1  0.73697466  0.43234080  0.15152726  1
  S  S116  1  0.72399436  0.03137408  0.22968431  1
  S  S117  1  0.56319609  0.46699057  0.24071519  1
  S  S118  1  0.56613081  0.86035795  0.16706024  1
  S  S119  1  0.76291931  0.69441809  0.22928090  1
  S  S120  1  0.76467810  0.08823129  0.15174910  1
  S  S121  1  0.21850837  0.38570545  0.19318013  1
  S  S122  1  0.21910723  0.98503541  0.26976831  1
  S  S123  1  0.06031484  0.76517052  0.41034818  1
  S  S124  1  0.06263345  0.15446477  0.33174462  1
  S  S125  1  0.59319167  0.86494760  0.29483140  1
  S  S126  1  0.60407158  0.47091869  0.37502169  1
  S  S127  1  0.09598790  0.75284677  0.28350750  1
  S  S128  1  0.09241694  0.35233796  0.36158529  1
  S  S129  1  0.25559209  0.92675691  0.34762721  1
  S  S130  1  0.24733972  0.52024499  0.42628552  1
  S  S131  1  0.71844092  0.63294956  0.30696754  1
  S  S132  1  0.71621967  0.22680552  0.38056685  1
  S  S133  1  0.54550513  0.67367694  0.39659534  1
  S  S134  1  0.56213708  0.07169405  0.31593403  1
  S  S135  1  0.76122859  0.91610498  0.38390777  1
  S  S136  1  0.75659228  0.30741215  0.30559539  1
  S  S137  1  0.21986113  0.58436981  0.34831330  1
  S  S138  1  0.23077912  0.19984505  0.42708608  1
  S  S139  1  0.60964999  0.07666150  0.44465419  1
  S  S140  1  0.09645332  0.95959406  0.44081315  1
  S  S141  1  0.29920032  0.12146955  0.50228782  1
  S  S142  1  0.70515689  0.83679387  0.45929535  1
  S  S143  1  0.59404808  0.27640434  0.47434274  1
  S  S144  1  0.32059469  0.16108712  0.60275490  1
  S  S145  1  0.28076586  0.76149613  0.52448019  1
  S  S146  1  0.77115637  0.44811317  0.55937762  1
  S  S147  1  0.27174604  0.56165204  0.55420783  1
  S  S148  1  0.10668369  0.40710166  0.61637209  1
  S  S149  1  0.64476446  0.68753599  0.57185790  1
  S  S150  1  0.80941173  0.25499280  0.59104966  1
  S  S151  1  0.61773621  0.00864985  0.57219680  1
  S  S152  1  0.58072602  0.60925031  0.49623173  1
  S  S153  1  0.16223373  0.32549740  0.54131190  1
  S  S154  1  0.15434193  0.71353531  0.61919290  1
  S  S155  1  0.31206468  0.95359091  0.75971248  1
  S  S156  1  0.30536232  0.55951981  0.68506569  1
  S  S157  1  0.77662270  0.83849937  0.63766199  1
  S  S158  1  0.77577002  0.23857976  0.71435051  1
  S  S159  1  0.25883468  0.95726025  0.62296589  1
  S  S160  1  0.27063977  0.35149692  0.70409112  1
  S  S161  1  0.11395201  0.79723828  0.69383464  1
  S  S162  1  0.11135859  0.18707007  0.76870366  1
  S  S163  1  0.64343851  0.06848652  0.65069922  1
  S  S164  1  0.64494107  0.46866947  0.73059050  1
  S  S165  1  0.81105654  0.03623397  0.74005945  1
  S  S166  1  0.80986647  0.64244937  0.66896285  1
  S  S167  1  0.61190649  0.80413443  0.72997807  1
  S  S168  1  0.61050034  0.41618309  0.65210627  1
  S  S169  1  0.15472609  0.11758146  0.69189676  1
  S  S170  1  0.14602926  0.51524931  0.77067978  1
  S  S171  1  0.31596383  0.73529443  0.90769590  1
  S  S172  1  0.30084857  0.34737603  0.83392091  1
  S  S173  1  0.77075166  0.63509467  0.79548584  1
  S  S174  1  0.76669528  0.02966823  0.87541563  1
  S  S175  1  0.26871620  0.74930583  0.78300103  1
  S  S176  1  0.24999672  0.14453406  0.85477950  1
  S  S177  1  0.11196621  0.57854777  0.84802056  1
  S  S178  1  0.13863779  0.98455039  0.92529977  1
  S  S179  1  0.64914943  0.86596860  0.80765344  1
  S  S180  1  0.62721245  0.25956550  0.88284192  1
  S  S181  1  0.83543208  0.82969726  0.89919106  1
  S  S182  1  0.80751465  0.42977877  0.81815155  1
  S  S183  1  0.60840764  0.57639752  0.88503083  1
  S  S184  1  0.61025486  0.19813126  0.80486553  1
  S  S185  1  0.14782510  0.91728779  0.84753980  1
  S  S186  1  0.15507436  0.28457810  0.93096000  1
  S  S187  1  0.76348814  0.40851480  0.94761714  1
  S  S188  1  0.26006760  0.54390191  0.94011713  1
  S  S189  1  0.10612310  0.38551105  0.00148288  1
  S  S190  1  0.65667937  0.66295577  0.95906490  1
  S  S191  1  0.80774190  0.21863332  0.98241323  1
