# generated using pymatgen
data_Na3PS4
_symmetry_space_group_name_H-M   'P 1'
_cell_length_a   7.16981500
_cell_length_b   9.90845200
_cell_length_c   40.33359250
_cell_angle_alpha   90.00000000
_cell_angle_beta   90.00000000
_cell_angle_gamma   90.00000000
_symmetry_Int_Tables_number   1
_chemical_formula_structural   Na3PS4
_chemical_formula_sum   'Na48 P16 S64'
_cell_volume   2865.36971186
_cell_formula_units_Z   16
loop_
 _symmetry_equiv_pos_site_id
 _symmetry_equiv_pos_as_xyz
  1  'x, y, z'
loop_
 _atom_site_type_symbol
 _atom_site_label
 _atom_site_symmetry_multiplicity
 _atom_site_fract_x
 _atom_site_fract_y
 _atom_site_fract_z
 _atom_site_occupancy
  Na  Na0  1  0.98514686  0.10899941  0.99969476  1
  Na  Na1  1  0.98251414  0.67016233  0.00170499  1
  Na  Na2  1  0.72614972  0.63821434  0.12759820  1
  Na  Na3  1  0.22608869  0.64117246  0.12777739  1
  Na  Na4  1  0.12949007  0.40879348  0.06392701  1
  Na  Na5  1  0.62352894  0.85704521  0.06182977  1
  Na  Na6  1  0.57486888  0.13084140  0.12567014  1
  Na  Na7  1  0.07207817  0.14271176  0.12637623  1
  Na  Na8  1  0.72852260  0.14052786  0.25000615  1
  Na  Na9  1  0.22850478  0.14057426  0.25000353  1
  Na  Na10  1  0.13934036  0.89111728  0.19053044  1
  Na  Na11  1  0.63821126  0.38673666  0.18918484  1
  Na  Na12  1  0.54915306  0.63875718  0.24995304  1
  Na  Na13  1  0.04909581  0.63880400  0.25004562  1
  Na  Na14  1  0.72641205  0.64112637  0.37221336  1
  Na  Na15  1  0.22640736  0.63803046  0.37239142  1
  Na  Na16  1  0.13836796  0.38679055  0.31079883  1
  Na  Na17  1  0.63924634  0.89109043  0.30947123  1
  Na  Na18  1  0.57226627  0.14262619  0.37364203  1
  Na  Na19  1  0.07481318  0.13099120  0.37433796  1
  Na  Na20  1  0.48628817  0.10865146  0.50035479  1
  Na  Na21  1  0.12402349  0.85688599  0.43808123  1
  Na  Na22  1  0.62964519  0.40895967  0.43606331  1
  Na  Na23  1  0.48306193  0.67010465  0.49829915  1
  Na  Na24  1  0.97470530  0.14051837  0.50004818  1
  Na  Na25  1  0.99265738  0.57982764  0.50161298  1
  Na  Na26  1  0.24906900  0.61200886  0.62764392  1
  Na  Na27  1  0.74899630  0.60879652  0.62780461  1
  Na  Na28  1  0.84658797  0.84023174  0.56393398  1
  Na  Na29  1  0.35142682  0.39369922  0.56190162  1
  Na  Na30  1  0.40070668  0.11915835  0.62571905  1
  Na  Na31  1  0.90341071  0.10706543  0.62631265  1
  Na  Na32  1  0.24710933  0.10946116  0.75001103  1
  Na  Na33  1  0.74709772  0.10940440  0.75000861  1
  Na  Na34  1  0.83611242  0.35892490  0.69048009  1
  Na  Na35  1  0.33711832  0.86314692  0.68922894  1
  Na  Na36  1  0.42610638  0.61105618  0.74996339  1
  Na  Na37  1  0.92615404  0.61108733  0.75003878  1
  Na  Na38  1  0.24889223  0.60880336  0.87217845  1
  Na  Na39  1  0.74891551  0.61208771  0.87235907  1
  Na  Na40  1  0.83694740  0.86320025  0.81078401  1
  Na  Na41  1  0.33612652  0.35887047  0.80955410  1
  Na  Na42  1  0.40360433  0.10710182  0.87369417  1
  Na  Na43  1  0.90099557  0.11909694  0.87428537  1
  Na  Na44  1  0.47358586  0.14018128  0.99991702  1
  Na  Na45  1  0.85140336  0.39365284  0.93805350  1
  Na  Na46  1  0.34615557  0.84032009  0.93599211  1
  Na  Na47  1  0.49214293  0.57974550  0.99836832  1
  P  P48  1  0.63088508  0.38838396  0.06481438  1
  P  P49  1  0.12527239  0.88517470  0.06572587  1
  P  P50  1  0.64029466  0.88900372  0.18890218  1
  P  P51  1  0.13952734  0.39050531  0.18843284  1
  P  P52  1  0.63975555  0.39044880  0.31155500  1
  P  P53  1  0.14027468  0.88902260  0.31113513  1
  P  P54  1  0.62575423  0.88500815  0.43429006  1
  P  P55  1  0.13102905  0.38841660  0.43516164  1
  P  P56  1  0.34523121  0.86179858  0.56489629  1
  P  P57  1  0.84974943  0.36502245  0.56572671  1
  P  P58  1  0.33516288  0.36097484  0.68889788  1
  P  P59  1  0.83571550  0.85936601  0.68845851  1
  P  P60  1  0.33568455  0.85941879  0.81154966  1
  P  P61  1  0.83508030  0.36103631  0.81113063  1
  P  P62  1  0.34967727  0.36496736  0.93424077  1
  P  P63  1  0.84496142  0.86194813  0.93510353  1
  S  S64  1  0.78850120  0.39066966  0.02139327  1
  S  S65  1  0.27429296  0.88043521  0.02149717  1
  S  S66  1  0.44639425  0.22968110  0.06415665  1
  S  S67  1  0.93624744  0.04108439  0.06496689  1
  S  S68  1  0.80992420  0.90640747  0.14786014  1
  S  S69  1  0.30680653  0.37181497  0.14702220  1
  S  S70  1  0.47354955  0.72009407  0.18372882  1
  S  S71  1  0.97310771  0.55960973  0.18355328  1
  S  S72  1  0.48002490  0.56668630  0.06805876  1
  S  S73  1  0.98055260  0.70493731  0.07050357  1
  S  S74  1  0.80366730  0.37161525  0.10554437  1
  S  S75  1  0.30408029  0.90659364  0.10546381  1
  S  S76  1  0.80153190  0.40984138  0.26933118  1
  S  S77  1  0.29960668  0.86948517  0.26860881  1
  S  S78  1  0.47595576  0.21942500  0.30734310  1
  S  S79  1  0.97704136  0.06054870  0.30736904  1
  S  S80  1  0.47698218  0.06053528  0.19265904  1
  S  S81  1  0.97577856  0.21946584  0.19264916  1
  S  S82  1  0.79946290  0.86943134  0.23145678  1
  S  S83  1  0.30137097  0.40992206  0.23065034  1
  S  S84  1  0.80433183  0.90647209  0.39452303  1
  S  S85  1  0.30386922  0.37149320  0.39443253  1
  S  S86  1  0.48118004  0.70461997  0.42952969  1
  S  S87  1  0.98031321  0.56674752  0.43192245  1
  S  S88  1  0.47326195  0.55961494  0.31644404  1
  S  S89  1  0.97363983  0.72000876  0.31626403  1
  S  S90  1  0.80708773  0.37176543  0.35295157  1
  S  S91  1  0.30970414  0.90642940  0.35220815  1
  S  S92  1  0.43668562  0.04090740  0.43509249  1
  S  S93  1  0.94628687  0.22984372  0.43582259  1
  S  S94  1  0.77500284  0.88033839  0.47850756  1
  S  S95  1  0.28866655  0.39055743  0.47857407  1
  S  S96  1  0.18805452  0.86069733  0.52143876  1
  S  S97  1  0.70001032  0.36936196  0.52157500  1
  S  S98  1  0.53091861  0.01984212  0.56439140  1
  S  S99  1  0.03926629  0.20935003  0.56486436  1
  S  S100  1  0.16560425  0.34347828  0.64783276  1
  S  S101  1  0.66848160  0.87811045  0.64705406  1
  S  S102  1  0.50192422  0.52992529  0.68373255  1
  S  S103  1  0.00229197  0.69030407  0.68360857  1
  S  S104  1  0.49513551  0.68316690  0.56805874  1
  S  S105  1  0.99414444  0.54552123  0.57046321  1
  S  S106  1  0.17192517  0.87867146  0.60555654  1
  S  S107  1  0.67148608  0.34327531  0.60552520  1
  S  S108  1  0.17380124  0.84002657  0.76932593  1
  S  S109  1  0.67569582  0.38051817  0.76860623  1
  S  S110  1  0.49942193  0.03046652  0.80732005  1
  S  S111  1  0.99850120  0.18957133  0.80733546  1
  S  S112  1  0.49859415  0.18953440  0.69267442  1
  S  S113  1  0.99941146  0.03040974  0.69266857  1
  S  S114  1  0.17593616  0.38058202  0.73144495  1
  S  S115  1  0.67383148  0.84004309  0.73067198  1
  S  S116  1  0.17143122  0.34327430  0.89442974  1
  S  S117  1  0.67183168  0.87877532  0.89441412  1
  S  S118  1  0.49391844  0.54557545  0.92952010  1
  S  S119  1  0.99497931  0.68327520  0.93194232  1
  S  S120  1  0.50223603  0.69035090  0.81642374  1
  S  S121  1  0.00184212  0.52996283  0.81625001  1
  S  S122  1  0.16843583  0.87819444  0.85296544  1
  S  S123  1  0.66566716  0.34351819  0.85220527  1
  S  S124  1  0.53930578  0.20937632  0.93512677  1
  S  S125  1  0.03052432  0.02011249  0.93569800  1
  S  S126  1  0.19977291  0.36924933  0.97838118  1
  S  S127  1  0.68740122  0.86073865  0.97855156  1
