# generated using pymatgen
data_Na3PS4
_symmetry_space_group_name_H-M   'P 1'
_cell_length_a   7.00642000
_cell_length_b   15.96026505
_cell_length_c   48.57348338
_cell_angle_alpha   90.00000000
_cell_angle_beta   90.00000000
_cell_angle_gamma   90.00450892
_symmetry_Int_Tables_number   1
_chemical_formula_structural   Na3PS4
_chemical_formula_sum   'Na84 P28 S112'
_cell_volume   5431.69674386
_cell_formula_units_Z   28
loop_
 _symmetry_equiv_pos_site_id
 _symmetry_equiv_pos_as_xyz
  1  'x, y, z'
loop_
 _atom_site_type_symbol
 _atom_site_label
 _atom_site_symmetry_multiplicity
 _atom_site_fract_x
 _atom_site_fract_y
 _atom_site_fract_z
 _atom_site_occupancy
  Na  Na0  1  0.48675953  0.12582796  0.06045482  1
  Na  Na1  1  0.49236779  0.51769008  0.13206615  1
  Na  Na2  1  0.50522237  0.32172038  0.09691060  1
  Na  Na3  1  0.00999098  0.35302546  0.10793184  1
  Na  Na4  1  0.95558584  0.97002808  0.03860993  1
  Na  Na5  1  0.49422956  0.06463452  0.12857989  1
  Na  Na6  1  0.47721522  0.64583516  0.07541082  1
  Na  Na7  1  0.00468309  0.28900060  0.01510919  1
  Na  Na8  1  0.98870240  0.68656380  0.08249104  1
  Na  Na9  1  0.98295366  0.89679204  0.10780590  1
  Na  Na10  1  0.97440412  0.47826084  0.04675273  1
  Na  Na11  1  0.48761784  0.93448979  0.19189564  1
  Na  Na12  1  0.48988359  0.33289094  0.26071951  1
  Na  Na13  1  0.49527821  0.13094231  0.22796744  1
  Na  Na14  1  0.50336772  0.72850967  0.16148812  1
  Na  Na15  1  0.99751580  0.15946145  0.23743933  1
  Na  Na16  1  0.00671677  0.75966837  0.17024407  1
  Na  Na17  1  0.49384991  0.87392973  0.26250246  1
  Na  Na18  1  0.47374977  0.46293679  0.20181623  1
  Na  Na19  1  0.99475146  0.09480414  0.14186011  1
  Na  Na20  1  0.97730945  0.49603454  0.20781556  1
  Na  Na21  1  0.99042382  0.70020235  0.23906201  1
  Na  Na22  1  0.98596940  0.28931873  0.17672702  1
  Na  Na23  1  0.48782841  0.74396184  0.32301396  1
  Na  Na24  1  0.48075100  0.13766927  0.39134179  1
  Na  Na25  1  0.49514287  0.93853510  0.35749817  1
  Na  Na26  1  0.47866071  0.53760886  0.29228512  1
  Na  Na27  1  0.99574413  0.96930067  0.37147775  1
  Na  Na28  1  0.97491111  0.57007238  0.29851065  1
  Na  Na29  1  0.50528656  0.68188320  0.39189614  1
  Na  Na30  1  0.51136784  0.27548387  0.32930573  1
  Na  Na31  1  0.99294690  0.90227119  0.27158494  1
  Na  Na32  1  0.00695615  0.30581905  0.33885495  1
  Na  Na33  1  0.99467556  0.51599635  0.36865082  1
  Na  Na34  1  0.98738851  0.09928711  0.30789252  1
  Na  Na35  1  0.47989066  0.56002934  0.45371416  1
  Na  Na36  1  0.50135160  0.75099129  0.48501880  1
  Na  Na37  1  0.49306431  0.34802305  0.41760815  1
  Na  Na38  1  0.98172104  0.38887110  0.42684478  1
  Na  Na39  1  0.47310063  0.06727359  0.45928261  1
  Na  Na40  1  0.00239178  0.71331550  0.40275479  1
  Na  Na41  1  0.98708470  0.90785477  0.43954056  1
  Na  Na42  1  0.41375323  0.39967553  0.56034315  1
  Na  Na43  1  0.40782944  0.00790523  0.63197173  1
  Na  Na44  1  0.39679396  0.20448228  0.59703998  1
  Na  Na45  1  0.89240218  0.17270235  0.60795476  1
  Na  Na46  1  0.94201353  0.55671710  0.53893249  1
  Na  Na47  1  0.40610018  0.46114945  0.62841822  1
  Na  Na48  1  0.42489212  0.87996514  0.57512957  1
  Na  Na49  1  0.89899617  0.23760238  0.51510767  1
  Na  Na50  1  0.91215978  0.83907754  0.58259096  1
  Na  Na51  1  0.91805109  0.62870383  0.60796353  1
  Na  Na52  1  0.92758776  0.04775014  0.54675592  1
  Na  Na53  1  0.41281992  0.59078436  0.69185192  1
  Na  Na54  1  0.40842906  0.19216831  0.76057693  1
  Na  Na55  1  0.40405975  0.39442163  0.72797618  1
  Na  Na56  1  0.39700364  0.79705786  0.66145712  1
  Na  Na57  1  0.90085761  0.36631789  0.73785917  1
  Na  Na58  1  0.89366025  0.76651361  0.67050274  1
  Na  Na59  1  0.40467720  0.65101201  0.76247959  1
  Na  Na60  1  0.42514593  0.06232593  0.70154732  1
  Na  Na61  1  0.90553315  0.43075996  0.64185017  1
  Na  Na62  1  0.92093851  0.02913190  0.70794330  1
  Na  Na63  1  0.90878662  0.82486192  0.73928369  1
  Na  Na64  1  0.91324590  0.23650677  0.67691118  1
  Na  Na65  1  0.41203911  0.78062446  0.82305179  1
  Na  Na66  1  0.41910929  0.38641374  0.89118567  1
  Na  Na67  1  0.40503001  0.58558907  0.85750476  1
  Na  Na68  1  0.41910152  0.98798071  0.79230966  1
  Na  Na69  1  0.90498736  0.55512731  0.87171992  1
  Na  Na70  1  0.92275081  0.95458051  0.79862599  1
  Na  Na71  1  0.39477763  0.84262525  0.89193290  1
  Na  Na72  1  0.38824443  0.24851974  0.82908231  1
  Na  Na73  1  0.90640613  0.62210940  0.77159785  1
  Na  Na74  1  0.89245543  0.21845800  0.83908195  1
  Na  Na75  1  0.90509113  0.00835206  0.86876782  1
  Na  Na76  1  0.91215263  0.42535925  0.80816367  1
  Na  Na77  1  0.42054318  0.96315465  0.95379829  1
  Na  Na78  1  0.39918850  0.77234548  0.98517881  1
  Na  Na79  1  0.40627516  0.17614131  0.91773231  1
  Na  Na80  1  0.91793575  0.13454629  0.92705702  1
  Na  Na81  1  0.42664456  0.45618772  0.95881789  1
  Na  Na82  1  0.89781474  0.81073131  0.90264815  1
  Na  Na83  1  0.91224854  0.61718472  0.93976995  1
  P  P84  1  0.98754369  0.15892985  0.07203952  1
  P  P85  1  0.99448203  0.55771522  0.13834856  1
  P  P86  1  0.48470488  0.45935330  0.03951318  1
  P  P87  1  0.48443239  0.85452864  0.09744356  1
  P  P88  1  0.99054445  0.96226293  0.20078856  1
  P  P89  1  0.99037989  0.36564893  0.26704765  1
  P  P90  1  0.48761300  0.26019295  0.16897150  1
  P  P91  1  0.49057216  0.66765150  0.23295751  1
  P  P92  1  0.98945268  0.77330904  0.33069702  1
  P  P93  1  0.98474516  0.17985784  0.40310154  1
  P  P94  1  0.49041176  0.07176486  0.29886442  1
  P  P95  1  0.49733328  0.47618764  0.36192540  1
  P  P96  1  0.98893520  0.57875492  0.46082771  1
  P  P97  1  0.48778475  0.87702359  0.42719052  1
  P  P98  1  0.91302269  0.36716396  0.57203653  1
  P  P99  1  0.90591912  0.96808353  0.63838099  1
  P  P100  1  0.41728523  0.06687575  0.53965793  1
  P  P101  1  0.41690848  0.67131256  0.59738684  1
  P  P102  1  0.90975437  0.56318903  0.70075530  1
  P  P103  1  0.90743656  0.15967827  0.76728301  1
  P  P104  1  0.41157488  0.26573369  0.66892015  1
  P  P105  1  0.40873080  0.85783642  0.73300970  1
  P  P106  1  0.91088490  0.75056692  0.83068312  1
  P  P107  1  0.91488287  0.34366268  0.90309197  1
  P  P108  1  0.40876660  0.45278333  0.79893676  1
  P  P109  1  0.40260909  0.04787417  0.86198438  1
  P  P110  1  0.91145916  0.94452006  0.96096904  1
  P  P111  1  0.41170943  0.64730074  0.92709946  1
  S  S112  1  0.14110083  0.05512865  0.08523194  1
  S  S113  1  0.66842900  0.35975346  0.04437113  1
  S  S114  1  0.67735105  0.76075687  0.10810090  1
  S  S115  1  0.18045319  0.25406538  0.06488045  1
  S  S116  1  0.18928025  0.65173410  0.12921267  1
  S  S117  1  0.33351314  0.47973218  0.07602759  1
  S  S118  1  0.79379196  0.19166436  0.10248149  1
  S  S119  1  0.63714235  0.95490633  0.08271605  1
  S  S120  1  0.63701623  0.56547616  0.02977235  1
  S  S121  1  0.85085255  0.13448311  0.03557052  1
  S  S122  1  0.84642124  0.52647488  0.10304667  1
  S  S123  1  0.27653928  0.43376192  0.01018466  1
  S  S124  1  0.28979256  0.81085969  0.06854914  1
  S  S125  1  0.14872479  0.86180846  0.21497145  1
  S  S126  1  0.14056747  0.45551153  0.15355067  1
  S  S127  1  0.67050815  0.16151318  0.17657330  1
  S  S128  1  0.67606698  0.57092532  0.24265789  1
  S  S129  1  0.17449780  0.05975213  0.19242089  1
  S  S130  1  0.17583789  0.46239601  0.25734468  1
  S  S131  1  0.34335189  0.88781651  0.13335038  1
  S  S132  1  0.34017693  0.28906346  0.20465994  1
  S  S133  1  0.79629547  0.99743619  0.23078416  1
  S  S134  1  0.80251939  0.59973210  0.16738977  1
  S  S135  1  0.64409006  0.76888537  0.21832154  1
  S  S136  1  0.64442121  0.36285712  0.15620892  1
  S  S137  1  0.84519316  0.92943520  0.16522946  1
  S  S138  1  0.84078525  0.33247932  0.23202671  1
  S  S139  1  0.29585876  0.22766648  0.13846850  1
  S  S140  1  0.30033738  0.62941243  0.20308204  1
  S  S141  1  0.14622704  0.67096310  0.34379067  1
  S  S142  1  0.14423957  0.26475881  0.28181411  1
  S  S143  1  0.67413171  0.97409197  0.30720637  1
  S  S144  1  0.69227195  0.38225383  0.37090427  1
  S  S145  1  0.17175837  0.87196546  0.32277038  1
  S  S146  1  0.17598711  0.27449951  0.39286351  1
  S  S147  1  0.34081040  0.70050880  0.26797079  1
  S  S148  1  0.34538235  0.10480583  0.33445909  1
  S  S149  1  0.79740334  0.80650587  0.36105326  1
  S  S150  1  0.80008039  0.40391949  0.29691899  1
  S  S151  1  0.64318792  0.57847951  0.34675549  1
  S  S152  1  0.64904080  0.17207655  0.28472144  1
  S  S153  1  0.84197760  0.74356396  0.29510565  1
  S  S154  1  0.84520990  0.14695548  0.36703583  1
  S  S155  1  0.29584856  0.03651162  0.26895170  1
  S  S156  1  0.30452991  0.43456651  0.33288550  1
  S  S157  1  0.14349380  0.47416142  0.47152538  1
  S  S158  1  0.13784054  0.07978636  0.41782446  1
  S  S159  1  0.67810362  0.78107107  0.43476794  1
  S  S160  1  0.17152150  0.67816593  0.45477503  1
  S  S161  1  0.34993969  0.50734197  0.39730877  1
  S  S162  1  0.35295074  0.90404674  0.46354377  1
  S  S163  1  0.78339421  0.60636403  0.49027959  1
  S  S164  1  0.78821936  0.22279060  0.43206366  1
  S  S165  1  0.64461233  0.97935537  0.41336537  1
  S  S166  1  0.83688951  0.55481915  0.42461614  1
  S  S167  1  0.29286099  0.84373555  0.39695039  1
  S  S168  1  0.75814021  0.47063370  0.58523783  1
  S  S169  1  0.23351643  0.16637894  0.54464446  1
  S  S170  1  0.22494573  0.76552944  0.60795121  1
  S  S171  1  0.72170860  0.27148774  0.56481233  1
  S  S172  1  0.71134666  0.87399944  0.62928299  1
  S  S173  1  0.56788741  0.04622973  0.57617607  1
  S  S174  1  0.10712631  0.33461776  0.60244989  1
  S  S175  1  0.26355445  0.57128507  0.58255256  1
  S  S176  1  0.26578497  0.96083097  0.52963759  1
  S  S177  1  0.04953879  0.39246538  0.53562433  1
  S  S178  1  0.05426399  0.99914193  0.60307278  1
  S  S179  1  0.62533804  0.09291809  0.51036057  1
  S  S180  1  0.61285324  0.71470808  0.56858529  1
  S  S181  1  0.75165562  0.66354936  0.71504338  1
  S  S182  1  0.75921544  0.07021990  0.65354069  1
  S  S183  1  0.22900307  0.36441793  0.67653026  1
  S  S184  1  0.22329455  0.95473183  0.74259198  1
  S  S185  1  0.72583335  0.46578055  0.69234437  1
  S  S186  1  0.72281794  0.06268185  0.75754585  1
  S  S187  1  0.55672543  0.63757044  0.63334698  1
  S  S188  1  0.55806376  0.23641629  0.70467117  1
  S  S189  1  0.10409854  0.52783993  0.73071918  1
  S  S190  1  0.09810765  0.92634642  0.66745415  1
  S  S191  1  0.25533951  0.75672876  0.71833232  1
  S  S192  1  0.25488469  0.16313550  0.65604694  1
  S  S193  1  0.05517474  0.59631472  0.66523843  1
  S  S194  1  0.05620306  0.19321619  0.73222975  1
  S  S195  1  0.60450308  0.29820713  0.63856364  1
  S  S196  1  0.59952624  0.89592168  0.70316099  1
  S  S197  1  0.75413608  0.85298253  0.84379538  1
  S  S198  1  0.75318113  0.26021953  0.78216434  1
  S  S199  1  0.22524122  0.55037893  0.80730921  1
  S  S200  1  0.20807492  0.14193582  0.87096757  1
  S  S201  1  0.72846559  0.65197645  0.82281173  1
  S  S202  1  0.72416604  0.24869534  0.89297988  1
  S  S203  1  0.55781632  0.82487911  0.76808772  1
  S  S204  1  0.55358407  0.41939619  0.83452209  1
  S  S205  1  0.10322275  0.71767185  0.86102647  1
  S  S206  1  0.09831714  0.12139030  0.79711450  1
  S  S207  1  0.25635493  0.94577441  0.84676998  1
  S  S208  1  0.25003316  0.35280756  0.78460453  1
  S  S209  1  0.05817899  0.78037830  0.79507207  1
  S  S210  1  0.05441372  0.37643192  0.86701728  1
  S  S211  1  0.60394645  0.48822190  0.76909558  1
  S  S212  1  0.59596632  0.08949725  0.83301005  1
  S  S213  1  0.75645685  0.04895577  0.97170418  1
  S  S214  1  0.76167176  0.44378358  0.91775959  1
  S  S215  1  0.22204633  0.74337363  0.93480069  1
  S  S216  1  0.72937495  0.84492514  0.95490361  1
  S  S217  1  0.54973812  0.01659344  0.89739957  1
  S  S218  1  0.54618175  0.61956046  0.96340996  1
  S  S219  1  0.11715468  0.91745676  0.99045836  1
  S  S220  1  0.11171779  0.30115488  0.93209841  1
  S  S221  1  0.25431634  0.54515927  0.91320605  1
  S  S222  1  0.06310712  0.96860505  0.92472613  1
  S  S223  1  0.60662836  0.68072374  0.89690199  1
