# generated using pymatgen
data_Na3PS4
_symmetry_space_group_name_H-M   'P 1'
_cell_length_a   7.00642000
_cell_length_b   15.96026505
_cell_length_c   42.38963635
_cell_angle_alpha   90.00000000
_cell_angle_beta   90.00000000
_cell_angle_gamma   90.00450892
_symmetry_Int_Tables_number   1
_chemical_formula_structural   Na3PS4
_chemical_formula_sum   'Na72 P24 S96'
_cell_volume   4740.19225538
_cell_formula_units_Z   24
loop_
 _symmetry_equiv_pos_site_id
 _symmetry_equiv_pos_as_xyz
  1  'x, y, z'
loop_
 _atom_site_type_symbol
 _atom_site_label
 _atom_site_symmetry_multiplicity
 _atom_site_fract_x
 _atom_site_fract_y
 _atom_site_fract_z
 _atom_site_occupancy
  Na  Na0  1  0.49119444  0.08269442  0.06976313  1
  Na  Na1  1  0.50293644  0.27845021  0.11178567  1
  Na  Na2  1  0.00653616  0.31118070  0.12341897  1
  Na  Na3  1  0.97519919  0.92322760  0.04721432  1
  Na  Na4  1  0.48131469  0.60451443  0.08391881  1
  Na  Na5  1  0.00080315  0.24245837  0.01827279  1
  Na  Na6  1  0.99392015  0.64420959  0.09568637  1
  Na  Na7  1  0.98197741  0.85157703  0.12584332  1
  Na  Na8  1  0.97889868  0.43496079  0.05296735  1
  Na  Na9  1  0.49163082  0.89179236  0.22088394  1
  Na  Na10  1  0.49155187  0.47718563  0.15031842  1
  Na  Na11  1  0.48959697  0.08876091  0.26068810  1
  Na  Na12  1  0.50522218  0.68653728  0.18580286  1
  Na  Na13  1  0.98972166  0.12137139  0.26968260  1
  Na  Na14  1  0.00572009  0.71220875  0.19977905  1
  Na  Na15  1  0.49351748  0.02143751  0.14764149  1
  Na  Na16  1  0.48744842  0.42409525  0.23020409  1
  Na  Na17  1  0.99410182  0.05211504  0.16340970  1
  Na  Na18  1  0.98780288  0.45680660  0.23924810  1
  Na  Na19  1  0.99135889  0.65383370  0.27921452  1
  Na  Na20  1  0.98860899  0.25127195  0.20209577  1
  Na  Na21  1  0.48341374  0.69366687  0.37434244  1
  Na  Na22  1  0.48903273  0.29454279  0.29781375  1
  Na  Na23  1  0.49294955  0.90135025  0.40422374  1
  Na  Na24  1  0.49463320  0.49354409  0.33674142  1
  Na  Na25  1  0.98021998  0.94078219  0.41515342  1
  Na  Na26  1  0.99445263  0.52419405  0.35214592  1
  Na  Na27  1  0.50589748  0.83292960  0.30051562  1
  Na  Na28  1  0.50960197  0.23475142  0.37648136  1
  Na  Na29  1  0.00531252  0.85956217  0.31402319  1
  Na  Na30  1  0.00500256  0.26719852  0.38843448  1
  Na  Na31  1  0.99151561  0.46395137  0.43028152  1
  Na  Na32  1  0.99296284  0.06889503  0.34958051  1
  Na  Na33  1  0.47885376  0.10976492  0.44673264  1
  Na  Na34  1  0.50293670  0.30146854  0.48176039  1
  Na  Na35  1  0.47077187  0.62174709  0.45365457  1
  Na  Na36  1  0.40962586  0.96731031  0.57020131  1
  Na  Na37  1  0.39823390  0.77178146  0.61193650  1
  Na  Na38  1  0.89586820  0.73918858  0.62371222  1
  Na  Na39  1  0.92496039  0.12694513  0.54744108  1
  Na  Na40  1  0.42073976  0.44518632  0.58369632  1
  Na  Na41  1  0.89969442  0.80816725  0.51831695  1
  Na  Na42  1  0.90799924  0.40608639  0.59578747  1
  Na  Na43  1  0.91759347  0.19864026  0.62589940  1
  Na  Na44  1  0.91979393  0.61547645  0.55300551  1
  Na  Na45  1  0.40827471  0.15949759  0.72113501  1
  Na  Na46  1  0.40850287  0.57280420  0.65028603  1
  Na  Na47  1  0.41196401  0.96148100  0.76073373  1
  Na  Na48  1  0.39588804  0.36392370  0.68590092  1
  Na  Na49  1  0.91161121  0.92870583  0.76940286  1
  Na  Na50  1  0.89573744  0.33787742  0.69939511  1
  Na  Na51  1  0.40663117  0.02897300  0.64820940  1
  Na  Na52  1  0.41047651  0.62556969  0.73045455  1
  Na  Na53  1  0.90648897  0.99806776  0.66360650  1
  Na  Na54  1  0.91055332  0.59291141  0.73935727  1
  Na  Na55  1  0.90842792  0.39533245  0.77909556  1
  Na  Na56  1  0.90947965  0.79833521  0.70226710  1
  Na  Na57  1  0.41586983  0.35616666  0.87429002  1
  Na  Na58  1  0.40914667  0.75583633  0.79780981  1
  Na  Na59  1  0.40829176  0.14866816  0.90416419  1
  Na  Na60  1  0.40468335  0.55662583  0.83667317  1
  Na  Na61  1  0.92146864  0.10887897  0.91538035  1
  Na  Na62  1  0.90489218  0.52564973  0.85196200  1
  Na  Na63  1  0.39616490  0.21727931  0.80083901  1
  Na  Na64  1  0.39062184  0.81520385  0.87646369  1
  Na  Na65  1  0.89637003  0.19057929  0.81396548  1
  Na  Na66  1  0.89500917  0.78273231  0.88821513  1
  Na  Na67  1  0.90703109  0.58630211  0.93001227  1
  Na  Na68  1  0.90807809  0.98135260  0.84945429  1
  Na  Na69  1  0.42112126  0.93990232  0.94664490  1
  Na  Na70  1  0.39754470  0.74766302  0.98166977  1
  Na  Na71  1  0.42499673  0.42753731  0.95329924  1
  P  P72  1  0.99082569  0.11441816  0.08363875  1
  P  P73  1  0.48826998  0.41492405  0.04528793  1
  P  P74  1  0.48557631  0.81114486  0.11196517  1
  P  P75  1  0.99540495  0.91846244  0.23122549  1
  P  P76  1  0.99379546  0.51537168  0.15940310  1
  P  P77  1  0.48983886  0.21812173  0.19370769  1
  P  P78  1  0.49506123  0.62673792  0.26879806  1
  P  P79  1  0.98608288  0.73439809  0.38759784  1
  P  P80  1  0.99029126  0.32721811  0.30624948  1
  P  P81  1  0.49534602  0.03061571  0.34053468  1
  P  P82  1  0.49124210  0.43089334  0.41674318  1
  P  P83  1  0.98847144  0.12963221  0.45459285  1
  P  P84  1  0.91048185  0.93574177  0.58381691  1
  P  P85  1  0.41060742  0.63516311  0.54535003  1
  P  P86  1  0.41589790  0.23898971  0.61233893  1
  P  P87  1  0.90503458  0.13196700  0.73101695  1
  P  P88  1  0.90629390  0.53493429  0.65944526  1
  P  P89  1  0.40810189  0.83144237  0.69408122  1
  P  P90  1  0.40494226  0.42288118  0.76901236  1
  P  P91  1  0.91453191  0.31548389  0.88752532  1
  P  P92  1  0.90752817  0.72307144  0.80616038  1
  P  P93  1  0.40601313  0.01948632  0.84046562  1
  P  P94  1  0.40757075  0.61860985  0.91657460  1
  P  P95  1  0.91164891  0.91989988  0.95443881  1
  S  S96  1  0.14580936  0.01180675  0.09965009  1
  S  S97  1  0.67218330  0.31602941  0.05251322  1
  S  S98  1  0.18252085  0.20994979  0.07497393  1
  S  S99  1  0.33474705  0.43864000  0.08672358  1
  S  S100  1  0.79511319  0.14838620  0.11800553  1
  S  S101  1  0.64119358  0.91036150  0.09497441  1
  S  S102  1  0.64141563  0.51986307  0.03294573  1
  S  S103  1  0.85683900  0.08718690  0.04190334  1
  S  S104  1  0.84990704  0.48460879  0.11846785  1
  S  S105  1  0.28288925  0.38645569  0.01159525  1
  S  S106  1  0.28737026  0.76886092  0.07885264  1
  S  S107  1  0.15367071  0.81912642  0.24839178  1
  S  S108  1  0.14386956  0.41375204  0.17637993  1
  S  S109  1  0.67500038  0.12045502  0.20298984  1
  S  S110  1  0.67411794  0.71547891  0.12372461  1
  S  S111  1  0.17801863  0.01580568  0.22041749  1
  S  S112  1  0.18530138  0.61107765  0.14999970  1
  S  S113  1  0.34737533  0.84514644  0.15321104  1
  S  S114  1  0.34238300  0.24862614  0.23441921  1
  S  S115  1  0.80171054  0.95549019  0.26520009  1
  S  S116  1  0.79751877  0.55424136  0.19269105  1
  S  S117  1  0.65346089  0.72619776  0.25171422  1
  S  S118  1  0.64466603  0.32056321  0.17825839  1
  S  S119  1  0.84930480  0.88322749  0.19080989  1
  S  S120  1  0.84238271  0.29641428  0.26560286  1
  S  S121  1  0.29758242  0.18395914  0.15915090  1
  S  S122  1  0.30135867  0.58998447  0.23477892  1
  S  S123  1  0.14109276  0.63497830  0.40462334  1
  S  S124  1  0.14581122  0.22507517  0.32176300  1
  S  S125  1  0.68657794  0.93476877  0.35003777  1
  S  S126  1  0.67733301  0.52921960  0.27951851  1
  S  S127  1  0.17574998  0.82957250  0.37574240  1
  S  S128  1  0.17481171  0.42508225  0.29678975  1
  S  S129  1  0.34934555  0.66181905  0.30926073  1
  S  S130  1  0.35106316  0.06151501  0.38142388  1
  S  S131  1  0.78863494  0.77677227  0.42070872  1
  S  S132  1  0.79866497  0.36158191  0.34090740  1
  S  S133  1  0.64551556  0.53394224  0.40102140  1
  S  S134  1  0.64552815  0.13204797  0.32346044  1
  S  S135  1  0.84747289  0.70069832  0.34635078  1
  S  S136  1  0.83523087  0.10706028  0.41308101  1
  S  S137  1  0.29889897  0.99158373  0.30728214  1
  S  S138  1  0.29589921  0.39726545  0.38225029  1
  S  S139  1  0.14079593  0.02409892  0.46645653  1
  S  S140  1  0.68332822  0.33545646  0.42522490  1
  S  S141  1  0.17281448  0.22858101  0.44780264  1
  S  S142  1  0.35686401  0.45737700  0.45854845  1
  S  S143  1  0.78255311  0.15762510  0.48826464  1
  S  S144  1  0.75429253  0.03809555  0.59977632  1
  S  S145  1  0.22649611  0.73387074  0.55270296  1
  S  S146  1  0.71993910  0.83977085  0.57518323  1
  S  S147  1  0.56462542  0.61129856  0.58671451  1
  S  S148  1  0.10631160  0.90212297  0.61824975  1
  S  S149  1  0.25991754  0.13991023  0.59531740  1
  S  S150  1  0.25732846  0.53028054  0.53298745  1
  S  S151  1  0.04438259  0.96311226  0.54208865  1
  S  S152  1  0.05003278  0.56582092  0.61850573  1
  S  S153  1  0.61534613  0.66396167  0.51158811  1
  S  S154  1  0.61532893  0.28044520  0.57926679  1
  S  S155  1  0.74808622  0.23182457  0.74808781  1
  S  S156  1  0.75573204  0.63629606  0.67650359  1
  S  S157  1  0.22269006  0.92884718  0.70361724  1
  S  S158  1  0.22811326  0.33517442  0.62377494  1
  S  S159  1  0.72052461  0.03524258  0.72024237  1
  S  S160  1  0.71477601  0.43921364  0.65001304  1
  S  S161  1  0.55262145  0.20533183  0.65372414  1
  S  S162  1  0.55611161  0.80082609  0.73472502  1
  S  S163  1  0.09750390  0.09454386  0.76510338  1
  S  S164  1  0.10280119  0.49601062  0.69270641  1
  S  S165  1  0.24786022  0.32303707  0.75197454  1
  S  S166  1  0.25404685  0.72908119  0.67838019  1
  S  S167  1  0.05171757  0.16644212  0.69051546  1
  S  S168  1  0.05540415  0.75347172  0.76549523  1
  S  S169  1  0.60081621  0.86640038  0.65967834  1
  S  S170  1  0.59746395  0.45992349  0.73485469  1
  S  S171  1  0.75789727  0.41443039  0.90454417  1
  S  S172  1  0.75340185  0.82540330  0.82178561  1
  S  S173  1  0.21443853  0.11517895  0.84998751  1
  S  S174  1  0.22066273  0.51978328  0.77970712  1
  S  S175  1  0.72678692  0.21942367  0.87584094  1
  S  S176  1  0.72224745  0.62550054  0.79678403  1
  S  S177  1  0.55135786  0.38866830  0.80956029  1
  S  S178  1  0.54996350  0.98852777  0.88136719  1
  S  S179  1  0.11323445  0.27376933  0.92060321  1
  S  S180  1  0.10034279  0.68842056  0.84059996  1
  S  S181  1  0.25254424  0.51599731  0.90060338  1
  S  S182  1  0.25537321  0.91815987  0.82338970  1
  S  S183  1  0.05203659  0.34949924  0.84622247  1
  S  S184  1  0.06512713  0.94275290  0.91295422  1
  S  S185  1  0.60242190  0.05873443  0.80724914  1
  S  S186  1  0.60354339  0.65243261  0.88219737  1
  S  S187  1  0.75891211  0.02525082  0.96638157  1
  S  S188  1  0.21621344  0.71418743  0.92517567  1
  S  S189  1  0.72690015  0.82109949  0.94756207  1
  S  S190  1  0.54175877  0.59155591  0.95833631  1
  S  S191  1  0.11755479  0.89176431  0.98809144  1
