# generated using pymatgen
data_Na3PS4
_symmetry_space_group_name_H-M   'P 1'
_cell_length_a   7.00642000
_cell_length_b   15.96026505
_cell_length_c   42.39391650
_cell_angle_alpha   90.00000000
_cell_angle_beta   90.00000000
_cell_angle_gamma   90.00450892
_symmetry_Int_Tables_number   1
_chemical_formula_structural   Na3PS4
_chemical_formula_sum   'Na72 P24 S96'
_cell_volume   4740.67088012
_cell_formula_units_Z   24
loop_
 _symmetry_equiv_pos_site_id
 _symmetry_equiv_pos_as_xyz
  1  'x, y, z'
loop_
 _atom_site_type_symbol
 _atom_site_label
 _atom_site_symmetry_multiplicity
 _atom_site_fract_x
 _atom_site_fract_y
 _atom_site_fract_z
 _atom_site_occupancy
  Na  Na0  1  0.48997592  0.07515265  0.07032643  1
  Na  Na1  1  0.50536343  0.27223873  0.11155979  1
  Na  Na2  1  0.01013319  0.30437550  0.12367306  1
  Na  Na3  1  0.96422798  0.91831621  0.04578604  1
  Na  Na4  1  0.47967336  0.59813689  0.08555806  1
  Na  Na5  1  0.00287802  0.23850112  0.01829536  1
  Na  Na6  1  0.99225869  0.63720155  0.09582481  1
  Na  Na7  1  0.97762224  0.42997627  0.05367688  1
  Na  Na8  1  0.49207566  0.88440959  0.22091744  1
  Na  Na9  1  0.49289367  0.47002185  0.15096789  1
  Na  Na10  1  0.48908347  0.08189469  0.26064619  1
  Na  Na11  1  0.50518347  0.67974989  0.18609246  1
  Na  Na12  1  0.98878819  0.11460102  0.26935349  1
  Na  Na13  1  0.00582137  0.70697341  0.19861975  1
  Na  Na14  1  0.49542419  0.01437735  0.14826133  1
  Na  Na15  1  0.48872597  0.41733922  0.23096867  1
  Na  Na16  1  0.99542599  0.04576844  0.16318380  1
  Na  Na17  1  0.98853043  0.45047508  0.23930498  1
  Na  Na18  1  0.98496893  0.84571671  0.12527122  1
  Na  Na19  1  0.99075783  0.24480146  0.20222267  1
  Na  Na20  1  0.48281008  0.68776078  0.37390441  1
  Na  Na21  1  0.49087671  0.28695538  0.29785596  1
  Na  Na22  1  0.49386507  0.89515833  0.40423251  1
  Na  Na23  1  0.49463757  0.48686565  0.33621153  1
  Na  Na24  1  0.98151213  0.93462125  0.41656620  1
  Na  Na25  1  0.99447169  0.51834763  0.35151807  1
  Na  Na26  1  0.50571197  0.82687470  0.30065636  1
  Na  Na27  1  0.50496193  0.22789667  0.37653727  1
  Na  Na28  1  0.00538868  0.85297226  0.31411488  1
  Na  Na29  1  0.00284564  0.26077299  0.38794343  1
  Na  Na30  1  0.99234646  0.64903320  0.27850811  1
  Na  Na31  1  0.99228876  0.06180802  0.34968915  1
  Na  Na32  1  0.48174584  0.10490999  0.44732242  1
  Na  Na33  1  0.50118779  0.29899631  0.48158178  1
  Na  Na34  1  0.47862341  0.61648759  0.45224107  1
  Na  Na35  1  0.99143636  0.45677791  0.42934669  1
  Na  Na36  1  0.40673905  0.95009602  0.56983202  1
  Na  Na37  1  0.39321847  0.75354438  0.61141613  1
  Na  Na38  1  0.88842839  0.72153820  0.62369635  1
  Na  Na39  1  0.93225350  0.10752204  0.54575293  1
  Na  Na40  1  0.41862618  0.42742392  0.58541245  1
  Na  Na41  1  0.89518238  0.78679649  0.51833893  1
  Na  Na42  1  0.90683951  0.38802983  0.59605991  1
  Na  Na43  1  0.92252946  0.59504705  0.55351604  1
  Na  Na44  1  0.40951088  0.13993730  0.72086895  1
  Na  Na45  1  0.40719397  0.55554354  0.65084587  1
  Na  Na46  1  0.41127747  0.94315947  0.76054566  1
  Na  Na47  1  0.39452707  0.34520106  0.68628364  1
  Na  Na48  1  0.91242885  0.91122849  0.77026326  1
  Na  Na49  1  0.89428057  0.31788142  0.69877481  1
  Na  Na50  1  0.40377580  0.01094908  0.64795245  1
  Na  Na51  1  0.40960228  0.60752701  0.73046949  1
  Na  Na52  1  0.90378806  0.97973723  0.66298461  1
  Na  Na53  1  0.91027999  0.57517563  0.73940027  1
  Na  Na54  1  0.91584057  0.17950472  0.62525870  1
  Na  Na55  1  0.90985746  0.78151783  0.70229019  1
  Na  Na56  1  0.41740375  0.33717768  0.87391750  1
  Na  Na57  1  0.41126823  0.73805847  0.79766408  1
  Na  Na58  1  0.40399786  0.12847290  0.90445885  1
  Na  Na59  1  0.40664790  0.53832027  0.83628602  1
  Na  Na60  1  0.91507190  0.08974251  0.91720457  1
  Na  Na61  1  0.90688630  0.50638519  0.85180651  1
  Na  Na62  1  0.39463024  0.19824705  0.80057621  1
  Na  Na63  1  0.39748238  0.79568828  0.87618962  1
  Na  Na64  1  0.89489348  0.17189868  0.81428238  1
  Na  Na65  1  0.89935621  0.76353852  0.88833575  1
  Na  Na66  1  0.90757757  0.37695538  0.77861462  1
  Na  Na67  1  0.90878523  0.96287063  0.85022578  1
  Na  Na68  1  0.41780125  0.91797933  0.94750986  1
  Na  Na69  1  0.40073758  0.72450062  0.98198035  1
  Na  Na70  1  0.42136821  0.40740004  0.95230338  1
  Na  Na71  1  0.91022674  0.56737051  0.92977327  1
  P  P72  1  0.98989145  0.10851738  0.08326309  1
  P  P73  1  0.48748354  0.41041954  0.04560176  1
  P  P74  1  0.48609401  0.80471718  0.11260096  1
  P  P75  1  0.99504993  0.91194331  0.23089980  1
  P  P76  1  0.99547368  0.50849699  0.15966830  1
  P  P77  1  0.49252657  0.21195997  0.19382491  1
  P  P78  1  0.49544601  0.62112637  0.26894398  1
  P  P79  1  0.98483855  0.72830132  0.38771876  1
  P  P80  1  0.99226325  0.32040958  0.30588289  1
  P  P81  1  0.49432900  0.02408489  0.34065409  1
  P  P82  1  0.49044019  0.42518513  0.41588696  1
  P  P83  1  0.99084760  0.12492212  0.45468255  1
  P  P84  1  0.90708326  0.91729128  0.58298399  1
  P  P85  1  0.41245972  0.61508927  0.54541846  1
  P  P86  1  0.41389599  0.22076319  0.61262414  1
  P  P87  1  0.90652356  0.11276184  0.73102654  1
  P  P88  1  0.90467309  0.51701556  0.65977648  1
  P  P89  1  0.40773753  0.81343943  0.69345615  1
  P  P90  1  0.40417648  0.40445004  0.76900439  1
  P  P91  1  0.91411383  0.29596359  0.88789795  1
  P  P92  1  0.90981103  0.70498994  0.80621568  1
  P  P93  1  0.40613369  0.00059033  0.84062942  1
  P  P94  1  0.41110521  0.59890095  0.91603688  1
  P  P95  1  0.90889469  0.89901845  0.95516953  1
  S  S96  1  0.14381828  0.00516032  0.09875742  1
  S  S97  1  0.67194500  0.31139057  0.05205732  1
  S  S98  1  0.18233457  0.20373500  0.07473337  1
  S  S99  1  0.33508829  0.43226749  0.08726956  1
  S  S100  1  0.79582709  0.14213964  0.11792905  1
  S  S101  1  0.64086783  0.90425660  0.09555362  1
  S  S102  1  0.63980213  0.51618646  0.03396284  1
  S  S103  1  0.85356135  0.08288277  0.04155059  1
  S  S104  1  0.85027450  0.47743494  0.11889999  1
  S  S105  1  0.28058561  0.38307988  0.01201662  1
  S  S106  1  0.28855959  0.76202456  0.07964161  1
  S  S107  1  0.15225998  0.81202384  0.24783034  1
  S  S108  1  0.14526894  0.40703048  0.17678476  1
  S  S109  1  0.67790247  0.11440694  0.20319613  1
  S  S110  1  0.67660360  0.70985408  0.12452049  1
  S  S111  1  0.17929877  0.00892497  0.22027515  1
  S  S112  1  0.18733871  0.60395321  0.14997494  1
  S  S113  1  0.34765086  0.83854036  0.15384398  1
  S  S114  1  0.34447356  0.24214728  0.23449811  1
  S  S115  1  0.80280744  0.94882449  0.26512575  1
  S  S116  1  0.79978885  0.54815091  0.19290699  1
  S  S117  1  0.65199959  0.72110560  0.25191866  1
  S  S118  1  0.64663936  0.31439133  0.17830048  1
  S  S119  1  0.84887270  0.87792704  0.19032881  1
  S  S120  1  0.84386331  0.28990487  0.26526100  1
  S  S121  1  0.30026528  0.17736619  0.15928791  1
  S  S122  1  0.30363883  0.58357304  0.23480239  1
  S  S123  1  0.14092645  0.62923730  0.40467887  1
  S  S124  1  0.14622488  0.21792244  0.32145261  1
  S  S125  1  0.68617511  0.92850544  0.35001940  1
  S  S126  1  0.68025135  0.52449513  0.27972353  1
  S  S127  1  0.17284400  0.82444173  0.37634566  1
  S  S128  1  0.17763771  0.41785382  0.29633727  1
  S  S129  1  0.34823649  0.65542652  0.30941697  1
  S  S130  1  0.35070613  0.05481946  0.38159937  1
  S  S131  1  0.78552390  0.76971764  0.42086320  1
  S  S132  1  0.80017352  0.35534472  0.34033434  1
  S  S133  1  0.64686492  0.52738938  0.39981498  1
  S  S134  1  0.64465104  0.12552087  0.32360029  1
  S  S135  1  0.84786623  0.69489757  0.34631686  1
  S  S136  1  0.83661608  0.10057787  0.41337481  1
  S  S137  1  0.29810254  0.98499943  0.30737440  1
  S  S138  1  0.29478804  0.39122866  0.38149215  1
  S  S139  1  0.14363960  0.02010158  0.46727264  1
  S  S140  1  0.68096726  0.32928716  0.42466672  1
  S  S141  1  0.17534403  0.22341345  0.44717686  1
  S  S142  1  0.35590274  0.45296995  0.45751491  1
  S  S143  1  0.78677150  0.15444006  0.48844164  1
  S  S144  1  0.75338997  0.02066437  0.59850298  1
  S  S145  1  0.22813015  0.71416222  0.55188107  1
  S  S146  1  0.71476304  0.82191047  0.57467314  1
  S  S147  1  0.56475426  0.59304535  0.58707600  1
  S  S148  1  0.10239565  0.88393144  0.61751003  1
  S  S149  1  0.25884853  0.12136919  0.59555128  1
  S  S150  1  0.26005298  0.50952608  0.53361844  1
  S  S151  1  0.04213041  0.94293097  0.54114463  1
  S  S152  1  0.04965056  0.54785113  0.61895653  1
  S  S153  1  0.61936513  0.64254095  0.51184700  1
  S  S154  1  0.61043703  0.26386219  0.57957237  1
  S  S155  1  0.74830824  0.21240503  0.74795891  1
  S  S156  1  0.75488672  0.61858454  0.67680976  1
  S  S157  1  0.22363788  0.91138793  0.70284764  1
  S  S158  1  0.22377848  0.31564276  0.62470741  1
  S  S159  1  0.72367093  0.01533634  0.72051334  1
  S  S160  1  0.71263246  0.42160460  0.65015659  1
  S  S161  1  0.55368833  0.18663307  0.65372562  1
  S  S162  1  0.55503340  0.78249438  0.73414063  1
  S  S163  1  0.09976494  0.07640145  0.76517794  1
  S  S164  1  0.10003558  0.47742279  0.69310492  1
  S  S165  1  0.24707616  0.30459498  0.75199772  1
  S  S166  1  0.25222245  0.71148989  0.67781850  1
  S  S167  1  0.05211445  0.14726804  0.69046828  1
  S  S168  1  0.05704664  0.73596874  0.76554729  1
  S  S169  1  0.60001173  0.84821028  0.65892468  1
  S  S170  1  0.59638583  0.44181844  0.73486052  1
  S  S171  1  0.75904201  0.39534276  0.90484478  1
  S  S172  1  0.75490680  0.80696726  0.82201358  1
  S  S173  1  0.21461276  0.09621123  0.85005245  1
  S  S174  1  0.22016359  0.50131174  0.77984488  1
  S  S175  1  0.72567244  0.19993527  0.87658896  1
  S  S176  1  0.72446404  0.60748225  0.79663441  1
  S  S177  1  0.55189573  0.36981181  0.80937251  1
  S  S178  1  0.54885646  0.96898641  0.88158330  1
  S  S179  1  0.11323651  0.25436982  0.92102536  1
  S  S180  1  0.10242033  0.66992372  0.84060065  1
  S  S181  1  0.25422938  0.49686129  0.89988869  1
  S  S182  1  0.25556103  0.89937958  0.82345396  1
  S  S183  1  0.05132277  0.32907214  0.84646004  1
  S  S184  1  0.06352923  0.92436092  0.91396870  1
  S  S185  1  0.60279885  0.03991092  0.80746202  1
  S  S186  1  0.60685801  0.63279766  0.88166780  1
  S  S187  1  0.75409522  0.00320097  0.96781392  1
  S  S188  1  0.22124491  0.69501448  0.92488383  1
  S  S189  1  0.72575222  0.80014884  0.94733978  1
  S  S190  1  0.54491489  0.57069861  0.95768375  1
  S  S191  1  0.11253319  0.86929093  0.98894280  1
