# generated using pymatgen
data_Na3PS4
_symmetry_space_group_name_H-M   'P 1'
_cell_length_a   7.00642000
_cell_length_b   15.96026505
_cell_length_c   41.87958685
_cell_angle_alpha   90.00000000
_cell_angle_beta   90.00000000
_cell_angle_gamma   90.00450892
_symmetry_Int_Tables_number   1
_chemical_formula_structural   Na3PS4
_chemical_formula_sum   'Na72 P24 S96'
_cell_volume   4683.15631695
_cell_formula_units_Z   24
loop_
 _symmetry_equiv_pos_site_id
 _symmetry_equiv_pos_as_xyz
  1  'x, y, z'
loop_
 _atom_site_type_symbol
 _atom_site_label
 _atom_site_symmetry_multiplicity
 _atom_site_fract_x
 _atom_site_fract_y
 _atom_site_fract_z
 _atom_site_occupancy
  Na  Na0  1  0.38878014  0.03807415  0.01949272  1
  Na  Na1  1  0.48998735  0.56601487  0.11123840  1
  Na  Na2  1  0.42983837  0.25042070  0.05511601  1
  Na  Na3  1  0.98639194  0.41571800  0.07727112  1
  Na  Na4  1  0.84954563  0.02462455  0.01458923  1
  Na  Na5  1  0.46007296  0.10200728  0.12591138  1
  Na  Na6  1  0.97950004  0.74545904  0.05598890  1
  Na  Na7  1  0.97421911  0.94466389  0.08906619  1
  Na  Na8  1  0.47546653  0.96684737  0.18767012  1
  Na  Na9  1  0.46013931  0.37322235  0.26420922  1
  Na  Na10  1  0.46964759  0.17418880  0.22531543  1
  Na  Na11  1  0.48330834  0.76637896  0.14859700  1
  Na  Na12  1  0.96792556  0.21559316  0.22653116  1
  Na  Na13  1  0.98488731  0.80511092  0.15431483  1
  Na  Na14  1  0.50389418  0.91510557  0.26677855  1
  Na  Na15  1  0.45891877  0.50246827  0.19719216  1
  Na  Na16  1  0.96239396  0.14494472  0.12460664  1
  Na  Na17  1  0.96163328  0.53673931  0.19946047  1
  Na  Na18  1  0.97639539  0.73783418  0.23607294  1
  Na  Na19  1  0.97343369  0.34153555  0.15777847  1
  Na  Na20  1  0.47131744  0.79446187  0.33275767  1
  Na  Na21  1  0.45178728  0.23060719  0.41392322  1
  Na  Na22  1  0.43002575  0.99442583  0.37883275  1
  Na  Na23  1  0.45426841  0.57590460  0.30173636  1
  Na  Na24  1  0.92918228  0.01670768  0.38145015  1
  Na  Na25  1  0.94975968  0.60853226  0.30680059  1
  Na  Na26  1  0.45964330  0.71647546  0.40895157  1
  Na  Na27  1  0.57275982  0.32287412  0.34515813  1
  Na  Na28  1  0.99591048  0.93985753  0.27278601  1
  Na  Na29  1  0.07887443  0.30616537  0.35225521  1
  Na  Na30  1  0.93755555  0.48463008  0.39129847  1
  Na  Na31  1  0.96291809  0.13533988  0.30865726  1
  Na  Na32  1  0.35969429  0.45074170  0.46580179  1
  Na  Na33  1  0.47822932  0.10344417  0.47671086  1
  Na  Na34  1  0.96574922  0.73164032  0.41340138  1
  Na  Na35  1  0.00699600  0.95731669  0.46791723  1
  Na  Na36  1  0.86226436  0.73811251  0.51939786  1
  Na  Na37  1  0.76064316  0.20964096  0.61099775  1
  Na  Na38  1  0.82039536  0.52602538  0.55499992  1
  Na  Na39  1  0.26370703  0.36040281  0.57756797  1
  Na  Na40  1  0.40098940  0.75064126  0.51448992  1
  Na  Na41  1  0.78918345  0.67313924  0.62576592  1
  Na  Na42  1  0.27055053  0.02953776  0.55618185  1
  Na  Na43  1  0.27636627  0.83061907  0.58905063  1
  Na  Na44  1  0.77506412  0.80822996  0.68762872  1
  Na  Na45  1  0.78961025  0.40106160  0.76418181  1
  Na  Na46  1  0.77967166  0.60060219  0.72531728  1
  Na  Na47  1  0.76789583  0.00918787  0.64874037  1
  Na  Na48  1  0.28164861  0.55987045  0.72680861  1
  Na  Na49  1  0.26665262  0.97073823  0.65459624  1
  Na  Na50  1  0.74507041  0.85973625  0.76694147  1
  Na  Na51  1  0.79295273  0.27223586  0.69701265  1
  Na  Na52  1  0.28683948  0.63032865  0.62466653  1
  Na  Na53  1  0.28997578  0.23820789  0.69961649  1
  Na  Na54  1  0.27456793  0.03702199  0.73635877  1
  Na  Na55  1  0.27672356  0.43365296  0.65817941  1
  Na  Na56  1  0.77826261  0.98160371  0.83292861  1
  Na  Na57  1  0.79822222  0.54459917  0.91354032  1
  Na  Na58  1  0.81920063  0.78131179  0.87866066  1
  Na  Na59  1  0.79510925  0.19878598  0.80176069  1
  Na  Na60  1  0.32006723  0.75769408  0.88125101  1
  Na  Na61  1  0.29942691  0.16612188  0.80693297  1
  Na  Na62  1  0.79192387  0.05760235  0.90896089  1
  Na  Na63  1  0.67550200  0.45103758  0.84518776  1
  Na  Na64  1  0.25297198  0.83458640  0.77291308  1
  Na  Na65  1  0.16973800  0.46777304  0.85222545  1
  Na  Na66  1  0.30978603  0.28928304  0.89139267  1
  Na  Na67  1  0.28649552  0.63852927  0.80883803  1
  Na  Na68  1  0.88750939  0.32388485  0.96581929  1
  Na  Na69  1  0.77241819  0.67124587  0.97641629  1
  Na  Na70  1  0.28787926  0.04315118  0.91356685  1
  Na  Na71  1  0.24354709  0.81695375  0.96790727  1
  P  P72  1  0.92860900  0.22496804  0.04171472  1
  P  P73  1  0.98293529  0.60401864  0.11672532  1
  P  P74  1  0.47206341  0.90686308  0.08224542  1
  P  P75  1  0.97458238  0.00650846  0.19374671  1
  P  P76  1  0.96190829  0.40756502  0.27045679  1
  P  P77  1  0.47180516  0.30714185  0.15725739  1
  P  P78  1  0.47407530  0.70755474  0.23088632  1
  P  P79  1  0.97091834  0.81657075  0.34033623  1
  P  P80  1  0.94534144  0.21415460  0.42637156  1
  P  P81  1  0.46357576  0.11580041  0.30759395  1
  P  P82  1  0.43180867  0.51280367  0.38567237  1
  P  P83  1  0.49205729  0.89347226  0.45546297  1
  P  P84  1  0.32134937  0.55082540  0.54166038  1
  P  P85  1  0.26789411  0.17171929  0.61679271  1
  P  P86  1  0.77850174  0.86875709  0.58220769  1
  P  P87  1  0.27608388  0.76904716  0.69374679  1
  P  P88  1  0.28781434  0.36696475  0.77048534  1
  P  P89  1  0.77815871  0.46819992  0.65729629  1
  P  P90  1  0.77705409  0.06723281  0.73111613  1
  P  P91  1  0.27893030  0.95848232  0.84043757  1
  P  P92  1  0.30483732  0.56045146  0.92601242  1
  P  P93  1  0.78574809  0.65861649  0.80763549  1
  P  P94  1  0.81523642  0.26114956  0.88581405  1
  P  P95  1  0.75879124  0.88134664  0.95553746  1
  S  S96  1  0.10009579  0.12124311  0.05337125  1
  S  S97  1  0.66434885  0.81276708  0.08996880  1
  S  S98  1  0.10187217  0.31797869  0.02375809  1
  S  S99  1  0.18139213  0.69666328  0.10797142  1
  S  S100  1  0.31723871  0.92771462  0.12365028  1
  S  S101  1  0.79463972  0.26341533  0.08269218  1
  S  S102  1  0.61772914  0.01718839  0.07158624  1
  S  S103  1  0.72523120  0.19378277  0.00821588  1
  S  S104  1  0.83882652  0.57967701  0.07456955  1
  S  S105  1  0.29008190  0.26795441  0.12120966  1
  S  S106  1  0.27639466  0.88271985  0.04588409  1
  S  S107  1  0.12453295  0.90245428  0.20896545  1
  S  S108  1  0.12972527  0.49965171  0.13222701  1
  S  S109  1  0.66553338  0.21228980  0.16796026  1
  S  S110  1  0.65954952  0.61134264  0.24246897  1
  S  S111  1  0.16437983  0.10167239  0.18331512  1
  S  S112  1  0.15102623  0.50411801  0.26038816  1
  S  S113  1  0.32320778  0.74111839  0.27118111  1
  S  S114  1  0.30685102  0.33041603  0.19753905  1
  S  S115  1  0.78867493  0.04390718  0.22958692  1
  S  S116  1  0.79296176  0.64105764  0.15179848  1
  S  S117  1  0.62890884  0.80829368  0.21361687  1
  S  S118  1  0.61919128  0.41311196  0.14499947  1
  S  S119  1  0.81971264  0.97924828  0.15320831  1
  S  S120  1  0.80656100  0.38350613  0.22968721  1
  S  S121  1  0.28428968  0.07486993  0.27164472  1
  S  S122  1  0.28533540  0.66830632  0.19605504  1
  S  S123  1  0.12867772  0.71291165  0.35345427  1
  S  S124  1  0.11236885  0.30201114  0.28356632  1
  S  S125  1  0.64563941  0.01927119  0.32027535  1
  S  S126  1  0.58110352  0.41721072  0.40710709  1
  S  S127  1  0.15137318  0.91740582  0.33374838  1
  S  S128  1  0.10951733  0.32012939  0.42047036  1
  S  S129  1  0.25154363  0.56784279  0.41923091  1
  S  S130  1  0.30616130  0.15098549  0.34736568  1
  S  S131  1  0.77579138  0.84550287  0.37563163  1
  S  S132  1  0.78135584  0.44349691  0.30733885  1
  S  S133  1  0.62628912  0.60100470  0.36887666  1
  S  S134  1  0.62172018  0.21516820  0.29062645  1
  S  S135  1  0.82230219  0.79016662  0.29894011  1
  S  S136  1  0.80730922  0.18918269  0.38300544  1
  S  S137  1  0.27426213  0.86667878  0.42381478  1
  S  S138  1  0.27461925  0.46729995  0.34781770  1
  S  S139  1  0.13249127  0.11344677  0.43483843  1
  S  S140  1  0.65804961  0.78656980  0.46235024  1
  S  S141  1  0.37136288  0.92787355  0.49845727  1
  S  S142  1  0.74850230  0.22968267  0.46182548  1
  S  S143  1  0.65346511  0.99034373  0.43804294  1
  S  S144  1  0.15005373  0.65467851  0.55332883  1
  S  S145  1  0.58664627  0.96300482  0.59012426  1
  S  S146  1  0.14772690  0.45762384  0.52393728  1
  S  S147  1  0.07012164  0.07858910  0.60832506  1
  S  S148  1  0.93362413  0.84734497  0.62352313  1
  S  S149  1  0.45598713  0.51276270  0.58262571  1
  S  S150  1  0.63244949  0.75858485  0.57141559  1
  S  S151  1  0.52396736  0.58171165  0.50801545  1
  S  S152  1  0.41052370  0.19602468  0.57451364  1
  S  S153  1  0.96018505  0.50709360  0.62128185  1
  S  S154  1  0.97382802  0.89320780  0.54583664  1
  S  S155  1  0.12544510  0.87277099  0.70904839  1
  S  S156  1  0.12036026  0.27584183  0.63237034  1
  S  S157  1  0.58401090  0.56303377  0.66794036  1
  S  S158  1  0.59208115  0.16361022  0.74271056  1
  S  S159  1  0.08710811  0.67350780  0.68327848  1
  S  S160  1  0.09871367  0.27051834  0.76035643  1
  S  S161  1  0.92737112  0.03298259  0.77137236  1
  S  S162  1  0.94276427  0.44519689  0.69764710  1
  S  S163  1  0.46220204  0.73165082  0.72957404  1
  S  S164  1  0.45884976  0.13507196  0.65181028  1
  S  S165  1  0.62155427  0.96691050  0.71371047  1
  S  S166  1  0.63099458  0.36213179  0.64508951  1
  S  S167  1  0.43035716  0.79692083  0.65321386  1
  S  S168  1  0.44297204  0.39146407  0.72972754  1
  S  S169  1  0.96523424  0.69959564  0.77170000  1
  S  S170  1  0.96681990  0.10637674  0.69640680  1
  S  S171  1  0.12278896  0.06231892  0.85386222  1
  S  S172  1  0.13715901  0.47226865  0.78374521  1
  S  S173  1  0.60302467  0.75504494  0.82020353  1
  S  S174  1  0.66624676  0.35705004  0.90709818  1
  S  S175  1  0.09713075  0.85815660  0.83383068  1
  S  S176  1  0.13946229  0.45473547  0.92030944  1
  S  S177  1  0.99565173  0.20657281  0.91944788  1
  S  S178  1  0.94285453  0.62384491  0.84746904  1
  S  S179  1  0.47431649  0.92858417  0.87557798  1
  S  S180  1  0.46831544  0.33075975  0.80732527  1
  S  S181  1  0.62085857  0.17272545  0.86913086  1
  S  S182  1  0.62815222  0.55907329  0.79065094  1
  S  S183  1  0.42735995  0.98496138  0.79904805  1
  S  S184  1  0.44258602  0.58504813  0.88259966  1
  S  S185  1  0.97745409  0.90802443  0.92406124  1
  S  S186  1  0.97287852  0.30646013  0.84792146  1
  S  S187  1  0.11854313  0.66144577  0.93454005  1
  S  S188  1  0.59304928  0.98839231  0.96243779  1
  S  S189  1  0.87855948  0.84670289  0.99856925  1
  S  S190  1  0.50207037  0.54478085  0.96139556  1
  S  S191  1  0.59742458  0.78473581  0.93789516  1
