# generated using pymatgen
data_Na3PS4
_symmetry_space_group_name_H-M   'P 1'
_cell_length_a   7.00642000
_cell_length_b   15.96026505
_cell_length_c   41.85942941
_cell_angle_alpha   90.00000000
_cell_angle_beta   90.00000000
_cell_angle_gamma   90.00450892
_symmetry_Int_Tables_number   1
_chemical_formula_structural   Na3PS4
_chemical_formula_sum   'Na72 P24 S96'
_cell_volume   4680.90222531
_cell_formula_units_Z   24
loop_
 _symmetry_equiv_pos_site_id
 _symmetry_equiv_pos_as_xyz
  1  'x, y, z'
loop_
 _atom_site_type_symbol
 _atom_site_label
 _atom_site_symmetry_multiplicity
 _atom_site_fract_x
 _atom_site_fract_y
 _atom_site_fract_z
 _atom_site_occupancy
  Na  Na0  1  0.38976920  0.05084037  0.01921506  1
  Na  Na1  1  0.49254468  0.57990568  0.11146992  1
  Na  Na2  1  0.43271335  0.26433890  0.05474003  1
  Na  Na3  1  0.98790334  0.42981141  0.07723621  1
  Na  Na4  1  0.85082045  0.03901267  0.01419746  1
  Na  Na5  1  0.46505042  0.11680839  0.12589329  1
  Na  Na6  1  0.96763375  0.16000646  0.12476367  1
  Na  Na7  1  0.98168462  0.76032665  0.05625415  1
  Na  Na8  1  0.97743601  0.96102969  0.08860972  1
  Na  Na9  1  0.47796893  0.98170579  0.18778402  1
  Na  Na10  1  0.46269627  0.38817784  0.26492238  1
  Na  Na11  1  0.47554257  0.18927977  0.22567050  1
  Na  Na12  1  0.48245173  0.78077119  0.14880707  1
  Na  Na13  1  0.97336067  0.23032997  0.22643249  1
  Na  Na14  1  0.98190348  0.82087143  0.15321383  1
  Na  Na15  1  0.52031133  0.93004326  0.26688388  1
  Na  Na16  1  0.46064863  0.51657390  0.19775923  1
  Na  Na17  1  0.01118607  0.95258707  0.27233510  1
  Na  Na18  1  0.96273574  0.55061212  0.19948301  1
  Na  Na19  1  0.97969234  0.75222297  0.23552235  1
  Na  Na20  1  0.97693511  0.35606383  0.15782099  1
  Na  Na21  1  0.47335370  0.80964837  0.33269761  1
  Na  Na22  1  0.45362883  0.24356066  0.41419466  1
  Na  Na23  1  0.43228050  0.00789887  0.37926130  1
  Na  Na24  1  0.45176104  0.59142367  0.30196176  1
  Na  Na25  1  0.93179079  0.03077592  0.38166662  1
  Na  Na26  1  0.94610974  0.62437455  0.30579404  1
  Na  Na27  1  0.45701328  0.73077474  0.40848297  1
  Na  Na28  1  0.57765572  0.33737635  0.34572278  1
  Na  Na29  1  0.96172482  0.74224264  0.41275693  1
  Na  Na30  1  0.08300449  0.31887266  0.35254810  1
  Na  Na31  1  0.94180813  0.49937815  0.39007941  1
  Na  Na32  1  0.96672356  0.14856390  0.30825711  1
  Na  Na33  1  0.35711471  0.46222901  0.46541609  1
  Na  Na34  1  0.47972042  0.11648843  0.47720991  1
  Na  Na35  1  0.00615056  0.96911863  0.46808114  1
  Na  Na36  1  0.85997396  0.74913541  0.51918171  1
  Na  Na37  1  0.75757132  0.22034385  0.61130612  1
  Na  Na38  1  0.81735519  0.53570029  0.55472184  1
  Na  Na39  1  0.26166566  0.37048867  0.57729306  1
  Na  Na40  1  0.39888034  0.76112336  0.51420688  1
  Na  Na41  1  0.78459067  0.68312049  0.62584358  1
  Na  Na42  1  0.28210039  0.64003235  0.62474875  1
  Na  Na43  1  0.26815443  0.03988799  0.55619269  1
  Na  Na44  1  0.27270031  0.83923319  0.58862967  1
  Na  Na45  1  0.77200827  0.81826301  0.68764322  1
  Na  Na46  1  0.78715973  0.41143693  0.76489238  1
  Na  Na47  1  0.77413986  0.61070116  0.72565507  1
  Na  Na48  1  0.76742083  0.01929820  0.64868086  1
  Na  Na49  1  0.27636329  0.56965868  0.72650840  1
  Na  Na50  1  0.26731234  0.97937220  0.65332623  1
  Na  Na51  1  0.72839003  0.86926298  0.76664905  1
  Na  Na52  1  0.79117456  0.28291825  0.69761452  1
  Na  Na53  1  0.23763782  0.84781860  0.77225612  1
  Na  Na54  1  0.28889042  0.24932369  0.69950774  1
  Na  Na55  1  0.27191165  0.04781248  0.73552678  1
  Na  Na56  1  0.27311505  0.44394808  0.65787856  1
  Na  Na57  1  0.77722756  0.98927463  0.83264715  1
  Na  Na58  1  0.79479565  0.55661268  0.91400775  1
  Na  Na59  1  0.81963280  0.79144660  0.87940695  1
  Na  Na60  1  0.80071544  0.20752047  0.80202692  1
  Na  Na61  1  0.32010804  0.76972430  0.88153902  1
  Na  Na62  1  0.30620202  0.17552242  0.80586665  1
  Na  Na63  1  0.79202842  0.06937971  0.90849174  1
  Na  Na64  1  0.67227733  0.46261099  0.84559059  1
  Na  Na65  1  0.28767106  0.05896398  0.91263528  1
  Na  Na66  1  0.16650557  0.48112548  0.85242706  1
  Na  Na67  1  0.30774628  0.30089260  0.88999277  1
  Na  Na68  1  0.28299067  0.65163080  0.80831649  1
  Na  Na69  1  0.89310435  0.33793901  0.96541519  1
  Na  Na70  1  0.77039479  0.68370573  0.97707426  1
  Na  Na71  1  0.24335801  0.83140556  0.96786103  1
  P  P72  1  0.93116765  0.23880812  0.04155529  1
  P  P73  1  0.98540522  0.61824729  0.11679079  1
  P  P74  1  0.47461563  0.92131250  0.08232811  1
  P  P75  1  0.97786518  0.02082777  0.19364587  1
  P  P76  1  0.96345583  0.42198062  0.27067368  1
  P  P77  1  0.47518678  0.32186055  0.15741283  1
  P  P78  1  0.47685161  0.72223303  0.23108643  1
  P  P79  1  0.97285515  0.83085835  0.34025577  1
  P  P80  1  0.94645662  0.22746134  0.42674542  1
  P  P81  1  0.46744783  0.12971142  0.30802238  1
  P  P82  1  0.43647767  0.52712434  0.38562982  1
  P  P83  1  0.49012918  0.90578517  0.45569791  1
  P  P84  1  0.31889780  0.56132853  0.54156656  1
  P  P85  1  0.26470835  0.18194867  0.61676639  1
  P  P86  1  0.77530977  0.87875256  0.58228449  1
  P  P87  1  0.27182728  0.77895308  0.69362925  1
  P  P88  1  0.28659884  0.37775017  0.77062268  1
  P  P89  1  0.77470140  0.47799937  0.65742421  1
  P  P90  1  0.77494325  0.07682137  0.73097942  1
  P  P91  1  0.27741391  0.96931810  0.84028373  1
  P  P92  1  0.30211279  0.57313225  0.92639433  1
  P  P93  1  0.78225363  0.67031191  0.80798050  1
  P  P94  1  0.81309312  0.27302957  0.88561610  1
  P  P95  1  0.75961229  0.89438196  0.95567938  1
  S  S96  1  0.10297608  0.13510666  0.05319043  1
  S  S97  1  0.66811349  0.82779459  0.09052141  1
  S  S98  1  0.10420341  0.33210635  0.02374136  1
  S  S99  1  0.18439264  0.71078517  0.10814025  1
  S  S100  1  0.31831083  0.94255959  0.12355427  1
  S  S101  1  0.79710409  0.27695589  0.08258973  1
  S  S102  1  0.61942835  0.03164080  0.07140362  1
  S  S103  1  0.72859766  0.20788301  0.00791604  1
  S  S104  1  0.84162121  0.59424446  0.07455918  1
  S  S105  1  0.29437312  0.28299044  0.12118439  1
  S  S106  1  0.28019057  0.89600966  0.04592146  1
  S  S107  1  0.12681710  0.91589636  0.20816861  1
  S  S108  1  0.13161956  0.51368186  0.13227525  1
  S  S109  1  0.66945936  0.22704282  0.16805264  1
  S  S110  1  0.66141504  0.62584387  0.24298092  1
  S  S111  1  0.16866026  0.11587825  0.18339767  1
  S  S112  1  0.15251185  0.51849155  0.26038172  1
  S  S113  1  0.32580353  0.75717105  0.27121917  1
  S  S114  1  0.30985037  0.34445244  0.19775378  1
  S  S115  1  0.79461084  0.05777220  0.22999051  1
  S  S116  1  0.79543584  0.65542871  0.15186159  1
  S  S117  1  0.63235332  0.82233494  0.21339038  1
  S  S118  1  0.62262798  0.42808664  0.14545883  1
  S  S119  1  0.82128168  0.99508353  0.15312116  1
  S  S120  1  0.80792239  0.39761708  0.22992541  1
  S  S121  1  0.29055009  0.08889424  0.27166407  1
  S  S122  1  0.28824715  0.68219872  0.19638304  1
  S  S123  1  0.12938409  0.72645963  0.35301680  1
  S  S124  1  0.11461130  0.31664052  0.28382873  1
  S  S125  1  0.64977007  0.03346753  0.32080487  1
  S  S126  1  0.58691507  0.43213392  0.40721263  1
  S  S127  1  0.15441093  0.93147410  0.33418087  1
  S  S128  1  0.11216344  0.33310582  0.42073194  1
  S  S129  1  0.25429132  0.58154668  0.41906001  1
  S  S130  1  0.30785878  0.16418339  0.34766839  1
  S  S131  1  0.77756755  0.85942586  0.37558654  1
  S  S132  1  0.78336481  0.45834977  0.30754833  1
  S  S133  1  0.62954230  0.61592483  0.36877833  1
  S  S134  1  0.62496560  0.22952571  0.29130326  1
  S  S135  1  0.82495122  0.80567059  0.29864901  1
  S  S136  1  0.80899923  0.20263694  0.38331939  1
  S  S137  1  0.27186492  0.88007383  0.42399756  1
  S  S138  1  0.28032948  0.48062415  0.34778516  1
  S  S139  1  0.13177825  0.12636853  0.43548561  1
  S  S140  1  0.65520464  0.79837296  0.46218725  1
  S  S141  1  0.37011375  0.93941876  0.49882222  1
  S  S142  1  0.74905160  0.24379893  0.46208832  1
  S  S143  1  0.65278885  0.00265553  0.43848761  1
  S  S144  1  0.14691071  0.66499012  0.55319094  1
  S  S145  1  0.58187311  0.97229404  0.59048026  1
  S  S146  1  0.14596219  0.46805950  0.52372673  1
  S  S147  1  0.06576239  0.08942217  0.60808152  1
  S  S148  1  0.93157393  0.85746363  0.62350560  1
  S  S149  1  0.45291526  0.52317687  0.58260767  1
  S  S150  1  0.63051893  0.76844887  0.57135805  1
  S  S151  1  0.52161507  0.59232898  0.50795055  1
  S  S152  1  0.40815663  0.20617427  0.57451150  1
  S  S153  1  0.95537718  0.51683021  0.62118003  1
  S  S154  1  0.96974746  0.90404433  0.54587441  1
  S  S155  1  0.12303275  0.88387995  0.70815499  1
  S  S156  1  0.11830231  0.28639087  0.63232997  1
  S  S157  1  0.58050454  0.57281556  0.66803279  1
  S  S158  1  0.59156776  0.17352542  0.74306232  1
  S  S159  1  0.08103233  0.68389221  0.68337042  1
  S  S160  1  0.09798797  0.28102461  0.76034044  1
  S  S161  1  0.92556507  0.04066617  0.77096202  1
  S  S162  1  0.94004602  0.45551991  0.69776887  1
  S  S163  1  0.45498010  0.74201464  0.72999082  1
  S  S164  1  0.45491066  0.14462191  0.65178526  1
  S  S165  1  0.61763056  0.97743315  0.71316779  1
  S  S166  1  0.62734306  0.37173299  0.64549989  1
  S  S167  1  0.42849841  0.80470781  0.65311393  1
  S  S168  1  0.44207708  0.40227572  0.72988804  1
  S  S169  1  0.95933557  0.71109093  0.77164842  1
  S  S170  1  0.96369595  0.11693116  0.69630520  1
  S  S171  1  0.12009119  0.07363582  0.85288988  1
  S  S172  1  0.13516947  0.48301674  0.78378893  1
  S  S173  1  0.60039145  0.76663936  0.82083586  1
  S  S174  1  0.66257256  0.36798556  0.90720753  1
  S  S175  1  0.09648851  0.86848694  0.83421195  1
  S  S176  1  0.13650242  0.46737392  0.92055301  1
  S  S177  1  0.99538585  0.21861489  0.91904473  1
  S  S178  1  0.94160361  0.63562577  0.84759839  1
  S  S179  1  0.47219802  0.94120640  0.87572517  1
  S  S180  1  0.46680524  0.34148078  0.80749914  1
  S  S181  1  0.62012345  0.18419417  0.86878250  1
  S  S182  1  0.62457977  0.57054240  0.79124059  1
  S  S183  1  0.42572484  0.99437333  0.79870494  1
  S  S184  1  0.44046480  0.59737916  0.88302182  1
  S  S185  1  0.97757680  0.92039092  0.92397436  1
  S  S186  1  0.96905107  0.31947846  0.84775498  1
  S  S187  1  0.11654219  0.67441425  0.93484791  1
  S  S188  1  0.59394588  0.00158807  0.96223405  1
  S  S189  1  0.87993580  0.86069138  0.99878006  1
  S  S190  1  0.49892119  0.55723235  0.96185540  1
  S  S191  1  0.59710904  0.79746571  0.93845344  1
