# generated using pymatgen
data_Na3PS4
_symmetry_space_group_name_H-M   'P 1'
_cell_length_a   7.16981500
_cell_length_b   15.66667701
_cell_length_c   43.69578195
_cell_angle_alpha   90.00000000
_cell_angle_beta   90.00000000
_cell_angle_gamma   90.00193465
_symmetry_Int_Tables_number   1
_chemical_formula_structural   Na3PS4
_chemical_formula_sum   'Na78 P26 S104'
_cell_volume   4908.22377935
_cell_formula_units_Z   26
loop_
 _symmetry_equiv_pos_site_id
 _symmetry_equiv_pos_as_xyz
  1  'x, y, z'
loop_
 _atom_site_type_symbol
 _atom_site_label
 _atom_site_symmetry_multiplicity
 _atom_site_fract_x
 _atom_site_fract_y
 _atom_site_fract_z
 _atom_site_occupancy
  Na  Na0  1  0.41382401  0.09808168  0.07800943  1
  Na  Na1  1  0.91483842  0.05622611  0.06737982  1
  Na  Na2  1  0.35282395  0.70136487  0.00557843  1
  Na  Na3  1  0.84957893  0.84857777  0.02622387  1
  Na  Na4  1  0.91534383  0.33234669  0.09830607  1
  Na  Na5  1  0.40363254  0.61064366  0.08086518  1
  Na  Na6  1  0.50082033  0.43339812  0.04089417  1
  Na  Na7  1  0.32503820  0.80944061  0.10889350  1
  Na  Na8  1  0.82561655  0.81382363  0.10445264  1
  Na  Na9  1  0.51902530  0.90025336  0.21904528  1
  Na  Na10  1  0.53468521  0.50308820  0.14209590  1
  Na  Na11  1  0.01480367  0.90536060  0.21663102  1
  Na  Na12  1  0.02712498  0.51029328  0.14088664  1
  Na  Na13  1  0.92462384  0.70972911  0.17505136  1
  Na  Na14  1  0.92299042  0.10580941  0.24956920  1
  Na  Na15  1  0.42684468  0.99570509  0.15277208  1
  Na  Na16  1  0.42851949  0.40611572  0.21083805  1
  Na  Na17  1  0.33722045  0.20589244  0.17637474  1
  Na  Na18  1  0.35079118  0.60352227  0.24987394  1
  Na  Na19  1  0.84664589  0.21037387  0.17376252  1
  Na  Na20  1  0.85503708  0.60433973  0.25003318  1
  Na  Na21  1  0.53740476  0.70678203  0.35790991  1
  Na  Na22  1  0.52173556  0.30837234  0.28118902  1
  Na  Na23  1  0.02981612  0.69842304  0.35907233  1
  Na  Na24  1  0.01718578  0.30395716  0.28365023  1
  Na  Na25  1  0.92714177  0.49946415  0.32493763  1
  Na  Na26  1  0.91595927  0.87756351  0.40170254  1
  Na  Na27  1  0.42794251  0.80004264  0.28887647  1
  Na  Na28  1  0.42939101  0.21220834  0.34732013  1
  Na  Na29  1  0.33745382  0.00214537  0.32386617  1
  Na  Na30  1  0.33387962  0.39798015  0.39125315  1
  Na  Na31  1  0.84667080  0.99953882  0.32563400  1
  Na  Na32  1  0.83310432  0.39358364  0.39557023  1
  Na  Na33  1  0.42330136  0.11016157  0.42220778  1
  Na  Na34  1  0.37463200  0.50746249  0.49244285  1
  Na  Na35  1  0.92437356  0.15242652  0.43307595  1
  Na  Na36  1  0.85718345  0.36101744  0.47401143  1
  Na  Na37  1  0.40664224  0.59709320  0.41810940  1
  Na  Na38  1  0.51201758  0.77024554  0.45857884  1
  Na  Na39  1  0.33651667  0.60183888  0.57802598  1
  Na  Na40  1  0.83561715  0.64385183  0.56736875  1
  Na  Na41  1  0.39723354  0.99857278  0.50550775  1
  Na  Na42  1  0.90066378  0.85136260  0.52628719  1
  Na  Na43  1  0.83462829  0.36769170  0.59828061  1
  Na  Na44  1  0.34629951  0.08933266  0.58085397  1
  Na  Na45  1  0.24929424  0.26654059  0.54089036  1
  Na  Na46  1  0.42494499  0.89058633  0.60888203  1
  Na  Na47  1  0.92428726  0.88622892  0.60446916  1
  Na  Na48  1  0.23104400  0.79975835  0.71903588  1
  Na  Na49  1  0.21532551  0.19697939  0.64208324  1
  Na  Na50  1  0.73521631  0.79472013  0.71662208  1
  Na  Na51  1  0.72292246  0.18976688  0.64086465  1
  Na  Na52  1  0.82538068  0.99038554  0.67505169  1
  Na  Na53  1  0.82698568  0.59418125  0.74952562  1
  Na  Na54  1  0.32318387  0.70439310  0.65272563  1
  Na  Na55  1  0.32150901  0.29385251  0.71087940  1
  Na  Na56  1  0.41264264  0.49412408  0.67636111  1
  Na  Na57  1  0.39947494  0.09649116  0.74987644  1
  Na  Na58  1  0.90310889  0.48960991  0.67372366  1
  Na  Na59  1  0.89517453  0.09562656  0.75001392  1
  Na  Na60  1  0.21269751  0.99323898  0.85789607  1
  Na  Na61  1  0.22814534  0.39166447  0.78118737  1
  Na  Na62  1  0.72047362  0.00154182  0.85906583  1
  Na  Na63  1  0.73291735  0.39611437  0.78363972  1
  Na  Na64  1  0.82273718  0.20049560  0.82486630  1
  Na  Na65  1  0.83394596  0.82226675  0.90163941  1
  Na  Na66  1  0.32184114  0.90002168  0.78888453  1
  Na  Na67  1  0.32054831  0.48797654  0.84733580  1
  Na  Na68  1  0.41251904  0.69788332  0.82380953  1
  Na  Na69  1  0.41605643  0.30200374  0.89120280  1
  Na  Na70  1  0.90328586  0.70045029  0.82563675  1
  Na  Na71  1  0.91666224  0.30642768  0.89553492  1
  Na  Na72  1  0.32639351  0.58984790  0.92225160  1
  Na  Na73  1  0.37533218  0.19249540  0.99239794  1
  Na  Na74  1  0.82538139  0.54749330  0.93309071  1
  Na  Na75  1  0.89281782  0.33880561  0.97401237  1
  Na  Na76  1  0.34339215  0.10284066  0.91806732  1
  Na  Na77  1  0.23786495  0.92961989  0.95853268  1
  P  P78  1  0.39060940  0.91413872  0.03257932  1
  P  P79  1  0.41733247  0.30593731  0.10466636  1
  P  P80  1  0.91573620  0.61409860  0.06958050  1
  P  P81  1  0.42576628  0.70634908  0.17888442  1
  P  P82  1  0.42267934  0.10434024  0.25003075  1
  P  P83  1  0.92415856  0.00500979  0.14506208  1
  P  P84  1  0.93089708  0.40633828  0.21221312  1
  P  P85  1  0.42878048  0.50283453  0.32118945  1
  P  P86  1  0.41805707  0.90275750  0.39618499  1
  P  P87  1  0.93088369  0.80233885  0.28795517  1
  P  P88  1  0.92679292  0.20387480  0.35506258  1
  P  P89  1  0.39852699  0.29313017  0.46741154  1
  P  P90  1  0.91983119  0.59329668  0.42993666  1
  P  P91  1  0.35982186  0.78590976  0.53261895  1
  P  P92  1  0.33265338  0.39407317  0.60466149  1
  P  P93  1  0.83412258  0.08598200  0.56956352  1
  P  P94  1  0.32426032  0.99365283  0.67887946  1
  P  P95  1  0.32728953  0.59572453  0.75000589  1
  P  P96  1  0.82586356  0.69501515  0.64504945  1
  P  P97  1  0.81917819  0.29366630  0.71220552  1
  P  P98  1  0.32116888  0.19716500  0.82115965  1
  P  P99  1  0.33174535  0.79714980  0.89616252  1
  P  P100  1  0.81909264  0.89766920  0.78795595  1
  P  P101  1  0.82314620  0.49610964  0.85506096  1
  P  P102  1  0.35140649  0.40679127  0.96739631  1
  P  P103  1  0.83023046  0.10666867  0.92989957  1
  S  S104  1  0.58307681  0.26727680  0.06817459  1
  S  S105  1  0.52270997  0.86744229  0.99472096  1
  S  S106  1  0.10199545  0.96362123  0.11082141  1
  S  S107  1  0.10098660  0.58242197  0.03636607  1
  S  S108  1  0.20944975  0.82197160  0.04792643  1
  S  S109  1  0.71497261  0.70040249  0.05501520  1
  S  S110  1  0.23774717  0.02366460  0.02184962  1
  S  S111  1  0.28224689  0.41960895  0.09510666  1
  S  S112  1  0.76764940  0.50781686  0.08500009  1
  S  S113  1  0.58402340  0.94145364  0.06701471  1
  S  S114  1  0.05844846  0.66397526  0.10741874  1
  S  S115  1  0.58760495  0.07935968  0.21228129  1
  S  S116  1  0.57913295  0.68602720  0.13949936  1
  S  S117  1  0.09574305  0.75932123  0.25240078  1
  S  S118  1  0.09331040  0.36233769  0.17661254  1
  S  S119  1  0.21693090  0.21405362  0.11274190  1
  S  S120  1  0.25857328  0.60163100  0.18664897  1
  S  S121  1  0.74480851  0.09434485  0.12690258  1
  S  S122  1  0.76590616  0.50565207  0.19682237  1
  S  S123  1  0.26505886  0.81485486  0.17287556  1
  S  S124  1  0.26144721  0.21057957  0.24063082  1
  S  S125  1  0.77368405  0.90175192  0.16126524  1
  S  S126  1  0.76459374  0.30724896  0.22767043  1
  S  S127  1  0.59963686  0.72459651  0.21600977  1
  S  S128  1  0.58445958  0.32390449  0.14282518  1
  S  S129  1  0.07868758  0.05692631  0.18036458  1
  S  S130  1  0.09641272  0.44942993  0.24770547  1
  S  S131  1  0.58765924  0.88606184  0.35830128  1
  S  S132  1  0.60180664  0.48398272  0.28400981  1
  S  S133  1  0.06163318  0.54363491  0.39203700  1
  S  S134  1  0.08100538  0.15231986  0.31967815  1
  S  S135  1  0.25906542  0.99905316  0.25951738  1
  S  S136  1  0.26756408  0.39454414  0.32729441  1
  S  S137  1  0.76294455  0.90077499  0.27249078  1
  S  S138  1  0.77473426  0.30677678  0.33896254  1
  S  S139  1  0.26225421  0.60789168  0.31332204  1
  S  S140  1  0.21915579  0.99502802  0.38799339  1
  S  S141  1  0.76738646  0.70271653  0.30347709  1
  S  S142  1  0.74915252  0.11392943  0.37328147  1
  S  S143  1  0.58296291  0.52315096  0.36046341  1
  S  S144  1  0.58874585  0.12869529  0.28773088  1
  S  S145  1  0.09371695  0.84690116  0.32346938  1
  S  S146  1  0.10516077  0.24571765  0.38918113  1
  S  S147  1  0.59169627  0.26711537  0.43283440  1
  S  S148  1  0.28300359  0.78897075  0.40530535  1
  S  S149  1  0.24770735  0.18290550  0.47786588  1
  S  S150  1  0.77240347  0.70010654  0.41457330  1
  S  S151  1  0.21738981  0.38581162  0.45231549  1
  S  S152  1  0.71776765  0.50723012  0.44439603  1
  S  S153  1  0.53074838  0.33856655  0.50549707  1
  S  S154  1  0.58215462  0.94035234  0.43318979  1
  S  S155  1  0.10505383  0.62384546  0.46310113  1
  S  S156  1  0.16697421  0.43278940  0.56815227  1
  S  S157  1  0.22732469  0.83246404  0.49477518  1
  S  S158  1  0.64829504  0.73645245  0.61079234  1
  S  S159  1  0.64880203  0.11759646  0.53635223  1
  S  S160  1  0.54083178  0.87817958  0.54790719  1
  S  S161  1  0.03491428  0.99966508  0.55500933  1
  S  S162  1  0.51261647  0.67634475  0.52188479  1
  S  S163  1  0.46767486  0.28038340  0.59509081  1
  S  S164  1  0.98224796  0.19226294  0.58498026  1
  S  S165  1  0.16682683  0.75857806  0.56711349  1
  S  S166  1  0.69152248  0.03610725  0.60741787  1
  S  S167  1  0.16239559  0.62070093  0.71225299  1
  S  S168  1  0.17085205  0.01399822  0.63949819  1
  S  S169  1  0.65422279  0.94072545  0.75241146  1
  S  S170  1  0.65657637  0.33762596  0.67661776  1
  S  S171  1  0.53314873  0.48588660  0.61275266  1
  S  S172  1  0.49144329  0.09837521  0.68664532  1
  S  S173  1  0.00523650  0.60565699  0.62690187  1
  S  S174  1  0.98429007  0.19439308  0.69680896  1
  S  S175  1  0.48497176  0.88516125  0.67286603  1
  S  S176  1  0.48847760  0.48945131  0.74060985  1
  S  S177  1  0.97632877  0.79825797  0.66126968  1
  S  S178  1  0.98542490  0.39277569  0.72764983  1
  S  S179  1  0.15041224  0.97538391  0.71601028  1
  S  S180  1  0.16542076  0.37611787  0.64278968  1
  S  S181  1  0.67123537  0.64309396  0.68034221  1
  S  S182  1  0.65369937  0.25057886  0.74770428  1
  S  S183  1  0.16228975  0.81394996  0.85826853  1
  S  S184  1  0.14817053  0.21601318  0.78396662  1
  S  S185  1  0.68822568  0.15631408  0.89200399  1
  S  S186  1  0.66901492  0.54768276  0.81967322  1
  S  S187  1  0.49099669  0.70097927  0.75948695  1
  S  S188  1  0.48229022  0.30547784  0.82725717  1
  S  S189  1  0.98703446  0.79924570  0.77248712  1
  S  S190  1  0.97528163  0.39323424  0.83896118  1
  S  S191  1  0.48774842  0.09212604  0.81331440  1
  S  S192  1  0.53033086  0.70471839  0.88794893  1
  S  S193  1  0.98256936  0.99727158  0.80349347  1
  S  S194  1  0.00076342  0.58606138  0.87329357  1
  S  S195  1  0.16684581  0.17684142  0.86040747  1
  S  S196  1  0.16123777  0.57141618  0.78770336  1
  S  S197  1  0.65618333  0.85309206  0.82346266  1
  S  S198  1  0.64472999  0.45426129  0.88916592  1
  S  S199  1  0.15825005  0.43287457  0.93283256  1
  S  S200  1  0.46709168  0.91083504  0.90530762  1
  S  S201  1  0.50226439  0.51700068  0.97788039  1
  S  S202  1  0.97758459  0.99986778  0.91454001  1
  S  S203  1  0.53254457  0.31413389  0.95226705  1
  S  S204  1  0.03235064  0.19278877  0.94430104  1
  S  S205  1  0.21924127  0.36130886  0.00547955  1
  S  S206  1  0.16735739  0.75962895  0.93314331  1
  S  S207  1  0.64509467  0.07615127  0.96308517  1
