# generated using pymatgen
data_Na3PS4
_symmetry_space_group_name_H-M   'P 1'
_cell_length_a   7.16981500
_cell_length_b   15.66667701
_cell_length_c   48.50433389
_cell_angle_alpha   90.00000000
_cell_angle_beta   90.00000000
_cell_angle_gamma   90.00193465
_symmetry_Int_Tables_number   1
_chemical_formula_structural   Na3PS4
_chemical_formula_sum   'Na78 P26 S104'
_cell_volume   5448.35483757
_cell_formula_units_Z   26
loop_
 _symmetry_equiv_pos_site_id
 _symmetry_equiv_pos_as_xyz
  1  'x, y, z'
loop_
 _atom_site_type_symbol
 _atom_site_label
 _atom_site_symmetry_multiplicity
 _atom_site_fract_x
 _atom_site_fract_y
 _atom_site_fract_z
 _atom_site_occupancy
  Na  Na0  1  0.55055973  0.14266249  0.09083216  1
  Na  Na1  1  0.07899645  0.12969545  0.09385640  1
  Na  Na2  1  0.17640854  0.74599648  0.02565950  1
  Na  Na3  1  0.99061647  0.94806070  0.05108147  1
  Na  Na4  1  0.99224080  0.36184273  0.12051342  1
  Na  Na5  1  0.50992849  0.69718054  0.08426194  1
  Na  Na6  1  0.55512379  0.47848762  0.07037654  1
  Na  Na7  1  0.42528926  0.85721667  0.12277529  1
  Na  Na8  1  0.92904044  0.84630663  0.11529742  1
  Na  Na9  1  0.59346351  0.93854918  0.22037137  1
  Na  Na10  1  0.60182222  0.54598557  0.14911126  1
  Na  Na11  1  0.09110806  0.93821827  0.21949927  1
  Na  Na12  1  0.10323287  0.54840846  0.15273066  1
  Na  Na13  1  0.00982862  0.74820954  0.18172496  1
  Na  Na14  1  0.00473894  0.13964390  0.24898201  1
  Na  Na15  1  0.50667436  0.03972529  0.15832762  1
  Na  Na16  1  0.50563426  0.44515669  0.21331513  1
  Na  Na17  1  0.41290813  0.24025466  0.18593764  1
  Na  Na18  1  0.42878339  0.64145798  0.24962582  1
  Na  Na19  1  0.91926930  0.24324341  0.18522145  1
  Na  Na20  1  0.92913408  0.64410664  0.24907550  1
  Na  Na21  1  0.60725884  0.74040244  0.35040251  1
  Na  Na22  1  0.58984936  0.34510300  0.28014638  1
  Na  Na23  1  0.10891436  0.73743660  0.34729298  1
  Na  Na24  1  0.08893849  0.34259040  0.28082108  1
  Na  Na25  1  0.01294857  0.54283097  0.31425582  1
  Na  Na26  1  0.00424016  0.92037732  0.38031348  1
  Na  Na27  1  0.51149313  0.83765181  0.28631186  1
  Na  Na28  1  0.51260912  0.24716618  0.34450923  1
  Na  Na29  1  0.42525980  0.04365209  0.31509825  1
  Na  Na30  1  0.41857325  0.43499729  0.37742608  1
  Na  Na31  1  0.92869042  0.04265566  0.31512674  1
  Na  Na32  1  0.92095256  0.44537270  0.38000103  1
  Na  Na33  1  0.57607771  0.14327087  0.40975042  1
  Na  Na34  1  0.13883980  0.53669667  0.47016669  1
  Na  Na35  1  0.10672998  0.14574154  0.40649117  1
  Na  Na36  1  0.02116024  0.33555070  0.43939901  1
  Na  Na37  1  0.51458926  0.60188025  0.41382775  1
  Na  Na38  1  0.56469227  0.81398497  0.43406820  1
  Na  Na39  1  0.19579901  0.93336452  0.59068674  1
  Na  Na40  1  0.66637428  0.94563934  0.59390079  1
  Na  Na41  1  0.57321282  0.32990616  0.52560449  1
  Na  Na42  1  0.75917080  0.12745540  0.55087530  1
  Na  Na43  1  0.75644786  0.71470079  0.62069097  1
  Na  Na44  1  0.23985571  0.37870772  0.58417254  1
  Na  Na45  1  0.19535469  0.59764449  0.57024138  1
  Na  Na46  1  0.32425403  0.21885418  0.62275438  1
  Na  Na47  1  0.82042216  0.22993501  0.61495565  1
  Na  Na48  1  0.15691131  0.13683910  0.72021335  1
  Na  Na49  1  0.14620488  0.53024127  0.64890899  1
  Na  Na50  1  0.65957115  0.13732429  0.71941251  1
  Na  Na51  1  0.64459340  0.52773638  0.65261753  1
  Na  Na52  1  0.74021526  0.32774392  0.68154811  1
  Na  Na53  1  0.74599449  0.93595217  0.74918379  1
  Na  Na54  1  0.24323859  0.03527176  0.65800894  1
  Na  Na55  1  0.24273114  0.62967278  0.71313901  1
  Na  Na56  1  0.33739182  0.83523491  0.68623495  1
  Na  Na57  1  0.32035854  0.43338172  0.74960758  1
  Na  Na58  1  0.83165659  0.83292397  0.68533782  1
  Na  Na59  1  0.82042150  0.43135892  0.74912508  1
  Na  Na60  1  0.14473558  0.33300922  0.85018019  1
  Na  Na61  1  0.16178023  0.72975749  0.78035368  1
  Na  Na62  1  0.64372580  0.33705190  0.84719096  1
  Na  Na63  1  0.66267745  0.73200093  0.78105228  1
  Na  Na64  1  0.73782615  0.53153642  0.81460100  1
  Na  Na65  1  0.74585615  0.15355940  0.88040834  1
  Na  Na66  1  0.23991826  0.23547027  0.78613996  1
  Na  Na67  1  0.23816801  0.82811130  0.84510914  1
  Na  Na68  1  0.32697657  0.03051109  0.81539176  1
  Na  Na69  1  0.33122192  0.63930522  0.87744036  1
  Na  Na70  1  0.82270510  0.03143755  0.81534733  1
  Na  Na71  1  0.83034672  0.62857914  0.88025590  1
  Na  Na72  1  0.17494820  0.93052491  0.91025722  1
  Na  Na73  1  0.61289844  0.53706294  0.96995457  1
  Na  Na74  1  0.64408886  0.92801189  0.90706516  1
  Na  Na75  1  0.72831828  0.73829167  0.93952244  1
  Na  Na76  1  0.23732678  0.47144995  0.91350944  1
  Na  Na77  1  0.18180214  0.25970605  0.93403486  1
  P  P78  1  0.49851004  0.95719076  0.05575609  1
  P  P79  1  0.49905030  0.33858193  0.12198406  1
  P  P80  1  0.03793944  0.64084539  0.08563633  1
  P  P81  1  0.51292583  0.74296557  0.18481996  1
  P  P82  1  0.50343293  0.14144682  0.25054428  1
  P  P83  1  0.00275382  0.03924691  0.15653608  1
  P  P84  1  0.00483762  0.44408487  0.21659796  1
  P  P85  1  0.51418367  0.54278981  0.31494693  1
  P  P86  1  0.51348215  0.94477945  0.37961557  1
  P  P87  1  0.01200742  0.84032503  0.28420433  1
  P  P88  1  0.00820962  0.24525193  0.34551918  1
  P  P89  1  0.51943887  0.33286971  0.44220451  1
  P  P90  1  0.03366480  0.64383089  0.41399329  1
  P  P91  1  0.25127272  0.11928775  0.55577799  1
  P  P92  1  0.24918157  0.73771849  0.62197913  1
  P  P93  1  0.71184857  0.43544140  0.58534448  1
  P  P94  1  0.23672894  0.33312053  0.68468167  1
  P  P95  1  0.24675725  0.93370305  0.75085845  1
  P  P96  1  0.74687422  0.03673970  0.65639035  1
  P  P97  1  0.74349747  0.63190587  0.71658777  1
  P  P98  1  0.23655307  0.53141914  0.81498995  1
  P  P99  1  0.23685860  0.12864295  0.87989325  1
  P  P100  1  0.73906424  0.23409980  0.78416610  1
  P  P101  1  0.74260380  0.82882359  0.84598096  1
  P  P102  1  0.22979610  0.74038793  0.94247138  1
  P  P103  1  0.71773256  0.42979591  0.91387974  1
  S  S104  1  0.66975915  0.31409321  0.08838965  1
  S  S105  1  0.65402684  0.93603103  0.02212910  1
  S  S106  1  0.17542100  0.99609205  0.12554489  1
  S  S107  1  0.23359530  0.59725877  0.05723560  1
  S  S108  1  0.31965476  0.23709763  0.12840524  1
  S  S109  1  0.32379128  0.85493801  0.06597250  1
  S  S110  1  0.83457282  0.13504324  0.14099582  1
  S  S111  1  0.87474423  0.73148841  0.06661357  1
  S  S112  1  0.32400676  0.06302258  0.05079529  1
  S  S113  1  0.34314880  0.44624569  0.11453946  1
  S  S114  1  0.86856700  0.54262760  0.09987849  1
  S  S115  1  0.67342337  0.97611842  0.09014295  1
  S  S116  1  0.17566935  0.69281915  0.11932295  1
  S  S117  1  0.66620666  0.11813426  0.21623029  1
  S  S118  1  0.67180647  0.72408645  0.14960843  1
  S  S119  1  0.18066363  0.79660616  0.25271704  1
  S  S120  1  0.16581306  0.39692902  0.18480485  1
  S  S121  1  0.34120664  0.03534829  0.25858916  1
  S  S122  1  0.34768064  0.63726869  0.19188293  1
  S  S123  1  0.84284527  0.93684975  0.26932742  1
  S  S124  1  0.84328724  0.54297847  0.20178662  1
  S  S125  1  0.34747913  0.84967300  0.17952490  1
  S  S126  1  0.33834155  0.24712414  0.24294740  1
  S  S127  1  0.84421646  0.93799770  0.17012805  1
  S  S128  1  0.83772473  0.34700140  0.23163905  1
  S  S129  1  0.68242044  0.76244532  0.21869813  1
  S  S130  1  0.66065531  0.36061424  0.15655258  1
  S  S131  1  0.16188822  0.08799138  0.18847282  1
  S  S132  1  0.17362742  0.48848871  0.24816376  1
  S  S133  1  0.67224875  0.92277835  0.34483123  1
  S  S134  1  0.68086161  0.52172540  0.28099312  1
  S  S135  1  0.17901284  0.59575529  0.38045292  1
  S  S136  1  0.17451776  0.19784767  0.31441680  1
  S  S137  1  0.35784425  0.83725013  0.38780256  1
  S  S138  1  0.34600086  0.43724894  0.32087921  1
  S  S139  1  0.86174942  0.74154573  0.40046786  1
  S  S140  1  0.84733202  0.34406833  0.33062636  1
  S  S141  1  0.35232130  0.64952290  0.30793180  1
  S  S142  1  0.33431568  0.04615789  0.37268863  1
  S  S143  1  0.85080866  0.74065692  0.29871974  1
  S  S144  1  0.84421583  0.14742887  0.36077107  1
  S  S145  1  0.67602952  0.56281499  0.34986427  1
  S  S146  1  0.67193919  0.16589850  0.28425712  1
  S  S147  1  0.17263982  0.88796813  0.31613764  1
  S  S148  1  0.17348047  0.29136239  0.37725800  1
  S  S149  1  0.67486503  0.31524959  0.40636668  1
  S  S150  1  0.35251486  0.22830908  0.44994701  1
  S  S151  1  0.34848485  0.43822395  0.43552498  1
  S  S152  1  0.86890462  0.54885711  0.43074348  1
  S  S153  1  0.70572677  0.35227066  0.47335341  1
  S  S154  1  0.68491561  0.97134034  0.41294831  1
  S  S155  1  0.22051412  0.68617371  0.44373763  1
  S  S156  1  0.07865204  0.76179375  0.58834497  1
  S  S157  1  0.09646929  0.14067791  0.52209865  1
  S  S158  1  0.57438362  0.08024663  0.62543516  1
  S  S159  1  0.51495049  0.47861471  0.55704039  1
  S  S160  1  0.42746007  0.83950895  0.62852920  1
  S  S161  1  0.42667784  0.22132342  0.56598022  1
  S  S162  1  0.91447205  0.94085246  0.64077502  1
  S  S163  1  0.87534093  0.34509943  0.56621600  1
  S  S164  1  0.42459552  0.01295311  0.55084727  1
  S  S165  1  0.40619073  0.63041076  0.61444824  1
  S  S166  1  0.88014576  0.53403890  0.59952632  1
  S  S167  1  0.07605468  0.10055598  0.59012259  1
  S  S168  1  0.57502613  0.38324892  0.61909499  1
  S  S169  1  0.08417486  0.95721110  0.71650378  1
  S  S170  1  0.07801623  0.35219140  0.64943292  1
  S  S171  1  0.56992100  0.27833474  0.75277977  1
  S  S172  1  0.58344798  0.67962705  0.68475672  1
  S  S173  1  0.40871096  0.03999124  0.75882112  1
  S  S174  1  0.40130889  0.43894700  0.69186432  1
  S  S175  1  0.90703051  0.13723480  0.76925189  1
  S  S176  1  0.90407903  0.53275355  0.70170394  1
  S  S177  1  0.40273254  0.22660758  0.67941755  1
  S  S178  1  0.41208071  0.82818672  0.74325481  1
  S  S179  1  0.90632701  0.13756245  0.67004516  1
  S  S180  1  0.91168998  0.72839341  0.73176192  1
  S  S181  1  0.06680743  0.31311925  0.71850649  1
  S  S182  1  0.08778497  0.71510089  0.65652829  1
  S  S183  1  0.58789087  0.98801144  0.68835742  1
  S  S184  1  0.57418759  0.58748110  0.74806257  1
  S  S185  1  0.07881256  0.15034277  0.84501363  1
  S  S186  1  0.06913467  0.55312354  0.78114849  1
  S  S187  1  0.57259726  0.47849265  0.88040046  1
  S  S188  1  0.57647307  0.87588048  0.81479290  1
  S  S189  1  0.39154440  0.23638135  0.88803946  1
  S  S190  1  0.40497561  0.63685520  0.82093759  1
  S  S191  1  0.88872780  0.33216087  0.90008022  1
  S  S192  1  0.90464463  0.73040027  0.83112495  1
  S  S193  1  0.39816963  0.42477014  0.80777923  1
  S  S194  1  0.41769245  0.02774159  0.87311914  1
  S  S195  1  0.90153352  0.33345669  0.79854251  1
  S  S196  1  0.90533089  0.92696430  0.86126442  1
  S  S197  1  0.07531684  0.51103351  0.84995304  1
  S  S198  1  0.07868224  0.90897320  0.78460943  1
  S  S199  1  0.57865161  0.18693930  0.81621401  1
  S  S200  1  0.57707673  0.78251630  0.87767975  1
  S  S201  1  0.07491930  0.75914236  0.90664575  1
  S  S202  1  0.39671231  0.84467939  0.95058516  1
  S  S203  1  0.40106855  0.63534294  0.93547441  1
  S  S204  1  0.88369695  0.52413687  0.93070137  1
  S  S205  1  0.04332202  0.71998373  0.97354828  1
  S  S206  1  0.06450234  0.10188839  0.91311513  1
  S  S207  1  0.53099822  0.38751618  0.94358452  1
