# generated using pymatgen
data_Na3PS4
_symmetry_space_group_name_H-M   'P 1'
_cell_length_a   7.16981500
_cell_length_b   15.66667701
_cell_length_c   44.57797498
_cell_angle_alpha   90.00000000
_cell_angle_beta   90.00000000
_cell_angle_gamma   90.00193465
_symmetry_Int_Tables_number   1
_chemical_formula_structural   Na3PS4
_chemical_formula_sum   'Na78 P26 S104'
_cell_volume   5007.31803032
_cell_formula_units_Z   26
loop_
 _symmetry_equiv_pos_site_id
 _symmetry_equiv_pos_as_xyz
  1  'x, y, z'
loop_
 _atom_site_type_symbol
 _atom_site_label
 _atom_site_symmetry_multiplicity
 _atom_site_fract_x
 _atom_site_fract_y
 _atom_site_fract_z
 _atom_site_occupancy
  Na  Na0  1  0.54809372  0.13624950  0.08042405  1
  Na  Na1  1  0.04778989  0.15275544  0.08927958  1
  Na  Na2  1  0.04475079  0.75187272  0.00463919  1
  Na  Na3  1  0.95662731  0.95532588  0.04187881  1
  Na  Na4  1  0.02921577  0.38300457  0.10627488  1
  Na  Na5  1  0.50039890  0.63265813  0.06889808  1
  Na  Na6  1  0.65306043  0.42608423  0.03661955  1
  Na  Na7  1  0.37489781  0.83347650  0.10198754  1
  Na  Na8  1  0.88603377  0.82878879  0.10991314  1
  Na  Na9  1  0.54722749  0.93214440  0.21971023  1
  Na  Na10  1  0.50478917  0.53147437  0.14263253  1
  Na  Na11  1  0.04773656  0.95477056  0.22065920  1
  Na  Na12  1  0.99141944  0.57239594  0.14464458  1
  Na  Na13  1  0.99832442  0.76312789  0.18402919  1
  Na  Na14  1  0.98850599  0.15090591  0.25352907  1
  Na  Na15  1  0.47837862  0.00905504  0.14593316  1
  Na  Na16  1  0.48888800  0.43108771  0.21570258  1
  Na  Na17  1  0.47068607  0.22735548  0.17821402  1
  Na  Na18  1  0.39904693  0.64025442  0.24744490  1
  Na  Na19  1  0.96071720  0.24313354  0.17574516  1
  Na  Na20  1  0.90186601  0.63909823  0.24683584  1
  Na  Na21  1  0.50239756  0.72351736  0.37237308  1
  Na  Na22  1  0.61289723  0.33860711  0.28235615  1
  Na  Na23  1  0.02282770  0.71032964  0.34945029  1
  Na  Na24  1  0.11732060  0.33763872  0.28338237  1
  Na  Na25  1  0.99578185  0.52349358  0.31185275  1
  Na  Na26  1  0.02264340  0.90872635  0.39031605  1
  Na  Na27  1  0.48065720  0.82454621  0.29318239  1
  Na  Na28  1  0.48540777  0.25707823  0.34969857  1
  Na  Na29  1  0.40245443  0.03734943  0.32474713  1
  Na  Na30  1  0.47167114  0.45605552  0.39205202  1
  Na  Na31  1  0.89779274  0.03333932  0.32235313  1
  Na  Na32  1  0.96188087  0.44125746  0.38980883  1
  Na  Na33  1  0.52625378  0.15423863  0.42637020  1
  Na  Na34  1  0.82474157  0.55334994  0.48796595  1
  Na  Na35  1  0.01126323  0.12644514  0.41521344  1
  Na  Na36  1  0.02364947  0.33099435  0.46375601  1
  Na  Na37  1  0.40754965  0.61513981  0.45021624  1
  Na  Na38  1  0.69686132  0.81967240  0.45683891  1
  Na  Na39  1  0.60163766  0.56394754  0.58041986  1
  Na  Na40  1  0.10148683  0.54771899  0.58908914  1
  Na  Na41  1  0.10433122  0.94814504  0.50467989  1
  Na  Na42  1  0.19118415  0.74542007  0.54211132  1
  Na  Na43  1  0.12080313  0.31724164  0.60621143  1
  Na  Na44  1  0.64924511  0.06687655  0.56898065  1
  Na  Na45  1  0.49835695  0.27353406  0.53672587  1
  Na  Na46  1  0.77478311  0.86642238  0.60223378  1
  Na  Na47  1  0.26396957  0.87144781  0.60991471  1
  Na  Na48  1  0.59995357  0.76698138  0.71942426  1
  Na  Na49  1  0.64390757  0.16843594  0.64276602  1
  Na  Na50  1  0.09969334  0.74598383  0.72046392  1
  Na  Na51  1  0.15667611  0.12805497  0.64477080  1
  Na  Na52  1  0.15248869  0.93769185  0.68406944  1
  Na  Na53  1  0.16094636  0.55007947  0.75342664  1
  Na  Na54  1  0.67117912  0.69051032  0.64605038  1
  Na  Na55  1  0.65998033  0.26806885  0.71596209  1
  Na  Na56  1  0.68573868  0.47120420  0.67834775  1
  Na  Na57  1  0.75060729  0.05983984  0.74758291  1
  Na  Na58  1  0.19436142  0.45670928  0.67592843  1
  Na  Na59  1  0.24751139  0.06044549  0.74731757  1
  Na  Na60  1  0.64734995  0.97594649  0.87196452  1
  Na  Na61  1  0.53817710  0.36129716  0.78254084  1
  Na  Na62  1  0.12696834  0.98951930  0.84935256  1
  Na  Na63  1  0.03421637  0.36280751  0.78351380  1
  Na  Na64  1  0.15421039  0.17699319  0.81202695  1
  Na  Na65  1  0.12693838  0.79183644  0.89031798  1
  Na  Na66  1  0.67006756  0.87414016  0.79236504  1
  Na  Na67  1  0.66550473  0.44242268  0.85002586  1
  Na  Na68  1  0.74583558  0.66214100  0.82478905  1
  Na  Na69  1  0.67741982  0.24333668  0.89206330  1
  Na  Na70  1  0.25127173  0.66646781  0.82246669  1
  Na  Na71  1  0.18648483  0.25910072  0.88981136  1
  Na  Na72  1  0.62527410  0.54606510  0.92661492  1
  Na  Na73  1  0.32489381  0.14618409  0.98790366  1
  Na  Na74  1  0.13997834  0.57464411  0.91509306  1
  Na  Na75  1  0.13015166  0.36889318  0.96363218  1
  Na  Na76  1  0.74164878  0.08531814  0.95004442  1
  Na  Na77  1  0.45217763  0.88073935  0.95674726  1
  P  P78  1  0.45202953  0.96606647  0.03873464  1
  P  P79  1  0.53729124  0.33449092  0.10703211  1
  P  P80  1  0.00577326  0.64057895  0.06712477  1
  P  P81  1  0.49042711  0.73575881  0.17710047  1
  P  P82  1  0.49129723  0.13799141  0.25179904  1
  P  P83  1  0.97637625  0.02773858  0.14868363  1
  P  P84  1  0.99120328  0.43955403  0.21243859  1
  P  P85  1  0.49933380  0.53914479  0.31705055  1
  P  P86  1  0.51393975  0.94828883  0.39916128  1
  P  P87  1  0.98241886  0.83607508  0.28576621  1
  P  P88  1  0.98879456  0.24173230  0.35226686  1
  P  P89  1  0.52296768  0.34536023  0.46274806  1
  P  P90  1  0.96780221  0.65203219  0.42290696  1
  P  P91  1  0.69606580  0.73467134  0.53878441  1
  P  P92  1  0.61287123  0.36546292  0.60703464  1
  P  P93  1  0.14367260  0.05955631  0.56717747  1
  P  P94  1  0.65954544  0.96421003  0.67733487  1
  P  P95  1  0.65813233  0.56178411  0.75170222  1
  P  P96  1  0.17335369  0.67234537  0.64859265  1
  P  P97  1  0.15774994  0.26001792  0.71278258  1
  P  P98  1  0.65074911  0.16082935  0.81709659  1
  P  P99  1  0.63588320  0.75189010  0.89917689  1
  P  P100  1  0.16792009  0.86320159  0.78583102  1
  P  P101  1  0.16210545  0.45862001  0.85239243  1
  P  P102  1  0.63092334  0.35436558  0.96258080  1
  P  P103  1  0.18158507  0.04832657  0.92275284  1
  S  S104  1  0.73302337  0.28969767  0.07616080  1
  S  S105  1  0.63116836  0.97723694  0.00287995  1
  S  S106  1  0.11893146  0.98666121  0.11118508  1
  S  S107  1  0.17469268  0.60694482  0.03208721  1
  S  S108  1  0.34011396  0.24150456  0.11781508  1
  S  S109  1  0.29537569  0.85675948  0.03759982  1
  S  S110  1  0.82145521  0.73686608  0.05457860  1
  S  S111  1  0.27690878  0.07188210  0.04149138  1
  S  S112  1  0.39550512  0.43647925  0.08922783  1
  S  S113  1  0.84569384  0.53947866  0.08246088  1
  S  S114  1  0.61901155  0.96328901  0.07699630  1
  S  S115  1  0.16669081  0.68172867  0.10324043  1
  S  S116  1  0.66425843  0.10784489  0.21654599  1
  S  S117  1  0.66115371  0.70337330  0.14131980  1
  S  S118  1  0.15805754  0.80148102  0.25076644  1
  S  S119  1  0.16349582  0.40463112  0.17719423  1
  S  S120  1  0.31391020  0.03723345  0.26092495  1
  S  S121  1  0.30612154  0.63698083  0.18518211  1
  S  S122  1  0.79262561  0.12318275  0.13617906  1
  S  S123  1  0.80749720  0.53261612  0.19873747  1
  S  S124  1  0.33885117  0.84427332  0.16745388  1
  S  S125  1  0.33940539  0.24589917  0.23997726  1
  S  S126  1  0.82816857  0.92726647  0.16662979  1
  S  S127  1  0.84372743  0.33412718  0.22754961  1
  S  S128  1  0.64625009  0.75731752  0.21542310  1
  S  S129  1  0.67596570  0.36708765  0.14570637  1
  S  S130  1  0.16220407  0.07859789  0.17924098  1
  S  S131  1  0.15222493  0.48608640  0.24750566  1
  S  S132  1  0.63823900  0.91203624  0.35940680  1
  S  S133  1  0.64435366  0.51619155  0.27771110  1
  S  S134  1  0.17903362  0.60536433  0.39524022  1
  S  S135  1  0.15119139  0.18804784  0.31893903  1
  S  S136  1  0.36743427  0.85105993  0.41865306  1
  S  S137  1  0.34265552  0.43239230  0.32837693  1
  S  S138  1  0.81069497  0.93443836  0.27230661  1
  S  S139  1  0.85114642  0.34835320  0.33628668  1
  S  S140  1  0.32062996  0.64117053  0.31056849  1
  S  S141  1  0.32668184  0.04603925  0.38908415  1
  S  S142  1  0.82045716  0.73406653  0.29803340  1
  S  S143  1  0.79471561  0.15298450  0.36620026  1
  S  S144  1  0.67935142  0.56550140  0.35159019  1
  S  S145  1  0.64614793  0.16168065  0.28994710  1
  S  S146  1  0.14272862  0.87593629  0.32228822  1
  S  S147  1  0.15714325  0.27735937  0.38797441  1
  S  S148  1  0.68309663  0.31520060  0.42530245  1
  S  S149  1  0.37128377  0.23924801  0.47646905  1
  S  S150  1  0.84255200  0.75404423  0.40190443  1
  S  S151  1  0.33146489  0.43892752  0.45191318  1
  S  S152  1  0.77183691  0.55641768  0.42846982  1
  S  S153  1  0.70070056  0.38071746  0.49683698  1
  S  S154  1  0.71808829  0.99108108  0.42952236  1
  S  S155  1  0.06388925  0.68996929  0.46379190  1
  S  S156  1  0.41749991  0.41008015  0.57611535  1
  S  S157  1  0.51646762  0.72360698  0.50298793  1
  S  S158  1  0.02995689  0.71356084  0.61117025  1
  S  S159  1  0.97500500  0.09329847  0.53213040  1
  S  S160  1  0.81027857  0.45844476  0.61769577  1
  S  S161  1  0.85234171  0.84412594  0.53768227  1
  S  S162  1  0.32779112  0.96323070  0.55460999  1
  S  S163  1  0.87156299  0.62896182  0.54140653  1
  S  S164  1  0.75455458  0.26324987  0.58936976  1
  S  S165  1  0.30407713  0.16051589  0.58254384  1
  S  S166  1  0.52974384  0.73703206  0.57710992  1
  S  S167  1  0.98282831  0.01838748  0.60329432  1
  S  S168  1  0.48614331  0.59090527  0.71619760  1
  S  S169  1  0.48832013  0.99656518  0.64159557  1
  S  S170  1  0.99285292  0.89873252  0.75086111  1
  S  S171  1  0.98559368  0.29535573  0.67754370  1
  S  S172  1  0.83383019  0.66314453  0.76082499  1
  S  S173  1  0.84333145  0.06321643  0.68536748  1
  S  S174  1  0.35698856  0.57709282  0.63594989  1
  S  S175  1  0.34051654  0.16662817  0.69898022  1
  S  S176  1  0.81131283  0.85578993  0.66760105  1
  S  S177  1  0.81152585  0.45413734  0.74014069  1
  S  S178  1  0.32143422  0.77285346  0.66656699  1
  S  S179  1  0.30608202  0.36522278  0.72783768  1
  S  S180  1  0.50415977  0.94248717  0.71568904  1
  S  S181  1  0.47410904  0.33310708  0.64575351  1
  S  S182  1  0.98798500  0.62130629  0.67920090  1
  S  S183  1  0.99689169  0.21377736  0.74790344  1
  S  S184  1  0.51128844  0.78808290  0.85945474  1
  S  S185  1  0.50538535  0.18381149  0.77779320  1
  S  S186  1  0.97052585  0.09462193  0.89499970  1
  S  S187  1  0.99922212  0.51220271  0.81908765  1
  S  S188  1  0.78211871  0.84928588  0.91862410  1
  S  S189  1  0.80729610  0.26767383  0.82845632  1
  S  S190  1  0.33829996  0.76450726  0.77220833  1
  S  S191  1  0.29906454  0.35175952  0.83642742  1
  S  S192  1  0.82955354  0.05885065  0.81059438  1
  S  S193  1  0.82322396  0.65418314  0.88910147  1
  S  S194  1  0.33151510  0.96454171  0.79824653  1
  S  S195  1  0.35706933  0.54714633  0.86617050  1
  S  S196  1  0.47054826  0.13439378  0.85158891  1
  S  S197  1  0.50289781  0.53810936  0.78978340  1
  S  S198  1  0.00653173  0.82357427  0.82224779  1
  S  S199  1  0.99426728  0.42344959  0.88817746  1
  S  S200  1  0.47019116  0.38484787  0.92522591  1
  S  S201  1  0.78235966  0.46039894  0.97645965  1
  S  S202  1  0.30784312  0.94646659  0.90182877  1
  S  S203  1  0.82247972  0.26101140  0.95159178  1
  S  S204  1  0.37638694  0.14443743  0.92837981  1
  S  S205  1  0.45328963  0.31832961  0.99659612  1
  S  S206  1  0.43204448  0.70902856  0.92960003  1
  S  S207  1  0.08527858  0.01020771  0.96361728  1
